@<TRIPOS>MOLECULE
tmp/4n5vB02.pdb
 92 87 0 0 0
SMALL
GASTEIGER

@<TRIPOS>ATOM
      1  N         10.6590  -23.6740   52.8080 N.3    84  VAL84      -0.1231
      2  CA        10.2440  -24.4160   51.6040 C.3    84  VAL84       0.1692
      3  C          9.9390  -23.4460   50.4880 C.2    84  VAL84       0.2593
      4  O          9.5410  -22.3120   50.7600 O.2    84  VAL84      -0.2718
      5  CB         8.9960  -25.2890   51.8580 C.3    84  VAL84       0.0266
      6  CG1        7.7210  -24.4500   52.0130 C.3    84  VAL84       0.0020
      7  CG2        8.8140  -26.3170   50.7360 C.3    84  VAL84       0.0020
      8  N         10.1280  -23.8870   49.2440 N.am   85  GLY85      -0.1942
      9  CA         9.7400  -23.0570   48.1090 C.3    85  GLY85       0.2014
     10  C          8.8810  -23.7810   47.0900 C.2    85  GLY85       0.2639
     11  O          8.6020  -24.9810   47.2190 O.2    85  GLY85      -0.2714
     12  N          8.4510  -23.0370   46.0800 N.am   86  THR86      -0.1950
     13  CA         7.6930  -23.5870   44.9570 C.3    86  THR86       0.1897
     14  C          8.5240  -24.5600   44.1480 C.2    86  THR86       0.2313
     15  O          7.9740  -25.4660   43.5190 O.2    86  THR86      -0.2863
     16  CB         7.2620  -22.4510   43.9980 C.3    86  THR86       0.1794
     17  OG1        8.4360  -21.7740   43.5200 O.3    86  THR86      -0.2208
     18  CG2        6.3910  -21.4570   44.7240 C.3    86  THR86       0.0378
     19  N          7.3110  -28.9710   55.1050 N.3   114  HIS114     -0.1226
     20  CA         6.4740  -29.5530   54.0650 C.3   114  HIS114      0.1752
     21  C          7.3920  -29.6530   52.8500 C.2   114  HIS114      0.2597
     22  O          8.3270  -28.8520   52.6990 O.2   114  HIS114     -0.2718
     23  CB         5.3130  -28.5850   53.7550 C.3   114  HIS114      0.0759
     24  CG         4.1470  -29.2040   53.0320 C.ar  114  HIS114      0.0818
     25  ND1        3.2520  -28.4500   52.2990 N.ar  114  HIS114     -0.2268
     26  CD2        3.7050  -30.4820   52.9590 C.ar  114  HIS114      0.1154
     27  CE1        2.2910  -29.2320   51.8370 C.ar  114  HIS114      0.1986
     28  NE2        2.5530  -30.4730   52.2020 N.ar  114  HIS114     -0.2212
     29  N          7.1650  -30.6560   52.0010 N.am  115  GLY115     -0.1942
     30  CA         7.9900  -30.8070   50.8010 C.3   115  GLY115      0.2014
     31  C          7.5460  -31.9790   49.9550 C.2   115  GLY115      0.2638
     32  O          6.5690  -32.6710   50.2750 O.2   115  GLY115     -0.2714
     33  N          8.2770  -32.2080   48.8750 N.am  116  ASN116     -0.1972
     34  CA         7.9050  -33.2130   47.9120 C.3   116  ASN116      0.1688
     35  C          9.1500  -33.6210   47.1130 C.2   116  ASN116      0.2292
     36  O         10.1960  -32.9970   47.2220 O.2   116  ASN116     -0.2864
     37  CB         6.8720  -32.6140   46.9550 C.3   116  ASN116      0.1181
     38  CG         6.0360  -33.6630   46.2790 C.2   116  ASN116      0.2629
     39  OD1        6.3120  -34.8620   46.3780 O.2   116  ASN116     -0.2716
     40  ND2        4.9820  -33.2240   45.6050 N.am  116  ASN116     -0.0877
     41  N         10.2610  -32.1530   40.8390 N.3   119  ALA119     -0.1245
     42  CA         9.3480  -32.0690   39.7100 C.3   119  ALA119      0.1562
     43  C         10.1650  -31.8430   38.4320 C.2   119  ALA119      0.2260
     44  O          9.9830  -32.5610   37.4580 O.2   119  ALA119     -0.2867
     45  CB         8.3320  -30.9590   39.9140 C.3   119  ALA119      0.0290
     46  N          4.2030  -34.1990   51.0050 N.3   157  ALA157     -0.1245
     47  CA         2.9220  -33.6800   50.5150 C.3   157  ALA157      0.1562
     48  C          1.9310  -34.7700   50.0370 C.2   157  ALA157      0.2260
     49  O          0.7750  -34.7210   50.4430 O.2   157  ALA157     -0.2867
     50  CB         3.1210  -32.5710   49.4670 C.3   157  ALA157      0.0290
     51  N         -5.5450  -34.2350   46.6350 N.3   164  TYR164     -0.1241
     52  CA        -4.9570  -33.3570   45.6050 C.3   164  TYR164      0.1605
     53  C         -4.4320  -34.1360   44.3910 C.2   164  TYR164      0.2264
     54  O         -3.9030  -33.5520   43.4360 O.2   164  TYR164     -0.2867
     55  CB        -3.8170  -32.5350   46.2190 C.3   164  TYR164      0.0534
     56  CG        -3.2620  -31.4120   45.3520 C.ar  164  TYR164     -0.0201
     57  CD1       -3.9850  -30.2410   45.1370 C.ar  164  TYR164     -0.0009
     58  CD2       -1.9930  -31.5130   44.7800 C.ar  164  TYR164     -0.0009
     59  CE1       -3.4550  -29.2080   44.3380 C.ar  164  TYR164      0.0417
     60  CE2       -1.4660  -30.5010   43.9700 C.ar  164  TYR164      0.0417
     61  CZ        -2.1920  -29.3520   43.7660 C.ar  164  TYR164      0.1957
     62  OH        -1.6630  -28.3460   42.9970 O.3   164  TYR164     -0.2866
     63  N         -1.2900  -31.1850   36.7320 N.3   171  ARG171     -0.1245
     64  CA        -0.0600  -30.3710   36.7670 C.3   171  ARG171      0.1563
     65  C          1.0420  -31.0240   35.9160 C.2   171  ARG171      0.2260
     66  O          1.6950  -30.3470   35.1340 O.2   171  ARG171     -0.2867
     67  CB         0.4920  -30.1780   38.1990 C.3   171  ARG171      0.0307
     68  CG        -0.0570  -28.9880   38.9920 C.3   171  ARG171      0.0489
     69  CD         0.8700  -28.6020   40.2130 C.3   171  ARG171      0.2205
     70  NE         2.3000  -28.4670   39.8630 N.pl3 171  ARG171     -0.0865
     71  CZ         3.3080  -28.3110   40.7350 C.cat 171  ARG171      0.5346
     72  NH1        3.0960  -28.2670   42.0480 N.pl3 171  ARG171      0.1354
     73  NH2        4.5530  -28.2060   40.2940 N.pl3 171  ARG171      0.1354
     74  N          1.1700  -24.2000   41.3090 N.3   181  ASN181     -0.1240
     75  CA         2.5500  -24.2360   41.8260 C.3   181  ASN181      0.1653
     76  C          2.6930  -23.4850   43.1540 C.2   181  ASN181      0.2266
     77  O          3.6290  -23.7330   43.8960 O.2   181  ASN181     -0.2867
     78  CB         3.5660  -23.6690   40.8180 C.3   181  ASN181      0.1155
     79  CG         3.7700  -24.5670   39.6180 C.2   181  ASN181      0.2627
     80  OD1        4.9000  -24.9900   39.3280 O.2   181  ASN181     -0.2716
     81  ND2        2.6900  -24.8860   38.9210 N.am  181  ASN181     -0.0877
     82  N          1.7780  -25.8070   47.3790 N.3   184  GLY184     -0.1210
     83  CA         2.6330  -26.5590   48.3130 C.3   184  GLY184      0.1940
     84  C          3.0250  -25.7210   49.5260 C.2   184  GLY184      0.2453
     85  O          2.6670  -26.0550   50.6540 O.2   184  GLY184     -0.2732
     86  N          3.7360  -24.6080   49.3000 N.am  185  PRO185     -0.2728
     87  CA         4.1520  -23.7060   50.3830 C.3   185  PRO185      0.1401
     88  C          2.9950  -23.1870   51.2470 C.2   185  PRO185      0.2269
     89  O          3.1760  -22.9460   52.4470 O.2   185  PRO185     -0.2865
     90  CB         4.8500  -22.5610   49.6360 C.3   185  PRO185      0.0296
     91  CG         5.3660  -23.1960   48.4100 C.3   185  PRO185      0.0237
     92  CD         4.2990  -24.1800   48.0040 C.3   185  PRO185      0.0939
@<TRIPOS>BOND
     1    66    65    2
     2    65    64    1
     3    63    64    1
     4    64    67    1
     5    44    43    2
     6    67    68    1
     7    43    42    1
     8    81    79   am
     9    68    69    1
    10    80    79    2
    11    79    78    1
    12    42    45    1
    13    42    41    1
    14    70    69    1
    15    70    71    2
    16    73    71    1
    17    71    72    1
    18    78    75    1
    19    74    75    1
    20    75    76    1
    21    62    61    1
    22    76    77    2
    23    54    53    2
    24    15    14    2
    25    17    16    1
    26    61    60   ar
    27    61    59   ar
    28    60    58   ar
    29    16    18    1
    30    16    13    1
    31    14    13    1
    32    59    57   ar
    33    53    52    1
    34    58    56   ar
    35    13    12    1
    36    57    56   ar
    37    56    55    1
    38    52    55    1
    39    52    51    1
    40    40    38   am
    41    12    10   am
    42    38    39    2
    43    38    37    1
    44    37    34    1
    45    10    11    2
    46    10     9    1
    47    35    36    2
    48    35    34    1
    49    82    83    1
    50    34    33    1
    51    92    91    1
    52    92    86    1
    53     9     8    1
    54    83    84    1
    55    91    90    1
    56    33    31   am
    57     8     3   am
    58    86    84   am
    59    86    87    1
    60    50    47    1
    61    84    85    2
    62    90    87    1
    63    31    32    2
    64    31    30    1
    65    48    49    2
    66    48    47    1
    67    87    88    1
    68     3     4    2
    69     3     2    1
    70    47    46    1
    71     7     5    1
    72    30    29    1
    73    88    89    2
    74     2     5    1
    75     2     1    1
    76    27    28   ar
    77    27    25   ar
    78     5     6    1
    79    29    21   am
    80    28    26   ar
    81    25    24   ar
    82    22    21    2
    83    21    20    1
    84    26    24   ar
    85    24    23    1
    86    23    20    1
    87    20    19    1
