@<TRIPOS>MOLECULE
tmp/4n62A01.pdb
 136 129 0 0 0
SMALL
GASTEIGER

@<TRIPOS>ATOM
      1  N         41.6810  -15.4080  -27.6860 N.3    88  TYR88      -0.1241
      2  CA        41.7570  -15.2410  -29.1340 C.3    88  TYR88       0.1605
      3  C         40.9850  -16.3840  -29.7890 C.2    88  TYR88       0.2264
      4  O         41.2990  -17.5530  -29.5560 O.2    88  TYR88      -0.2867
      5  CB        43.2060  -15.2370  -29.6240 C.3    88  TYR88       0.0534
      6  CG        43.3840  -14.7780  -31.0600 C.ar   88  TYR88      -0.0201
      7  CD1       43.1380  -15.6360  -32.1220 C.ar   88  TYR88      -0.0009
      8  CD2       43.8230  -13.4910  -31.3470 C.ar   88  TYR88      -0.0009
      9  CE1       43.3040  -15.2210  -33.4300 C.ar   88  TYR88       0.0417
     10  CE2       43.9970  -13.0650  -32.6500 C.ar   88  TYR88       0.0417
     11  CZ        43.7360  -13.9320  -33.6860 C.ar   88  TYR88       0.1957
     12  OH        43.9060  -13.5180  -34.9860 O.3    88  TYR88      -0.2866
     13  N         53.9370  -11.6110  -29.1790 N.3   124  GLY124     -0.1210
     14  CA        52.6560  -11.5360  -29.8530 C.3   124  GLY124      0.1956
     15  C         51.5370  -11.4340  -28.8300 C.2   124  GLY124      0.2612
     16  O         51.4090  -12.2810  -27.9420 O.2   124  GLY124     -0.2717
     17  N         50.7440  -10.3740  -28.9440 N.am  125  ALA125     -0.1965
     18  CA        49.6630  -10.1240  -28.0080 C.3   125  ALA125      0.1728
     19  C         48.4020   -9.7210  -28.7530 C.2   125  ALA125      0.2617
     20  O         48.4510   -9.4190  -29.9450 O.2   125  ALA125     -0.2715
     21  CB        50.0640   -9.0420  -27.0210 C.3   125  ALA125      0.0334
     22  N         47.2710   -9.7210  -28.0550 N.am  126  THR126     -0.1937
     23  CA        46.0160   -9.3050  -28.6680 C.3   126  THR126      0.2028
     24  C         45.1130   -8.5900  -27.6750 C.2   126  THR126      0.2642
     25  O         45.2600   -8.7370  -26.4640 O.2   126  THR126     -0.2714
     26  CB        45.2420  -10.5000  -29.2620 C.3   126  THR126      0.1808
     27  OG1       44.0440  -10.0280  -29.8910 O.3   126  THR126     -0.2208
     28  CG2       44.8690  -11.4810  -28.1710 C.3   126  THR126      0.0379
     29  N         44.1590   -7.8360  -28.2060 N.am  127  SER127     -0.1949
     30  CA        43.1890   -7.1160  -27.3940 C.3   127  SER127      0.1924
     31  C         42.1560   -8.0720  -26.7810 C.2   127  SER127      0.2314
     32  O         41.4780   -7.7380  -25.8060 O.2   127  SER127     -0.2863
     33  CB        42.5050   -6.0410  -28.2480 C.3   127  SER127      0.2116
     34  OG        41.3650   -5.5080  -27.6060 O.3   127  SER127     -0.2180
     35  N         46.8440   -5.3750  -23.4120 N.3   134  SER134     -0.1217
     36  CA        46.8030   -6.4520  -24.4040 C.3   134  SER134      0.1889
     37  C         47.7870   -7.5420  -24.0160 C.2   134  SER134      0.2288
     38  O         48.9000   -7.2510  -23.5830 O.2   134  SER134     -0.2866
     39  CB        47.1300   -5.9370  -25.8080 C.3   134  SER134      0.2089
     40  OG        46.1590   -5.0170  -26.2650 O.3   134  SER134     -0.2183
     41  N         53.3050  -16.3950  -28.8980 N.3   142  TRP142     -0.1241
     42  CA        52.9520  -15.9930  -30.2490 C.3   142  TRP142      0.1605
     43  C         54.2140  -15.4620  -30.9280 C.2   142  TRP142      0.2264
     44  O         54.6650  -14.3460  -30.6460 O.2   142  TRP142     -0.2867
     45  CB        51.8420  -14.9420  -30.2240 C.3   142  TRP142      0.0550
     46  CG        51.2010  -14.6920  -31.5470 C.ar  142  TRP142      0.0003
     47  CD1       51.6190  -15.1520  -32.7630 C.ar  142  TRP142      0.0946
     48  CD2       50.0080  -13.9310  -31.7920 C.ar  142  TRP142      0.0152
     49  NE1       50.7600  -14.7210  -33.7510 N.ar  142  TRP142     -0.2442
     50  CE2       49.7650  -13.9690  -33.1810 C.ar  142  TRP142      0.0810
     51  CE3       49.1240  -13.2210  -30.9710 C.ar  142  TRP142      0.0012
     52  CZ2       48.6740  -13.3200  -33.7690 C.ar  142  TRP142      0.0191
     53  CZ3       48.0390  -12.5800  -31.5550 C.ar  142  TRP142      0.0001
     54  CH2       47.8270  -12.6330  -32.9430 C.ar  142  TRP142      0.0015
     55  N         56.5430  -14.0420  -33.9050 N.3   144  LEU144     -0.1245
     56  CA        56.4500  -13.2340  -35.1210 C.3   144  LEU144      0.1561
     57  C         57.7980  -13.2070  -35.8270 C.2   144  LEU144      0.2260
     58  O         58.7250  -13.9010  -35.4240 O.2   144  LEU144     -0.2867
     59  CB        56.0170  -11.7980  -34.8150 C.3   144  LEU144      0.0270
     60  CG        54.7730  -11.4650  -34.0000 C.3   144  LEU144      0.0019
     61  CD1       55.0770  -11.5400  -32.5150 C.3   144  LEU144      0.0001
     62  CD2       54.2920  -10.0790  -34.3740 C.3   144  LEU144      0.0001
     63  N         48.1780  -20.5130  -36.3740 N.3   174  HIS174     -0.1241
     64  CA        47.4660  -19.2490  -36.5040 C.3   174  HIS174      0.1621
     65  C         47.0060  -19.0190  -37.9320 C.2   174  HIS174      0.2264
     66  O         47.8050  -19.0480  -38.8640 O.2   174  HIS174     -0.2867
     67  CB        48.3320  -18.0770  -36.0420 C.3   174  HIS174      0.0745
     68  CG        47.6870  -16.7400  -36.2430 C.ar  174  HIS174      0.0817
     69  ND1       48.2240  -15.7680  -37.0580 N.ar  174  HIS174     -0.2268
     70  CD2       46.5390  -16.2190  -35.7440 C.ar  174  HIS174      0.1154
     71  CE1       47.4430  -14.7030  -37.0440 C.ar  174  HIS174      0.1986
     72  NE2       46.4140  -14.9510  -36.2550 N.ar  174  HIS174     -0.2212
     73  N         43.6610  -13.2690  -41.0790 N.3   177  VAL177     -0.1245
     74  CA        42.4560  -12.8490  -41.7720 C.3   177  VAL177      0.1561
     75  C         42.7120  -12.7360  -43.2800 C.2   177  VAL177      0.2260
     76  O         41.7840  -12.8070  -44.0890 O.2   177  VAL177     -0.2867
     77  CB        41.9430  -11.5090  -41.2080 C.3   177  VAL177      0.0252
     78  CG1       42.9480  -10.3940  -41.4560 C.3   177  VAL177      0.0019
     79  CG2       40.5870  -11.1520  -41.7980 C.3   177  VAL177      0.0019
     80  N         48.0200  -10.1860  -43.9900 N.3   181  GLU181     -0.1245
     81  CA        48.2960  -10.2030  -42.5590 C.3   181  GLU181      0.1567
     82  C         49.2920  -11.3020  -42.2040 C.2   181  GLU181      0.2260
     83  O         50.1720  -11.1050  -41.3710 O.2   181  GLU181     -0.2867
     84  CB        47.0060  -10.3890  -41.7650 C.3   181  GLU181      0.0388
     85  CG        47.2290  -10.5790  -40.2690 C.3   181  GLU181      0.1160
     86  CD        45.9440  -10.5040  -39.4710 C.2   181  GLU181      0.3649
     87  OE1       45.2620  -11.5410  -39.3210 O.co2 181  GLU181     -0.2457
     88  OE2       45.6180   -9.3990  -38.9930 O.co2 181  GLU181     -0.2457
     89  N         52.6830  -10.0450  -43.1240 N.3   184  LYS184     -0.1231
     90  CA        53.0950   -8.9980  -42.1920 C.3   184  LYS184      0.1693
     91  C         53.6310   -9.5810  -40.8780 C.2   184  LYS184      0.2591
     92  O         54.5050   -8.9910  -40.2330 O.2   184  LYS184     -0.2718
     93  CB        51.9240   -8.0430  -41.9150 C.3   184  LYS184      0.0285
     94  CG        52.2100   -6.9980  -40.8490 C.3   184  LYS184      0.0035
     95  CD        50.9540   -6.2490  -40.4460 C.3   184  LYS184      0.0206
     96  CE        51.2130   -5.3670  -39.2400 C.3   184  LYS184      0.1093
     97  NZ        52.3420   -4.4220  -39.4840 N.3   184  LYS184     -0.1314
     98  N         53.1160  -10.7470  -40.4940 N.am  185  LEU185     -0.1980
     99  CA        53.4990  -11.3680  -39.2260 C.3   185  LEU185      0.1596
    100  C         54.6470  -12.3720  -39.3830 C.2   185  LEU185      0.2287
    101  O         55.5280  -12.4400  -38.5250 O.2   185  LEU185     -0.2864
    102  CB        52.2900  -12.0520  -38.5760 C.3   185  LEU185      0.0297
    103  CG        51.0830  -11.1740  -38.2290 C.3   185  LEU185      0.0022
    104  CD1       49.9730  -11.9940  -37.5940 C.3   185  LEU185      0.0001
    105  CD2       51.4800  -10.0470  -37.3090 C.3   185  LEU185      0.0001
    106  N         33.7160  -12.1260  -37.4800 N.3   213  GLN213     -0.1245
    107  CA        34.3620  -11.5470  -36.3070 C.3   213  GLN213      0.1566
    108  C         33.8660  -12.2100  -35.0270 C.2   213  GLN213      0.2260
    109  O         32.6730  -12.1980  -34.7300 O.2   213  GLN213     -0.2867
    110  CB        34.1100  -10.0350  -36.2420 C.3   213  GLN213      0.0367
    111  CG        34.7280   -9.2290  -37.3800 C.3   213  GLN213      0.0905
    112  CD        34.8200   -7.7450  -37.0630 C.2   213  GLN213      0.2608
    113  OE1       34.6240   -7.3320  -35.9210 O.2   213  GLN213     -0.2717
    114  NE2       35.1160   -6.9370  -38.0760 N.am  213  GLN213     -0.0878
    115  N         35.5820   -9.5470  -31.8820 N.3   216  GLY216     -0.1210
    116  CA        36.0730   -8.4450  -32.6850 C.3   216  GLY216      0.1956
    117  C         37.1500   -8.8730  -33.6600 C.2   216  GLY216      0.2612
    118  O         37.6360   -8.0680  -34.4500 O.2   216  GLY216     -0.2717
    119  N         37.5000  -10.1540  -33.6240 N.am  217  LEU217     -0.1965
    120  CA        38.5910  -10.6700  -34.4430 C.3   217  LEU217      0.1728
    121  C         38.1310  -11.6910  -35.4940 C.2   217  LEU217      0.2617
    122  O         37.2660  -12.5330  -35.2310 O.2   217  LEU217     -0.2715
    123  CB        39.6510  -11.3000  -33.5360 C.3   217  LEU217      0.0311
    124  CG        40.2850  -10.3710  -32.4950 C.3   217  LEU217      0.0022
    125  CD1       41.2550  -11.1260  -31.6160 C.3   217  LEU217      0.0001
    126  CD2       40.9910   -9.2220  -33.1770 C.3   217  LEU217      0.0001
    127  N         38.7380  -11.6200  -36.6770 N.am  218  SER218     -0.1936
    128  CA        38.4030  -12.5110  -37.7830 C.3   218  SER218      0.2055
    129  C         39.4790  -13.5610  -38.0080 C.2   218  SER218      0.2643
    130  O         39.4160  -14.3300  -38.9700 O.2   218  SER218     -0.2714
    131  CB        38.1940  -11.7190  -39.0760 C.3   218  SER218      0.2130
    132  OG        37.0330  -10.9150  -39.0010 O.3   218  SER218     -0.2179
    133  N         40.4840  -13.5670  -37.1420 N.am  219  GLY219     -0.1954
    134  CA        41.5340  -14.5640  -37.2160 C.3   219  GLY219      0.1869
    135  C         41.1930  -15.7510  -36.3360 C.2   219  GLY219      0.2309
    136  O         40.3860  -15.6330  -35.4120 O.2   219  GLY219     -0.2863
@<TRIPOS>BOND
     1    76    75    2
     2    80    81    1
     3    75    74    1
     4    89    90    1
     5    81    82    1
     6    81    84    1
     7    82    83    2
     8    90    93    1
     9    90    91    1
    10    93    94    1
    11    79    77    1
    12    74    77    1
    13    74    73    1
    14    84    85    1
    15    78    77    1
    16    91    98   am
    17    91    92    2
    18    94    95    1
    19    98    99    1
    20    95    96    1
    21    85    86    1
    22    97    96    1
    23    86    87   ar
    24    86    88   ar
    25   100    99    1
    26   100   101    2
    27    99   102    1
    28   131   132    1
    29   131   128    1
    30   130   129    2
    31    66    65    2
    32   102   103    1
    33   103   104    1
    34   103   105    1
    35   114   112   am
    36   129   128    1
    37   129   133   am
    38    65    64    1
    39   128   127    1
    40   106   107    1
    41   111   112    1
    42   111   110    1
    43   134   133    1
    44   134   135    1
    45   112   113    2
    46    69    71   ar
    47    69    68   ar
    48    71    72   ar
    49   127   121   am
    50    64    63    1
    51    64    67    1
    52   135   136    2
    53   107   110    1
    54   107   108    1
    55    72    70   ar
    56    68    67    1
    57    68    70   ar
    58    57    58    2
    59    57    56    1
    60   121   122    2
    61   121   120    1
    62    56    59    1
    63    56    55    1
    64   108   109    2
    65    12    11    1
    66    59    60    1
    67   118   117    2
    68   120   119    1
    69   120   123    1
    70    62    60    1
    71    60    61    1
    72    52    50   ar
    73    52    54   ar
    74    49    50   ar
    75    49    47   ar
    76    11     9   ar
    77    11    10   ar
    78   117   119   am
    79   117   116    1
    80   123   124    1
    81     9     7   ar
    82    50    48   ar
    83   126   124    1
    84    54    53   ar
    85    47    46   ar
    86   116   115    1
    87    10     8   ar
    88   124   125    1
    89     7     6   ar
    90    48    46   ar
    91    48    51   ar
    92    53    51   ar
    93    46    45    1
    94     8     6   ar
    95     6     5    1
    96    43    44    2
    97    43    42    1
    98    42    45    1
    99    42    41    1
   100    20    19    2
   101    27    26    1
   102    14    13    1
   103    14    15    1
   104     3     4    2
   105     3     2    1
   106     5     2    1
   107    26    23    1
   108    26    28    1
   109     2     1    1
   110    17    15   am
   111    17    18    1
   112    15    16    2
   113    19    22   am
   114    19    18    1
   115    23    22    1
   116    23    24    1
   117    33    34    1
   118    33    30    1
   119    29    24   am
   120    29    30    1
   121    18    21    1
   122    24    25    2
   123    30    31    1
   124    31    32    2
   125    40    39    1
   126    39    36    1
   127    36    37    1
   128    36    35    1
   129    37    38    2
