@<TRIPOS>MOLECULE
tmp/4n64A01.pdb
 149 141 0 0 0
SMALL
GASTEIGER

@<TRIPOS>ATOM
      1  N        -22.9530  -80.1150  -10.7990 N.3    88  TYR88      -0.1241
      2  CA       -23.1050  -80.1900   -9.3490 C.3    88  TYR88       0.1605
      3  C        -21.9770  -79.3810   -8.7230 C.2    88  TYR88       0.2264
      4  O        -20.8050  -79.6400   -8.9990 O.2    88  TYR88      -0.2867
      5  CB       -23.0730  -81.6430   -8.8570 C.3    88  TYR88       0.0534
      6  CG       -23.5040  -81.8290   -7.4150 C.ar   88  TYR88      -0.0201
      7  CD1      -22.6410  -81.5310   -6.3670 C.ar   88  TYR88      -0.0009
      8  CD2      -24.7680  -82.3130   -7.1030 C.ar   88  TYR88      -0.0009
      9  CE1      -23.0260  -81.6990   -5.0540 C.ar   88  TYR88       0.0417
     10  CE2      -25.1640  -82.4850   -5.7890 C.ar   88  TYR88       0.0417
     11  CZ       -24.2870  -82.1760   -4.7690 C.ar   88  TYR88       0.1957
     12  OH       -24.6650  -82.3420   -3.4580 O.3    88  TYR88      -0.2866
     13  N        -26.7780  -92.4020   -9.4570 N.3   124  GLY124     -0.1210
     14  CA       -26.8610  -91.1290   -8.7710 C.3   124  GLY124      0.1956
     15  C        -26.9420  -89.9780   -9.7490 C.2   124  GLY124      0.2612
     16  O        -26.0800  -89.8170  -10.6120 O.2   124  GLY124     -0.2717
     17  N        -27.9850  -89.1710   -9.6040 N.am  125  ALA125     -0.1965
     18  CA       -28.2220  -88.0550  -10.5070 C.3   125  ALA125      0.1728
     19  C        -28.6730  -86.8270   -9.7320 C.2   125  ALA125      0.2617
     20  O        -29.0390  -86.9250   -8.5630 O.2   125  ALA125     -0.2715
     21  CB       -29.2580  -88.4350  -11.5490 C.3   125  ALA125      0.0334
     22  N        -28.6430  -85.6680  -10.3820 N.am  126  THR126     -0.1937
     23  CA       -29.0550  -84.4300   -9.7310 C.3   126  THR126      0.2028
     24  C        -29.7500  -83.4870  -10.7030 C.2   126  THR126      0.2642
     25  O        -29.6250  -83.6230  -11.9190 O.2   126  THR126     -0.2714
     26  CB       -27.8560  -83.6960   -9.0910 C.3   126  THR126      0.1808
     27  OG1      -28.3190  -82.5270   -8.4040 O.3   126  THR126     -0.2208
     28  CG2      -26.8500  -83.2850  -10.1510 C.3   126  THR126      0.0379
     29  N        -30.4740  -82.5220  -10.1480 N.am  127  SER127     -0.1949
     30  CA       -31.1920  -81.5320  -10.9420 C.3   127  SER127      0.1924
     31  C        -30.2290  -80.5280  -11.5720 C.2   127  SER127      0.2314
     32  O        -30.5660  -79.8540  -12.5440 O.2   127  SER127     -0.2863
     33  CB       -32.2280  -80.8110  -10.0750 C.3   127  SER127      0.2116
     34  OG       -32.7300  -79.6560  -10.7210 O.3   127  SER127     -0.2180
     35  N        -32.9780  -85.2770  -15.0470 N.3   134  SER134     -0.1217
     36  CA       -31.8970  -85.2000  -14.0710 C.3   134  SER134      0.1889
     37  C        -30.8190  -86.2080  -14.4420 C.2   134  SER134      0.2288
     38  O        -31.1250  -87.3240  -14.8600 O.2   134  SER134     -0.2866
     39  CB       -32.4140  -85.4620  -12.6530 C.3   134  SER134      0.2089
     40  OG       -33.3490  -84.4740  -12.2580 O.3   134  SER134     -0.2183
     41  N        -22.0200  -91.7550   -9.6490 N.3   142  TRP142     -0.1241
     42  CA       -22.4260  -91.4040   -8.2950 C.3   142  TRP142      0.1605
     43  C        -22.9580  -92.6510   -7.6000 C.2   142  TRP142      0.2264
     44  O        -24.0570  -93.1250   -7.8950 O.2   142  TRP142     -0.2867
     45  CB       -23.4750  -90.2910   -8.3130 C.3   142  TRP142      0.0550
     46  CG       -23.6850  -89.6420   -6.9770 C.ar  142  TRP142      0.0003
     47  CD1      -23.1910  -90.0600   -5.7750 C.ar  142  TRP142      0.0946
     48  CD2      -24.4490  -88.4600   -6.7080 C.ar  142  TRP142      0.0152
     49  NE1      -23.5990  -89.2100   -4.7750 N.ar  142  TRP142     -0.2442
     50  CE2      -24.3720  -88.2200   -5.3210 C.ar  142  TRP142      0.0810
     51  CE3      -25.1890  -87.5820   -7.5040 C.ar  142  TRP142      0.0012
     52  CZ2      -25.0090  -87.1390   -4.7150 C.ar  142  TRP142      0.0191
     53  CZ3      -25.8200  -86.5080   -6.8980 C.ar  142  TRP142      0.0001
     54  CH2      -25.7260  -86.2960   -5.5190 C.ar  142  TRP142      0.0015
     55  N        -24.3780  -94.9160   -4.5590 N.3   144  LEU144     -0.1245
     56  CA       -25.2040  -94.8280   -3.3600 C.3   144  LEU144      0.1561
     57  C        -25.2320  -96.1760   -2.6530 C.2   144  LEU144      0.2260
     58  O        -24.5340  -97.1030   -3.0530 O.2   144  LEU144     -0.2867
     59  CB       -26.6350  -94.4010   -3.7010 C.3   144  LEU144      0.0270
     60  CG       -26.9030  -93.1220   -4.4930 C.3   144  LEU144      0.0019
     61  CD1      -26.8350  -93.3820   -5.9890 C.3   144  LEU144      0.0001
     62  CD2      -28.2520  -92.5420   -4.1130 C.3   144  LEU144      0.0001
     63  N        -17.9190  -86.6250   -2.1830 N.3   174  HIS174     -0.1241
     64  CA       -19.1780  -85.9080   -2.0390 C.3   174  HIS174      0.1621
     65  C        -19.3960  -85.4400   -0.6100 C.2   174  HIS174      0.2264
     66  O        -19.3200  -86.2260    0.3320 O.2   174  HIS174     -0.2867
     67  CB       -20.3560  -86.7740   -2.4790 C.3   174  HIS174      0.0745
     68  CG       -21.6870  -86.1230   -2.2670 C.ar  174  HIS174      0.0817
     69  ND1      -22.6400  -86.6340   -1.4100 N.ar  174  HIS174     -0.2268
     70  CD2      -22.2200  -84.9930   -2.7910 C.ar  174  HIS174      0.1154
     71  CE1      -23.7030  -85.8510   -1.4230 C.ar  174  HIS174      0.1986
     72  NE2      -23.4740  -84.8480   -2.2520 N.ar  174  HIS174     -0.2212
     73  N        -25.2000  -82.1450    2.5930 N.3   177  VAL177     -0.1245
     74  CA       -25.6430  -80.9320    3.2700 C.3   177  VAL177      0.1561
     75  C        -25.7480  -81.1530    4.7810 C.2   177  VAL177      0.2260
     76  O        -25.6760  -80.2110    5.5710 O.2   177  VAL177     -0.2867
     77  CB       -27.0040  -80.4480    2.7030 C.3   177  VAL177      0.0252
     78  CG1      -28.1060  -81.4500    3.0000 C.3   177  VAL177      0.0019
     79  CG2      -27.3640  -79.0740    3.2430 C.3   177  VAL177      0.0019
     80  N        -28.1790  -86.4570    5.4910 N.3   181  GLU181     -0.1245
     81  CA       -28.1830  -86.7350    4.0610 C.3   181  GLU181      0.1567
     82  C        -27.0820  -87.7220    3.6860 C.2   181  GLU181      0.2260
     83  O        -27.2680  -88.5620    2.8090 O.2   181  GLU181     -0.2867
     84  CB       -28.0170  -85.4390    3.2610 C.3   181  GLU181      0.0388
     85  CG       -27.9580  -85.6480    1.7510 C.3   181  GLU181      0.1160
     86  CD       -28.0020  -84.3500    0.9730 C.2   181  GLU181      0.3649
     87  OE1      -26.9220  -83.7870    0.6970 O.co2 181  GLU181     -0.2457
     88  OE2      -29.1130  -83.8860    0.6470 O.co2 181  GLU181     -0.2457
     89  N        -28.3830  -91.1060    4.6880 N.3   184  LYS184     -0.1231
     90  CA       -29.4460  -91.5190    3.7750 C.3   184  LYS184      0.1693
     91  C        -28.8810  -92.0730    2.4650 C.2   184  LYS184      0.2591
     92  O        -29.4900  -92.9370    1.8320 O.2   184  LYS184     -0.2718
     93  CB       -30.3990  -90.3470    3.5000 C.3   184  LYS184      0.0285
     94  CG       -31.4450  -90.6240    2.4250 C.3   184  LYS184      0.0035
     95  CD       -32.2470  -89.3830    2.0700 C.3   184  LYS184      0.0206
     96  CE       -33.0910  -89.6180    0.8270 C.3   184  LYS184      0.1093
     97  NZ       -34.0030  -90.7880    0.9850 N.3   184  LYS184     -0.1314
     98  N        -27.7030  -91.5930    2.0750 N.am  185  LEU185     -0.1980
     99  CA       -27.0980  -91.9830    0.8030 C.3   185  LEU185      0.1596
    100  C        -26.1000  -93.1340    0.9360 C.2   185  LEU185      0.2287
    101  O        -26.0700  -94.0320    0.0940 O.2   185  LEU185     -0.2864
    102  CB       -26.3960  -90.7830    0.1590 C.3   185  LEU185      0.0297
    103  CG       -27.2370  -89.5650   -0.2280 C.3   185  LEU185      0.0022
    104  CD1      -26.4020  -88.5290   -0.9640 C.3   185  LEU185      0.0001
    105  CD2      -28.4240  -89.9790   -1.0640 C.3   185  LEU185      0.0001
    106  N        -23.8880  -77.6520    6.2230 N.3   210  ALA210     -0.1245
    107  CA       -24.6460  -76.6670    5.4630 C.3   210  ALA210      0.1562
    108  C        -23.7170  -75.6970    4.7470 C.2   210  ALA210      0.2260
    109  O        -22.7450  -75.2120    5.3240 O.2   210  ALA210     -0.2867
    110  CB       -25.5980  -75.9150    6.3730 C.3   210  ALA210      0.0290
    111  N        -26.3390  -72.2030   -1.1020 N.3   213  GLN213     -0.1245
    112  CA       -26.8930  -72.8780   -2.2650 C.3   213  GLN213      0.1566
    113  C        -26.2450  -72.3780   -3.5480 C.2   213  GLN213      0.2260
    114  O        -26.2950  -71.1890   -3.8630 O.2   213  GLN213     -0.2867
    115  CB       -28.4100  -72.6830   -2.3350 C.3   213  GLN213      0.0367
    116  CG       -29.1880  -73.4100   -1.2540 C.3   213  GLN213      0.0905
    117  CD       -30.6630  -73.5240   -1.5810 C.2   213  GLN213      0.2608
    118  OE1      -31.0850  -73.2350   -2.7000 O.2   213  GLN213     -0.2717
    119  NE2      -31.4540  -73.9490   -0.6050 N.am  213  GLN213     -0.0878
    120  N        -26.4490  -73.3780   -7.5970 N.3   215  ASN215     -0.1225
    121  CA       -27.3080  -74.1240   -8.5150 C.3   215  ASN215      0.1785
    122  C        -28.4550  -74.8040   -7.7660 C.2   215  ASN215      0.2598
    123  O        -28.9550  -75.8480   -8.1820 O.2   215  ASN215     -0.2718
    124  CB       -26.4940  -75.1530   -9.3060 C.3   215  ASN215      0.1169
    125  CG       -25.4100  -74.5110  -10.1520 C.2   215  ASN215      0.2627
    126  OD1      -25.5380  -73.3660  -10.5830 O.2   215  ASN215     -0.2716
    127  ND2      -24.3290  -75.2460  -10.3850 N.am  215  ASN215     -0.0877
    128  N        -28.8580  -74.1990   -6.6510 N.am  216  GLY216     -0.1942
    129  CA       -29.9350  -74.7230   -5.8310 C.3   216  GLY216      0.2014
    130  C        -29.4730  -75.7790   -4.8480 C.2   216  GLY216      0.2639
    131  O        -30.2660  -76.2950   -4.0590 O.2   216  GLY216     -0.2714
    132  N        -28.1850  -76.0990   -4.8910 N.am  217  LEU217     -0.1963
    133  CA       -27.6420  -77.1680   -4.0630 C.3   217  LEU217      0.1728
    134  C        -26.6650  -76.6620   -3.0040 C.2   217  LEU217      0.2617
    135  O        -25.8510  -75.7740   -3.2620 O.2   217  LEU217     -0.2715
    136  CB       -26.9570  -78.2060   -4.9520 C.3   217  LEU217      0.0311
    137  CG       -27.8630  -78.8240   -6.0180 C.3   217  LEU217      0.0022
    138  CD1      -27.0870  -79.7690   -6.9020 C.3   217  LEU217      0.0001
    139  CD2      -29.0290  -79.5420   -5.3770 C.3   217  LEU217      0.0001
    140  N        -26.7420  -77.2500   -1.8150 N.am  218  SER218     -0.1936
    141  CA       -25.8680  -76.8750   -0.7130 C.3   218  SER218      0.2055
    142  C        -24.7890  -77.9290   -0.5030 C.2   218  SER218      0.2643
    143  O        -23.9720  -77.8260    0.4120 O.2   218  SER218     -0.2714
    144  CB       -26.6750  -76.6860    0.5720 C.3   218  SER218      0.2130
    145  OG       -27.5660  -75.5920    0.4620 O.3   218  SER218     -0.2179
    146  N        -24.7890  -78.9410   -1.3610 N.am  219  GLY219     -0.1954
    147  CA       -23.7920  -79.9900   -1.2960 C.3   219  GLY219      0.1869
    148  C        -22.6280  -79.6740   -2.2100 C.2   219  GLY219      0.2309
    149  O        -22.7600  -78.8730   -3.1330 O.2   219  GLY219     -0.2863
@<TRIPOS>BOND
     1    35    36    1
     2    38    37    2
     3    37    36    1
     4    36    39    1
     5    39    40    1
     6    32    31    2
     7    25    24    2
     8    31    30    1
     9    21    18    1
    10    30    29    1
    11    30    33    1
    12     1     2    1
    13    34    33    1
    14    24    29   am
    15    24    23    1
    16    16    15    2
    17   126   125    2
    18    18    19    1
    19    18    17    1
    20   127   125   am
    21    22    19   am
    22    22    23    1
    23   125   124    1
    24    28    26    1
    25    15    17   am
    26    15    14    1
    27    19    20    2
    28    23    26    1
    29    41    42    1
    30    13    14    1
    31     2     5    1
    32     2     3    1
    33   124   121    1
    34    26    27    1
    35     4     3    2
    36     5     6    1
    37   121   122    1
    38   121   120    1
    39    45    42    1
    40    45    46    1
    41    42    43    1
    42   123   122    2
    43    44    43    2
    44   122   128   am
    45    51    53   ar
    46    51    48   ar
    47     6     8   ar
    48     6     7   ar
    49     8    10   ar
    50    46    48   ar
    51    46    47   ar
    52   138   137    1
    53    53    54   ar
    54    48    50   ar
    55   128   129    1
    56     7     9   ar
    57   137   139    1
    58   137   136    1
    59    61    60    1
    60   129   130    1
    61    10    11   ar
    62    47    49   ar
    63    54    52   ar
    64    50    49   ar
    65    50    52   ar
    66     9    11   ar
    67   136   133    1
    68   132   130   am
    69   132   133    1
    70   130   131    2
    71    11    12    1
    72    55    56    1
    73    60    62    1
    74    60    59    1
    75   133   134    1
    76   114   113    2
    77    59    56    1
    78   113   112    1
    79    56    57    1
    80   135   134    2
    81   149   148    2
    82    58    57    2
    83   134   140   am
    84    70    68   ar
    85    70    72   ar
    86   118   117    2
    87    67    68    1
    88    67    64    1
    89   115   112    1
    90   115   116    1
    91    68    69   ar
    92   112   111    1
    93    72    71   ar
    94   148   147    1
    95    63    64    1
    96    64    65    1
    97   140   141    1
    98   117   116    1
    99   117   119   am
   100    71    69   ar
   101   146   147    1
   102   146   142   am
   103   105   103    1
   104   104   103    1
   105   141   142    1
   106   141   144    1
   107    65    66    2
   108   142   143    2
   109   103   102    1
   110   101   100    2
   111   102    99    1
   112   145   144    1
   113    88    86   ar
   114    87    86   ar
   115    99   100    1
   116    99    98    1
   117    96    97    1
   118    96    95    1
   119    86    85    1
   120    85    84    1
   121    92    91    2
   122    95    94    1
   123    98    91   am
   124    94    93    1
   125    91    90    1
   126    73    74    1
   127    77    78    1
   128    77    79    1
   129    77    74    1
   130    83    82    2
   131    84    81    1
   132    74    75    1
   133    93    90    1
   134    82    81    1
   135    90    89    1
   136    81    80    1
   137   108   109    2
   138   108   107    1
   139    75    76    2
   140   107   106    1
   141   107   110    1
