@<TRIPOS>MOLECULE
tmp/4n66A00.pdb
 171 167 0 0 0
SMALL
GASTEIGER

@<TRIPOS>ATOM
      1  N         13.8380  -46.4690   -1.1380 N.3   111  ASN111     -0.1225
      2  CA        12.6360  -45.6840   -1.4090 C.3   111  ASN111      0.1785
      3  C         12.3620  -44.6790   -0.2980 C.2   111  ASN111      0.2597
      4  O         11.2820  -44.6550    0.2890 O.2   111  ASN111     -0.2718
      5  CB        11.4270  -46.6030   -1.5730 C.3   111  ASN111      0.1169
      6  CG        11.4440  -47.3600   -2.8740 C.2   111  ASN111      0.2627
      7  OD1       11.8220  -46.8210   -3.9090 O.2   111  ASN111     -0.2716
      8  ND2       11.0230  -48.6210   -2.8330 N.am  111  ASN111     -0.0877
      9  N         13.3500  -43.8490    0.0010 N.am  112  ASN112     -0.1960
     10  CA        13.1790  -42.8710    1.0570 C.3   112  ASN112      0.1819
     11  C         14.2950  -41.8510    1.0110 C.2   112  ASN112      0.2621
     12  O         15.2670  -41.9930    0.2550 O.2   112  ASN112     -0.2715
     13  CB        13.1780  -43.5630    2.4250 C.3   112  ASN112      0.1195
     14  CG        12.2250  -42.9160    3.4220 C.2   112  ASN112      0.2630
     15  OD1       11.8500  -41.7480    3.3030 O.2   112  ASN112     -0.2716
     16  ND2       11.8180  -43.6940    4.4140 N.am  112  ASN112     -0.0877
     17  N         14.1300  -40.8100    1.8180 N.am  113  ALA113     -0.1963
     18  CA        15.1580  -39.8040    2.0360 C.3   113  ALA113      0.1728
     19  C         14.9970  -39.3680    3.4760 C.2   113  ALA113      0.2616
     20  O         13.9210  -39.5030    4.0400 O.2   113  ALA113     -0.2715
     21  CB        14.9810  -38.6210    1.0750 C.3   113  ALA113      0.0334
     22  N         16.0600  -38.8670    4.0870 N.am  114  PHE114     -0.1960
     23  CA        15.9690  -38.4870    5.4950 C.3   114  PHE114      0.1771
     24  C         17.0660  -37.5280    5.9180 C.2   114  PHE114      0.2619
     25  O         18.0580  -37.3390    5.2090 O.2   114  PHE114     -0.2715
     26  CB        15.9450  -39.7210    6.4270 C.3   114  PHE114      0.0574
     27  CG        17.1480  -40.6400    6.2960 C.ar  114  PHE114     -0.0200
     28  CD1       17.2070  -41.6000    5.2940 C.ar  114  PHE114     -0.0042
     29  CD2       18.2010  -40.5640    7.2010 C.ar  114  PHE114     -0.0042
     30  CE1       18.3010  -42.4640    5.1880 C.ar  114  PHE114     -0.0003
     31  CE2       19.2980  -41.4130    7.1000 C.ar  114  PHE114     -0.0003
     32  CZ        19.3400  -42.3720    6.0920 C.ar  114  PHE114     -0.0000
     33  N         16.8520  -36.9020    7.0690 N.am  115  TRP115     -0.1974
     34  CA        17.8720  -36.1320    7.7570 C.3   115  TRP115      0.1640
     35  C         18.3360  -37.0270    8.8950 C.2   115  TRP115      0.2290
     36  O         17.5260  -37.4910    9.6900 O.2   115  TRP115     -0.2864
     37  CB        17.2620  -34.8330    8.2890 C.3   115  TRP115      0.0576
     38  CG        18.1500  -34.0800    9.2130 C.ar  115  TRP115      0.0006
     39  CD1       18.1070  -34.0910   10.5790 C.ar  115  TRP115      0.0946
     40  CD2       19.2190  -33.1920    8.8510 C.ar  115  TRP115      0.0152
     41  NE1       19.0870  -33.2630   11.0860 N.ar  115  TRP115     -0.2442
     42  CE2       19.7850  -32.7070   10.0460 C.ar  115  TRP115      0.0810
     43  CE3       19.7440  -32.7570    7.6290 C.ar  115  TRP115      0.0012
     44  CZ2       20.8610  -31.8120   10.0560 C.ar  115  TRP115      0.0191
     45  CZ3       20.8000  -31.8670    7.6380 C.ar  115  TRP115      0.0001
     46  CH2       21.3490  -31.4080    8.8440 C.ar  115  TRP115      0.0015
     47  N          9.8070  -45.1180   -6.4850 N.3   130  PHE130     -0.1241
     48  CA        10.4760  -43.8240   -6.6080 C.3   130  PHE130      0.1605
     49  C         11.5610  -43.8740   -7.6630 C.2   130  PHE130      0.2264
     50  O         12.1570  -44.9290   -7.8970 O.2   130  PHE130     -0.2867
     51  CB        11.1840  -43.4420   -5.3050 C.3   130  PHE130      0.0534
     52  CG        10.2800  -42.9120   -4.2330 C.ar  130  PHE130     -0.0203
     53  CD1        9.7950  -41.6140   -4.2920 C.ar  130  PHE130     -0.0042
     54  CD2        9.9650  -43.6900   -3.1300 C.ar  130  PHE130     -0.0042
     55  CE1        8.9750  -41.1190   -3.2860 C.ar  130  PHE130     -0.0003
     56  CE2        9.1480  -43.1990   -2.1210 C.ar  130  PHE130     -0.0003
     57  CZ         8.6610  -41.9140   -2.1940 C.ar  130  PHE130     -0.0000
     58  N         15.3230  -39.5400   -5.2170 N.3   133  LEU133     -0.1245
     59  CA        14.3680  -38.6930   -4.5020 C.3   133  LEU133      0.1561
     60  C         14.7470  -37.2190   -4.4740 C.2   133  LEU133      0.2260
     61  O         13.8830  -36.3630   -4.2790 O.2   133  LEU133     -0.2867
     62  CB        14.1010  -39.2140   -3.0840 C.3   133  LEU133      0.0270
     63  CG        13.1720  -40.4330   -3.0240 C.3   133  LEU133      0.0019
     64  CD1       13.9020  -41.7460   -3.3210 C.3   133  LEU133      0.0001
     65  CD2       12.4750  -40.4920   -1.6810 C.3   133  LEU133      0.0001
     66  N         10.7810  -32.5020   -1.8640 N.3   139  VAL139     -0.1245
     67  CA        11.4410  -33.5290   -1.0680 C.3   139  VAL139      0.1561
     68  C         12.7130  -32.9690   -0.4340 C.2   139  VAL139      0.2260
     69  O         12.9380  -33.1210    0.7690 O.2   139  VAL139     -0.2867
     70  CB        11.7910  -34.7740   -1.9160 C.3   139  VAL139      0.0252
     71  CG1       12.5980  -35.7660   -1.0920 C.3   139  VAL139      0.0019
     72  CG2       10.5130  -35.4160   -2.4560 C.3   139  VAL139      0.0019
     73  N         11.7520  -30.5660    2.1560 N.3   142  HIS142     -0.1226
     74  CA        11.2040  -31.3440    3.2680 C.3   142  HIS142      0.1752
     75  C         12.3460  -31.8340    4.1640 C.2   142  HIS142      0.2595
     76  O         12.3030  -31.6920    5.3940 O.2   142  HIS142     -0.2718
     77  CB        10.3860  -32.5260    2.7170 C.3   142  HIS142      0.0759
     78  CG         9.8290  -33.4490    3.7620 C.ar  142  HIS142      0.0818
     79  ND1        8.4780  -33.5470    4.0280 N.ar  142  HIS142     -0.2268
     80  CD2       10.4400  -34.3380    4.5830 C.ar  142  HIS142      0.1154
     81  CE1        8.2830  -34.4500    4.9730 C.ar  142  HIS142      0.1986
     82  NE2        9.4560  -34.9510    5.3220 N.ar  142  HIS142     -0.2212
     83  N         13.3860  -32.3930    3.5550 N.am  143  GLU143     -0.1979
     84  CA        14.4870  -32.9220    4.3490 C.3   143  GLU143      0.1602
     85  C         15.2540  -31.8200    5.0740 C.2   143  GLU143      0.2287
     86  O         15.5570  -31.9590    6.2640 O.2   143  GLU143     -0.2864
     87  CB        15.4410  -33.7660    3.4970 C.3   143  GLU143      0.0415
     88  CG        14.7910  -34.8950    2.6880 C.3   143  GLU143      0.1163
     89  CD        13.8710  -35.7850    3.5050 C.2   143  GLU143      0.3649
     90  OE1       14.0740  -35.9300    4.7230 O.co2 143  GLU143     -0.2457
     91  OE2       12.9260  -36.3410    2.9190 O.co2 143  GLU143     -0.2457
     92  N         13.5630  -30.6040    8.1470 N.3   146  HIS146     -0.1241
     93  CA        13.7400  -31.4020    9.3580 C.3   146  HIS146      0.1621
     94  C         14.9080  -30.8580   10.1880 C.2   146  HIS146      0.2264
     95  O         14.8310  -30.7960   11.4110 O.2   146  HIS146     -0.2867
     96  CB        13.9770  -32.8800    9.0300 C.3   146  HIS146      0.0745
     97  CG        12.7220  -33.6550    8.7640 C.ar  146  HIS146      0.0817
     98  ND1       11.6600  -33.6780    9.6480 N.ar  146  HIS146     -0.2268
     99  CD2       12.3670  -34.4570    7.7310 C.ar  146  HIS146      0.1154
    100  CE1       10.7040  -34.4530    9.1650 C.ar  146  HIS146      0.1986
    101  NE2       11.1100  -34.9440    8.0060 N.ar  146  HIS146     -0.2212
    102  N         10.0020  -36.8730   17.3340 N.3   157  TYR157     -0.1241
    103  CA         9.5030  -37.5430   16.1280 C.3   157  TYR157      0.1605
    104  C          8.5900  -38.7250   16.4410 C.2   157  TYR157      0.2264
    105  O          8.8470  -39.8560   16.0410 O.2   157  TYR157     -0.2867
    106  CB        10.6670  -37.9920   15.2550 C.3   157  TYR157      0.0534
    107  CG        10.3320  -38.1510   13.7910 C.ar  157  TYR157     -0.0201
    108  CD1        9.8720  -37.0750   13.0370 C.ar  157  TYR157     -0.0009
    109  CD2       10.5140  -39.3750   13.1500 C.ar  157  TYR157     -0.0009
    110  CE1        9.6040  -37.2130   11.6860 C.ar  157  TYR157      0.0417
    111  CE2       10.2460  -39.5260   11.7980 C.ar  157  TYR157      0.0417
    112  CZ         9.7870  -38.4430   11.0740 C.ar  157  TYR157      0.1957
    113  OH         9.5320  -38.5920    9.7320 O.3   157  TYR157     -0.2866
    114  N          6.4600  -33.5500   10.8200 N.3   166  GLU166     -0.1245
    115  CA         6.2310  -33.9380    9.4290 C.3   166  GLU166      0.1567
    116  C          5.5020  -32.8640    8.6270 C.2   166  GLU166      0.2260
    117  O          5.9040  -32.5330    7.5130 O.2   166  GLU166     -0.2867
    118  CB         5.4660  -35.2600    9.3620 C.3   166  GLU166      0.0388
    119  CG         6.3910  -36.4500    9.3440 C.3   166  GLU166      0.1160
    120  CD         7.3570  -36.3630    8.1870 C.2   166  GLU166      0.3649
    121  OE1        6.8840  -36.2080    7.0450 O.co2 166  GLU166     -0.2457
    122  OE2        8.5810  -36.4280    8.4140 O.co2 166  GLU166     -0.2457
    123  N          2.8550  -33.7110   -2.4040 N.3   188  ILE188     -0.1231
    124  CA         4.2150  -33.9900   -1.9550 C.3   188  ILE188      0.1692
    125  C          4.8480  -35.1140   -2.7630 C.2   188  ILE188      0.2592
    126  O          4.3080  -36.2190   -2.8320 O.2   188  ILE188     -0.2718
    127  CB         4.2590  -34.3910   -0.4680 C.3   188  ILE188      0.0266
    128  CG1        3.6130  -33.3140    0.4110 C.3   188  ILE188      0.0019
    129  CG2        5.6940  -34.6930   -0.0260 C.3   188  ILE188      0.0020
    130  CD1        4.2980  -31.9600    0.3680 C.3   188  ILE188      0.0001
    131  N          5.9890  -34.8210   -3.3780 N.am  189  GLY189     -0.1957
    132  CA         6.8190  -35.8460   -3.9960 C.3   189  GLY189      0.1869
    133  C          6.3920  -36.2900   -5.3820 C.2   189  GLY189      0.2309
    134  O          6.9300  -37.2610   -5.9220 O.2   189  GLY189     -0.2863
    135  N          2.7900  -38.7180   -3.2000 N.3   202  LEU202     -0.1231
    136  CA         2.9570  -39.4460   -1.9630 C.3   202  LEU202      0.1693
    137  C          1.9290  -39.0120   -0.9240 C.2   202  LEU202      0.2591
    138  O          1.3440  -39.8430   -0.2300 O.2   202  LEU202     -0.2718
    139  CB         4.3500  -39.1590   -1.4590 C.3   202  LEU202      0.0284
    140  CG         4.8670  -39.9470   -0.2930 C.3   202  LEU202      0.0019
    141  CD1        4.9400  -41.4210   -0.6800 C.3   202  LEU202      0.0001
    142  CD2        6.2230  -39.3500   -0.0320 C.3   202  LEU202      0.0001
    143  N          1.7360  -37.7020   -0.8200 N.am  203  ARG203     -0.1980
    144  CA         0.7340  -37.1130    0.0530 C.3   203  ARG203      0.1597
    145  C          0.1250  -35.9370   -0.6650 C.2   203  ARG203      0.2287
    146  O          0.7360  -35.3640   -1.5680 O.2   203  ARG203     -0.2864
    147  CB         1.3510  -36.6000    1.3590 C.3   203  ARG203      0.0334
    148  CG         1.8260  -37.6850    2.2840 C.3   203  ARG203      0.0492
    149  CD         2.3820  -37.0920    3.5570 C.3   203  ARG203      0.2205
    150  NE         3.6820  -36.4500    3.3980 N.pl3 203  ARG203     -0.0865
    151  CZ         4.8410  -37.0970    3.4210 C.cat 203  ARG203      0.5346
    152  NH1        4.8670  -38.4240    3.5180 N.pl3 203  ARG203      0.1354
    153  NH2        5.9760  -36.4140    3.3350 N.pl3 203  ARG203      0.1354
    154  N          4.7140  -46.3130   12.1660 N.3   226  ASP226     -0.1239
    155  CA         5.1890  -45.0350   11.6520 C.3   226  ASP226      0.1674
    156  C          5.3930  -44.0220   12.7860 C.2   226  ASP226      0.2266
    157  O          4.9980  -42.8600   12.6860 O.2   226  ASP226     -0.2867
    158  CB         4.2050  -44.5300   10.5800 C.3   226  ASP226      0.1410
    159  CG         4.6320  -43.2230    9.9330 C.2   226  ASP226      0.3668
    160  OD1        5.8390  -43.0200    9.6800 O.co2 226  ASP226     -0.2456
    161  OD2        3.7400  -42.3970    9.6730 O.co2 226  ASP226     -0.2456
    162  N          3.7030  -39.6480    9.5280 N.3   231  HIS231     -0.1241
    163  CA         3.4750  -39.3490    8.1080 C.3   231  HIS231      0.1621
    164  C          2.0090  -39.4810    7.7170 C.2   231  HIS231      0.2264
    165  O          1.6510  -39.2750    6.5550 O.2   231  HIS231     -0.2867
    166  CB         4.2980  -40.2730    7.1940 C.3   231  HIS231      0.0745
    167  CG         5.7780  -40.1230    7.3510 C.ar  231  HIS231      0.0817
    168  ND1        6.5340  -40.9590    8.1460 N.ar  231  HIS231     -0.2268
    169  CD2        6.6470  -39.2440    6.7970 C.ar  231  HIS231      0.1154
    170  CE1        7.8030  -40.5860    8.0920 C.ar  231  HIS231      0.1986
    171  NE2        7.8970  -39.5460    7.2800 N.ar  231  HIS231     -0.2212
@<TRIPOS>BOND
     1    50    49    2
     2    49    48    1
     3    48    47    1
     4    48    51    1
     5   134   133    2
     6   133   132    1
     7    51    52    1
     8    58    59    1
     9    59    60    1
    10    59    62    1
    11    60    61    2
    12    53    52   ar
    13    53    55   ar
    14    52    54   ar
    15   132   131    1
    16     7     6    2
    17   131   125   am
    18    64    63    1
    19    55    57   ar
    20   135   136    1
    21    54    56   ar
    22    62    63    1
    23    63    65    1
    24     6     8   am
    25     6     5    1
    26   126   125    2
    27   125   124    1
    28    72    70    1
    29   123   124    1
    30    57    56   ar
    31   136   139    1
    32   136   137    1
    33   124   127    1
    34    70    71    1
    35    70    67    1
    36    66    67    1
    37     5     2    1
    38   146   145    2
    39   139   140    1
    40     2     1    1
    41     2     3    1
    42    67    68    1
    43   137   143   am
    44   137   138    2
    45   143   144    1
    46   141   140    1
    47   145   144    1
    48   127   129    1
    49   127   128    1
    50    68    69    2
    51     3     9   am
    52     3     4    2
    53   140   142    1
    54     9    10    1
    55   144   147    1
    56    12    11    2
    57   130   128    1
    58    11    10    1
    59    11    17   am
    60    10    13    1
    61    21    18    1
    62   147   148    1
    63    17    18    1
    64    18    19    1
    65    73    74    1
    66   148   149    1
    67    13    14    1
    68    88    87    1
    69    88    89    1
    70    77    74    1
    71    77    78    1
    72    91    89   ar
    73    74    75    1
    74    15    14    2
    75   153   151    1
    76   150   151    2
    77   150   149    1
    78   151   152    1
    79    14    16   am
    80    19    20    2
    81    19    22   am
    82    87    84    1
    83    89    90   ar
    84    83    75   am
    85    83    84    1
    86    78    79   ar
    87    78    80   ar
    88    79    81   ar
    89    22    23    1
    90    75    76    2
    91    84    85    1
    92    80    82   ar
    93    81    82   ar
    94    85    86    2
    95    30    28   ar
    96    30    32   ar
    97    25    24    2
    98    28    27   ar
    99    23    24    1
   100    23    26    1
   101    24    33   am
   102    32    31   ar
   103    27    26    1
   104    27    29   ar
   105   165   164    2
   106   169   171   ar
   107   169   167   ar
   108   121   120   ar
   109    33    34    1
   110    31    29   ar
   111   166   167    1
   112   166   163    1
   113   171   170   ar
   114   167   168   ar
   115   117   116    2
   116    43    45   ar
   117    43    40   ar
   118    45    46   ar
   119   164   163    1
   120    99   101   ar
   121    99    97   ar
   122    34    37    1
   123    34    35    1
   124   101   100   ar
   125   170   168   ar
   126   163   162    1
   127    92    93    1
   128   120   122   ar
   129   120   119    1
   130    37    38    1
   131   116   115    1
   132    97    96    1
   133    97    98   ar
   134    46    44   ar
   135    40    38   ar
   136    40    42   ar
   137    35    36    2
   138    96    93    1
   139   100    98   ar
   140    38    39   ar
   141   119   118    1
   142    93    94    1
   143   118   115    1
   144   115   114    1
   145   161   159   ar
   146   160   159   ar
   147   113   112    1
   148   159   158    1
   149    42    44   ar
   150    42    41   ar
   151    94    95    2
   152    39    41   ar
   153   158   155    1
   154   112   110   ar
   155   112   111   ar
   156   155   154    1
   157   155   156    1
   158   110   108   ar
   159   111   109   ar
   160   157   156    2
   161   108   107   ar
   162   109   107   ar
   163   107   106    1
   164   106   103    1
   165   105   104    2
   166   103   104    1
   167   103   102    1
