@<TRIPOS>MOLECULE
tmp/4n67A00.pdb
 189 181 0 0 0
SMALL
GASTEIGER

@<TRIPOS>ATOM
      1  N          8.6410   67.2010   18.3620 N.3    91  MET91      -0.1245
      2  CA        10.0880   67.4690   18.4580 C.3    91  MET91       0.1570
      3  C         10.4250   67.8330   19.9000 C.2    91  MET91       0.2261
      4  O          9.6700   68.5280   20.5570 O.2    91  MET91      -0.2867
      5  CB        10.5430   68.6120   17.5270 C.3    91  MET91       0.0387
      6  CG        10.3730   68.3370   16.0360 C.3    91  MET91       0.0595
      7  SD        11.2840   69.5000   14.9830 S.3    91  MET91      -0.1393
      8  CE        12.8970   68.7560   14.9820 C.3    91  MET91       0.0692
      9  N         14.0080   68.9930   22.2840 N.2    93  PRO93      -0.2584
     10  CA        15.4520   69.2490   22.1620 C.3    93  PRO93       0.1895
     11  C         16.2530   68.1480   22.8330 C.2    93  PRO93       0.2359
     12  O         15.8630   67.6480   23.8850 O.2    93  PRO93      -0.2858
     13  CB        15.6670   70.5940   22.8670 C.2    93  PRO93       0.0071
     14  CG        14.3530   71.0560   23.3770 C.2    93  PRO93       0.0180
     15  CD        13.2820   70.0970   22.9370 C.2    93  PRO93       0.0937
     16  N         17.0080   67.0830   26.8010 N.3    96  TYR96      -0.1241
     17  CA        16.0520   67.7570   27.6260 C.3    96  TYR96       0.1605
     18  C         14.7210   67.0490   27.7030 C.2    96  TYR96       0.2264
     19  O         14.3450   66.3330   26.7800 O.2    96  TYR96      -0.2867
     20  CB        15.8760   69.1930   27.1000 C.3    96  TYR96       0.0534
     21  CG        16.9940   70.1000   27.5670 C.ar   96  TYR96      -0.0201
     22  CD1       17.0640   70.5020   28.8850 C.ar   96  TYR96      -0.0009
     23  CD2       17.9880   70.4930   26.6990 C.ar   96  TYR96      -0.0009
     24  CE1       18.0820   71.3170   29.3270 C.ar   96  TYR96       0.0417
     25  CE2       19.0240   71.3180   27.1380 C.ar   96  TYR96       0.0417
     26  CZ        19.0480   71.7260   28.4180 C.ar   96  TYR96       0.1957
     27  OH        20.0610   72.5470   28.8690 O.3    96  TYR96      -0.2866
     28  N          8.8740   70.6500   22.4750 N.3   100  PHE100     -0.1241
     29  CA         8.1680   71.7280   21.7730 C.3   100  PHE100      0.1605
     30  C          6.6990   71.3490   21.5950 C.2   100  PHE100      0.2264
     31  O          6.2780   70.2270   21.9020 O.2   100  PHE100     -0.2867
     32  CB         8.8280   71.9650   20.4050 C.3   100  PHE100      0.0534
     33  CG        10.2690   72.4220   20.4930 C.ar  100  PHE100     -0.0203
     34  CD1       10.5890   73.6310   21.0840 C.ar  100  PHE100     -0.0042
     35  CD2       11.2920   71.6550   19.9680 C.ar  100  PHE100     -0.0042
     36  CE1       11.8980   74.0650   21.1680 C.ar  100  PHE100     -0.0003
     37  CE2       12.6020   72.0970   20.0370 C.ar  100  PHE100     -0.0003
     38  CZ        12.9060   73.2970   20.6320 C.ar  100  PHE100     -0.0000
     39  N          8.8690   85.9850   22.3260 N.3   139  PHE139     -0.1241
     40  CA         9.9430   85.0830   21.8850 C.3   139  PHE139      0.1605
     41  C          9.8250   83.7170   22.5500 C.2   139  PHE139      0.2264
     42  O         10.0170   82.6850   21.8970 O.2   139  PHE139     -0.2867
     43  CB        11.3350   85.6680   22.1590 C.3   139  PHE139      0.0534
     44  CG        12.3910   85.0300   21.3290 C.ar  139  PHE139     -0.0203
     45  CD1       12.5260   85.4100   20.0000 C.ar  139  PHE139     -0.0042
     46  CD2       13.1480   83.9760   21.8010 C.ar  139  PHE139     -0.0042
     47  CE1       13.4230   84.8020   19.1720 C.ar  139  PHE139     -0.0003
     48  CE2       14.0900   83.3650   20.9680 C.ar  139  PHE139     -0.0003
     49  CZ        14.2130   83.7900   19.6480 C.ar  139  PHE139     -0.0000
     50  N          9.4070   80.2150   20.7320 N.3   143  ASP143     -0.1239
     51  CA        10.3660   79.1300   21.0060 C.3   143  ASP143      0.1674
     52  C          9.6270   77.8360   21.2490 C.2   143  ASP143      0.2266
     53  O         10.0180   76.8020   20.7050 O.2   143  ASP143     -0.2867
     54  CB        11.2320   79.4000   22.2570 C.3   143  ASP143      0.1410
     55  CG        12.5910   79.9820   21.9570 C.2   143  ASP143      0.3668
     56  OD1       13.0700   79.9050   20.8210 O.co2 143  ASP143     -0.2456
     57  OD2       13.2490   80.4130   22.9440 O.co2 143  ASP143     -0.2456
     58  N          7.8750   76.3890   18.0120 N.3   146  HIS146     -0.1241
     59  CA         8.8920   75.7660   17.1760 C.3   146  HIS146      0.1621
     60  C          8.2910   75.2280   15.8800 C.2   146  HIS146      0.2264
     61  O          8.3240   74.0230   15.6300 O.2   146  HIS146     -0.2867
     62  CB         9.5790   74.6460   17.9650 C.3   146  HIS146      0.0745
     63  CG        10.8440   74.1400   17.3590 C.ar  146  HIS146      0.0817
     64  ND1       12.0540   74.7560   17.5740 N.ar  146  HIS146     -0.2268
     65  CD2       11.1130   73.0300   16.6330 C.ar  146  HIS146      0.1154
     66  CE1       13.0130   74.0650   16.9800 C.ar  146  HIS146      0.1986
     67  NE2       12.4690   73.0130   16.4010 N.ar  146  HIS146     -0.2212
     68  N         10.4610   72.4370   10.7900 N.3   149  ARG149     -0.1231
     69  CA        11.3790   71.3100   10.9890 C.3   149  ARG149      0.1694
     70  C         12.8010   71.7860   11.3490 C.2   149  ARG149      0.2592
     71  O         13.4980   71.1260   12.1370 O.2   149  ARG149     -0.2718
     72  CB        11.3730   70.4230    9.7530 C.3   149  ARG149      0.0321
     73  CG        12.4250   69.3340    9.7480 C.3   149  ARG149      0.0489
     74  CD        12.2280   68.3100   10.8700 C.3   149  ARG149      0.2205
     75  NE        13.2920   67.3000   10.8240 N.pl3 149  ARG149     -0.0865
     76  CZ        14.5510   67.4880   11.2250 C.cat 149  ARG149      0.5346
     77  NH1       14.9600   68.6470   11.6980 N.pl3 149  ARG149      0.1354
     78  NH2       15.4370   66.4960   11.0740 N.pl3 149  ARG149      0.1354
     79  N         13.2140   72.9040   10.7630 N.am  150  LYS150     -0.1966
     80  CA        14.4900   73.5350   11.0340 C.3   150  LYS150      0.1728
     81  C         14.3900   75.0020   10.6480 C.2   150  LYS150      0.2617
     82  O         13.4920   75.3670    9.8680 O.2   150  LYS150     -0.2715
     83  CB        15.6060   72.8660   10.2150 C.3   150  LYS150      0.0311
     84  CG        17.0060   73.2240   10.6530 C.3   150  LYS150      0.0038
     85  CD        18.0380   72.4790    9.8260 C.3   150  LYS150      0.0206
     86  CE        19.4340   73.0230   10.1250 C.3   150  LYS150      0.1093
     87  NZ        20.1660   73.3940    8.8680 N.3   150  LYS150     -0.1314
     88  N         15.2870   75.8250   11.2000 N.am  151  GLY151     -0.1940
     89  CA        15.3220   77.2490   10.8650 C.3   151  GLY151      0.2014
     90  C         14.4400   78.0860   11.7630 C.2   151  GLY151      0.2639
     91  O         14.1520   79.2410   11.4520 O.2   151  GLY151     -0.2714
     92  N         14.0360   77.5480   12.9010 N.am  152  ASN152     -0.1958
     93  CA        13.1600   78.3010   13.7960 C.3   152  ASN152      0.1819
     94  C         13.8300   79.5580   14.3830 C.2   152  ASN152      0.2622
     95  O         13.2310   80.6230   14.4030 O.2   152  ASN152     -0.2715
     96  CB        12.6350   77.4410   14.9080 C.3   152  ASN152      0.1195
     97  CG        11.7210   76.3550   14.3900 C.2   152  ASN152      0.2630
     98  OD1       10.5610   76.6350   14.0960 O.2   152  ASN152     -0.2716
     99  ND2       12.2640   75.1640   14.1740 N.am  152  ASN152     -0.0877
    100  N         15.0760   79.4220   14.8210 N.am  153  GLY153     -0.1940
    101  CA        15.7400   80.5360   15.4700 C.3   153  GLY153      0.2014
    102  C         15.8710   81.7560   14.5590 C.2   153  GLY153      0.2638
    103  O         15.5460   82.8810   14.9340 O.2   153  GLY153     -0.2714
    104  N         16.3790   81.5350   13.3470 N.am  154  ARG154     -0.1977
    105  CA        16.6480   82.6170   12.4080 C.3   154  ARG154      0.1597
    106  C         15.3540   83.2820   11.9720 C.2   154  ARG154      0.2287
    107  O         15.2170   84.5010   11.9520 O.2   154  ARG154     -0.2864
    108  CB        17.4510   82.1180   11.1830 C.3   154  ARG154      0.0334
    109  CG        18.9420   81.9050   11.4510 C.3   154  ARG154      0.0492
    110  CD        19.8020   81.5130   10.2380 C.3   154  ARG154      0.2205
    111  NE        21.0560   80.8970   10.7010 N.pl3 154  ARG154     -0.0865
    112  CZ        22.3280   81.2080   10.3940 C.cat 154  ARG154      0.5346
    113  NH1       22.7310   82.1740    9.5420 N.pl3 154  ARG154      0.1354
    114  NH2       23.2630   80.4870   10.9820 N.pl3 154  ARG154      0.1354
    115  N         12.3850   83.2800   13.8820 N.3   156  GLN156     -0.1231
    116  CA        11.8480   83.9480   15.0970 C.3   156  GLN156      0.1698
    117  C         12.5760   85.2450   15.3660 C.2   156  GLN156      0.2592
    118  O         11.9530   86.2680   15.7130 O.2   156  GLN156     -0.2718
    119  CB        11.9860   83.0650   16.3270 C.3   156  GLN156      0.0381
    120  CG        11.1600   81.8120   16.2830 C.3   156  GLN156      0.0905
    121  CD        11.5290   80.7810   17.3240 C.2   156  GLN156      0.2608
    122  OE1       11.2350   79.5920   17.1540 O.2   156  GLN156     -0.2717
    123  NE2       12.1810   81.2060   18.3800 N.am  156  GLN156     -0.0878
    124  N         13.9040   85.2370   15.2310 N.am  157  ARG157     -0.1980
    125  CA        14.6890   86.4610   15.4390 C.3   157  ARG157      0.1597
    126  C         14.3010   87.5400   14.4360 C.2   157  ARG157      0.2287
    127  O         14.1420   88.7010   14.7990 O.2   157  ARG157     -0.2864
    128  CB        16.2070   86.1960   15.4070 C.3   157  ARG157      0.0334
    129  CG        16.6650   85.3980   16.5920 C.3   157  ARG157      0.0492
    130  CD        18.1630   85.2570   16.7020 C.3   157  ARG157      0.2205
    131  NE        18.8020   84.4890   15.6450 N.pl3 157  ARG157     -0.0865
    132  CZ        18.9730   83.1710   15.6360 C.cat 157  ARG157      0.5346
    133  NH1       19.6440   82.6170   14.6350 N.pl3 157  ARG157      0.1354
    134  NH2       18.5150   82.3900   16.6070 N.pl3 157  ARG157      0.1354
    135  N         25.3540   83.2760   20.3540 N.3   178  LYS178     -0.1245
    136  CA        24.4240   82.1520   20.2550 C.3   178  LYS178      0.1561
    137  C         24.2430   81.4740   21.6090 C.2   178  LYS178      0.2260
    138  O         23.1390   81.0900   21.9800 O.2   178  LYS178     -0.2867
    139  CB        24.9560   81.1230   19.2510 C.3   178  LYS178      0.0271
    140  CG        23.9570   80.0560   18.9360 C.3   178  LYS178      0.0035
    141  CD        22.7800   80.5150   18.1020 C.3   178  LYS178      0.0206
    142  CE        21.9480   79.3070   17.6800 C.3   178  LYS178      0.1093
    143  NZ        20.5500   79.6370   17.3150 N.3   178  LYS178     -0.1314
    144  N         21.8190   83.2830   23.7890 N.3   181  MET181     -0.1230
    145  CA        20.4590   83.0530   23.2780 C.3   181  MET181      0.1702
    146  C         19.9650   81.6580   23.6700 C.2   181  MET181      0.2593
    147  O         18.8650   81.4950   24.1850 O.2   181  MET181     -0.2718
    148  CB        20.4400   83.2190   21.7540 C.3   181  MET181      0.0401
    149  CG        19.1080   82.9980   21.0470 C.3   181  MET181      0.0596
    150  SD        17.9780   84.3810   21.2320 S.3   181  MET181     -0.1393
    151  CE        17.0940   83.8260   22.6670 C.3   181  MET181      0.0692
    152  N         20.7900   80.6450   23.4250 N.am  182  THR182     -0.1953
    153  CA        20.4600   79.2810   23.8300 C.3   182  THR182      0.1897
    154  C         20.1790   79.1510   25.3170 C.2   182  THR182      0.2313
    155  O         19.1690   78.5630   25.7160 O.2   182  THR182     -0.2863
    156  CB        21.5940   78.3280   23.3940 C.3   182  THR182      0.1794
    157  OG1       21.8060   78.4970   21.9960 O.3   182  THR182     -0.2208
    158  CG2       21.2490   76.8890   23.6670 C.3   182  THR182      0.0378
    159  N         16.8490   80.6820   26.1870 N.3   185  SER185     -0.1202
    160  CA        15.7800   79.8060   25.6600 C.3   185  SER185      0.2020
    161  C         15.5570   78.5610   26.5380 C.2   185  SER185      0.2618
    162  O         14.4350   78.2290   26.9050 O.2   185  SER185     -0.2717
    163  CB        16.1150   79.3770   24.2420 C.3   185  SER185      0.2103
    164  OG        15.9610   80.4520   23.3000 O.3   185  SER185     -0.2182
    165  N         16.6560   77.9370   26.9300 N.am  186  ILE186     -0.1979
    166  CA        16.6140   76.7960   27.8340 C.3   186  ILE186      0.1595
    167  C         16.0210   77.1650   29.1860 C.2   186  ILE186      0.2287
    168  O         15.1360   76.4770   29.7040 O.2   186  ILE186     -0.2864
    169  CB        18.0290   76.2290   28.0200 C.3   186  ILE186      0.0276
    170  CG1       18.5220   75.5950   26.7240 C.3   186  ILE186      0.0022
    171  CG2       18.0500   75.2110   29.1630 C.3   186  ILE186      0.0022
    172  CD1       20.0160   75.3610   26.6810 C.3   186  ILE186      0.0001
    173  N         12.1490   77.6600   28.7660 N.3   189  MET189     -0.1230
    174  CA        11.3100   76.5170   28.4030 C.3   189  MET189      0.1702
    175  C         11.5260   75.2600   29.2590 C.2   189  MET189      0.2592
    176  O         10.5760   74.5160   29.5340 O.2   189  MET189     -0.2718
    177  CB        11.5100   76.1490   26.9510 C.3   189  MET189      0.0401
    178  CG        10.3810   75.2700   26.4390 C.3   189  MET189      0.0596
    179  SD        10.4020   74.9550   24.6810 S.3   189  MET189     -0.1393
    180  CE        10.8280   73.2150   24.6290 C.3   189  MET189      0.0692
    181  N         12.7670   75.0270   29.6500 N.am  190  GLN190     -0.1979
    182  CA        13.1290   73.8140   30.4040 C.3   190  GLN190      0.1601
    183  C         13.0120   74.0470   31.8980 C.2   190  GLN190      0.2287
    184  O         12.6860   73.1130   32.6510 O.2   190  GLN190     -0.2864
    185  CB        14.5520   73.3900   30.0520 C.3   190  GLN190      0.0394
    186  CG        14.7730   73.0420   28.6050 C.3   190  GLN190      0.0908
    187  CD        13.8680   71.9120   28.1270 C.2   190  GLN190      0.2608
    188  OE1       13.5530   70.9900   28.8750 O.2   190  GLN190     -0.2717
    189  NE2       13.4660   71.9770   26.8610 N.am  190  GLN190     -0.0878
@<TRIPOS>BOND
     1    87    86    1
     2   113   112    1
     3    73    72    1
     4    73    74    1
     5    72    69    1
     6    85    86    1
     7    85    84    1
     8    82    81    2
     9    83    84    1
    10    83    80    1
    11   110   111    1
    12   110   109    1
    13   112   111    2
    14   112   114    1
    15    81    80    1
    16    81    88   am
    17    79    80    1
    18    79    70   am
    19    68    69    1
    20    75    74    1
    21    75    76    2
    22    89    88    1
    23    89    90    1
    24    69    70    1
    25    78    76    1
    26   108   109    1
    27   108   105    1
    28    76    77    1
    29    70    71    2
    30    91    90    2
    31    90    92   am
    32   107   106    2
    33   106   105    1
    34   105   104    1
    35    92    93    1
    36   104   102   am
    37    93    94    1
    38    93    96    1
    39   115   116    1
    40    98    97    2
    41    99    97   am
    42    94    95    2
    43    94   100   am
    44    97    96    1
    45   126   127    2
    46   126   125    1
    47   102   103    2
    48   102   101    1
    49   133   132    1
    50   100   101    1
    51     8     7    1
    52     7     6    1
    53   116   117    1
    54   116   119    1
    55   124   117   am
    56   124   125    1
    57   117   118    2
    58   128   125    1
    59   128   129    1
    60    61    60    2
    61   132   131    2
    62   132   134    1
    63   131   130    1
    64    60    59    1
    65     6     5    1
    66   120   119    1
    67   120   121    1
    68    67    65   ar
    69    67    66   ar
    70   129   130    1
    71    65    63   ar
    72    66    64   ar
    73   122   121    2
    74    59    62    1
    75    59    58    1
    76   143   142    1
    77   121   123   am
    78    63    64   ar
    79    63    62    1
    80     5     2    1
    81   142   141    1
    82   141   140    1
    83     1     2    1
    84     2     3    1
    85   140   139    1
    86    47    49   ar
    87    47    45   ar
    88   139   136    1
    89    49    48   ar
    90     3     4    2
    91    35    37   ar
    92    35    33   ar
    93    45    44   ar
    94    37    38   ar
    95   136   135    1
    96   136   137    1
    97    32    33    1
    98    32    29    1
    99    33    34   ar
   100    38    36   ar
   101    53    52    2
   102    50    51    1
   103    56    55   ar
   104    48    46   ar
   105    51    52    1
   106    51    54    1
   107   149   150    1
   108   149   148    1
   109    34    36   ar
   110   150   151    1
   111    44    46   ar
   112    44    43    1
   113    30    29    1
   114    30    31    2
   115   137   138    2
   116   148   145    1
   117    29    28    1
   118    40    43    1
   119    40    39    1
   120    40    41    1
   121    42    41    2
   122    55    54    1
   123    55    57   ar
   124   157   156    1
   125    10     9    1
   126    10    11    1
   127    10    13    1
   128     9    15    2
   129    11    12    2
   130    13    14    2
   131    15    14    1
   132   145   146    1
   133   145   144    1
   134   164   163    1
   135   156   158    1
   136   156   153    1
   137   152   146   am
   138   152   153    1
   139   146   147    2
   140   153   154    1
   141   163   160    1
   142   180   179    1
   143   179   178    1
   144   154   155    2
   145   160   159    1
   146   160   161    1
   147   178   177    1
   148   161   162    2
   149   161   165   am
   150   172   170    1
   151    23    25   ar
   152    23    21   ar
   153   170   169    1
   154    19    18    2
   155    16    17    1
   156   189   187   am
   157   165   166    1
   158   177   174    1
   159    20    21    1
   160    20    17    1
   161    25    26   ar
   162    21    22   ar
   163    17    18    1
   164   166   169    1
   165   166   167    1
   166   169   171    1
   167   187   186    1
   168   187   188    2
   169   174   173    1
   170   174   175    1
   171    26    27    1
   172    26    24   ar
   173   186   185    1
   174    22    24   ar
   175   167   168    2
   176   175   176    2
   177   175   181   am
   178   181   182    1
   179   185   182    1
   180   182   183    1
   181   183   184    2
