@<TRIPOS>MOLECULE
tmp/4n6bE01.pdb
 110 104 0 0 0
SMALL
GASTEIGER

@<TRIPOS>ATOM
      1  N        -43.7300  -45.3690  -24.3670 N.3    88  PRO88      -0.2116
      2  CA       -44.3390  -46.6480  -23.9980 C.3    88  PRO88       0.1372
      3  C        -43.4730  -47.4040  -23.0070 C.2    88  PRO88       0.2244
      4  O        -43.9650  -47.8410  -21.9730 O.2    88  PRO88      -0.2868
      5  CB       -44.3710  -47.4090  -25.3270 C.3    88  PRO88       0.0268
      6  CG       -44.4850  -46.3520  -26.3550 C.3    88  PRO88       0.0207
      7  CD       -43.7150  -45.1700  -25.8280 C.3    88  PRO88       0.0892
      8  N        -39.4620  -42.9320  -31.0190 N.3   152  ASP152     -0.1225
      9  CA       -39.4840  -44.3370  -30.6350 C.3   152  ASP152      0.1805
     10  C        -38.8230  -45.2250  -31.6750 C.2   152  ASP152      0.2597
     11  O        -39.2350  -45.2390  -32.8280 O.2   152  ASP152     -0.2718
     12  CB       -40.9210  -44.8090  -30.4120 C.3   152  ASP152      0.1424
     13  CG       -41.0000  -46.2750  -30.0280 C.2   152  ASP152      0.3668
     14  OD1      -40.1590  -46.7190  -29.2200 O.co2 152  ASP152     -0.2456
     15  OD2      -41.8900  -46.9910  -30.5400 O.co2 152  ASP152     -0.2456
     16  N        -37.7990  -45.9620  -31.2520 N.am  153  HIS153     -0.1975
     17  CA       -37.1380  -46.9700  -32.0850 C.3   153  HIS153      0.1656
     18  C        -36.4920  -46.3760  -33.3300 C.2   153  HIS153      0.2291
     19  O        -36.5200  -46.9810  -34.4000 O.2   153  HIS153     -0.2864
     20  CB       -38.1280  -48.0660  -32.4770 C.3   153  HIS153      0.0771
     21  CG       -38.7540  -48.7540  -31.3080 C.ar  153  HIS153      0.0820
     22  ND1      -40.1180  -48.8410  -31.1360 N.ar  153  HIS153     -0.2267
     23  CD2      -38.2000  -49.3980  -30.2550 C.ar  153  HIS153      0.1154
     24  CE1      -40.3780  -49.5050  -30.0240 C.ar  153  HIS153      0.1986
     25  NE2      -39.2300  -49.8540  -29.4700 N.ar  153  HIS153     -0.2212
     26  N        -42.6450  -41.7380  -34.9270 N.3   172  LEU172     -0.1231
     27  CA       -42.2780  -43.1080  -34.6560 C.3   172  LEU172      0.1693
     28  C        -41.3620  -43.6620  -35.7340 C.2   172  LEU172      0.2592
     29  O        -41.0530  -42.9780  -36.7020 O.2   172  LEU172     -0.2718
     30  CB       -43.5220  -43.9620  -34.4630 C.3   172  LEU172      0.0284
     31  CG       -44.4310  -43.4450  -33.3500 C.3   172  LEU172      0.0019
     32  CD1      -45.5100  -44.4470  -33.0660 C.3   172  LEU172      0.0001
     33  CD2      -43.6550  -43.1330  -32.0820 C.3   172  LEU172      0.0001
     34  N        -40.9140  -44.8960  -35.5480 N.am  173  HIS173     -0.1976
     35  CA       -39.9040  -45.4760  -36.4140 C.3   173  HIS173      0.1656
     36  C        -40.4240  -45.6460  -37.8290 C.2   173  HIS173      0.2291
     37  O        -41.6130  -45.8440  -38.0310 O.2   173  HIS173     -0.2864
     38  CB       -39.4100  -46.8060  -35.8360 C.3   173  HIS173      0.0771
     39  CG       -40.5070  -47.7690  -35.5060 C.ar  173  HIS173      0.0820
     40  ND1      -40.8850  -48.7820  -36.3570 N.ar  173  HIS173     -0.2267
     41  CD2      -41.3010  -47.8750  -34.4170 C.ar  173  HIS173      0.1154
     42  CE1      -41.8690  -49.4680  -35.8090 C.ar  173  HIS173      0.1986
     43  NE2      -42.1430  -48.9380  -34.6330 N.ar  173  HIS173     -0.2212
     44  N        -48.9370  -36.6940  -33.6410 N.3   194  LEU194     -0.1245
     45  CA       -48.3740  -38.0300  -33.5180 C.3   194  LEU194      0.1561
     46  C        -48.3180  -38.7030  -34.8750 C.2   194  LEU194      0.2260
     47  O        -49.3290  -38.8300  -35.5500 O.2   194  LEU194     -0.2867
     48  CB       -49.2100  -38.8770  -32.5650 C.3   194  LEU194      0.0270
     49  CG       -49.0520  -40.3970  -32.6540 C.3   194  LEU194      0.0019
     50  CD1      -47.6570  -40.8480  -32.2410 C.3   194  LEU194      0.0001
     51  CD2      -50.1130  -41.0920  -31.8170 C.3   194  LEU194      0.0001
     52  N        -47.5510  -42.0940  -36.9370 N.3   196  GLY196     -0.1210
     53  CA       -47.4780  -43.5290  -36.7460 C.3   196  GLY196      0.1956
     54  C        -46.3080  -44.1960  -37.4290 C.2   196  GLY196      0.2611
     55  O        -45.7270  -43.6370  -38.3450 O.2   196  GLY196     -0.2717
     56  N        -45.9730  -45.4000  -36.9820 N.am  197  ALA197     -0.1979
     57  CA       -44.8280  -46.1230  -37.5150 C.3   197  ALA197      0.1597
     58  C        -45.0040  -46.4450  -38.9900 C.2   197  ALA197      0.2287
     59  O        -46.0930  -46.7710  -39.4380 O.2   197  ALA197     -0.2864
     60  CB       -44.5840  -47.3900  -36.7120 C.3   197  ALA197      0.0319
     61  N        -53.3510  -36.5950  -35.6970 N.3   212  LYS212     -0.1231
     62  CA       -52.7740  -37.9180  -35.5560 C.3   212  LYS212      0.1693
     63  C        -52.7160  -38.6340  -36.8970 C.2   212  LYS212      0.2592
     64  O        -53.6730  -38.6210  -37.6580 O.2   212  LYS212     -0.2718
     65  CB       -53.5720  -38.7370  -34.5460 C.3   212  LYS212      0.0285
     66  CG       -53.4860  -38.2110  -33.1230 C.3   212  LYS212      0.0035
     67  CD       -54.6590  -38.6660  -32.2730 C.3   212  LYS212      0.0206
     68  CE       -54.5760  -40.1390  -31.9420 C.3   212  LYS212      0.1093
     69  NZ       -55.7250  -40.5700  -31.1000 N.3   212  LYS212     -0.1314
     70  N        -51.5750  -39.2530  -37.1780 N.am  213  VAL213     -0.1966
     71  CA       -51.3600  -39.9810  -38.4220 C.3   213  VAL213      0.1727
     72  C        -51.0050  -41.4250  -38.1230 C.2   213  VAL213      0.2617
     73  O        -49.9160  -41.7150  -37.6510 O.2   213  VAL213     -0.2715
     74  CB       -50.2120  -39.3700  -39.2440 C.3   213  VAL213      0.0290
     75  CG1      -49.9990  -40.1610  -40.5120 C.3   213  VAL213      0.0023
     76  CG2      -50.4890  -37.9100  -39.5560 C.3   213  VAL213      0.0023
     77  N        -51.9320  -42.3290  -38.4040 N.am  214  GLY214     -0.1940
     78  CA       -51.7570  -43.7360  -38.0990 C.3   214  GLY214      0.2014
     79  C        -50.6340  -44.4340  -38.8380 C.2   214  GLY214      0.2638
     80  O        -50.0980  -43.9110  -39.8060 O.2   214  GLY214     -0.2714
     81  N        -50.2880  -45.6310  -38.3740 N.am  215  ALA215     -0.1977
     82  CA       -49.1970  -46.4120  -38.9420 C.3   215  ALA215      0.1597
     83  C        -49.4950  -46.8550  -40.3600 C.2   215  ALA215      0.2287
     84  O        -50.6490  -47.0270  -40.7300 O.2   215  ALA215     -0.2864
     85  CB       -48.9020  -47.6180  -38.0670 C.3   215  ALA215      0.0319
     86  N        -57.7140  -37.1890  -37.1890 N.3   228  THR228     -0.1218
     87  CA       -56.9360  -38.3970  -37.4140 C.3   228  THR228      0.1862
     88  C        -56.8990  -38.7930  -38.8850 C.2   228  THR228      0.2287
     89  O        -57.9300  -38.9180  -39.5360 O.2   228  THR228     -0.2866
     90  CB       -57.4970  -39.5690  -36.5980 C.3   228  THR228      0.1770
     91  OG1      -57.3930  -39.2730  -35.2020 O.3   228  THR228     -0.2211
     92  CG2      -56.7320  -40.8370  -36.8940 C.3   228  THR228      0.0375
     93  N        -55.5500  -41.6280  -41.7260 N.3   230  VAL230     -0.1231
     94  CA       -55.2610  -43.0510  -41.7490 C.3   230  VAL230      0.1692
     95  C        -55.5550  -43.7180  -43.0920 C.2   230  VAL230      0.2592
     96  O        -56.5040  -43.3560  -43.7820 O.2   230  VAL230     -0.2718
     97  CB       -56.0400  -43.7710  -40.6450 C.3   230  VAL230      0.0266
     98  CG1      -57.5220  -43.7480  -40.9310 C.3   230  VAL230      0.0020
     99  CG2      -55.5570  -45.1730  -40.5180 C.3   230  VAL230      0.0020
    100  N        -54.7150  -44.6800  -43.4650 N.am  231  GLY231     -0.1957
    101  CA       -54.9450  -45.4780  -44.6510 C.3   231  GLY231      0.1869
    102  C        -53.9710  -45.2300  -45.7830 C.2   231  GLY231      0.2309
    103  O        -53.1470  -44.3250  -45.7240 O.2   231  GLY231     -0.2863
    104  N        -60.6450  -39.1590  -40.4220 N.3   237  VAL237     -0.1245
    105  CA       -61.6090  -39.9240  -39.6520 C.3   237  VAL237      0.1561
    106  C        -62.4140  -39.0360  -38.7130 C.2   237  VAL237      0.2260
    107  O        -63.5920  -38.7700  -38.9550 O.2   237  VAL237     -0.2867
    108  CB       -60.9150  -41.0280  -38.8440 C.3   237  VAL237      0.0252
    109  CG1      -61.8550  -41.5860  -37.7940 C.3   237  VAL237      0.0019
    110  CG2      -60.4360  -42.1200  -39.7670 C.3   237  VAL237      0.0019
@<TRIPOS>BOND
     1   102   103    2
     2   102   101    1
     3   101   100    1
     4    96    95    2
     5   100    95   am
     6    95    94    1
     7    94    93    1
     8    94    97    1
     9    98    97    1
    10    84    83    2
    11    97    99    1
    12    75    74    1
    13   104   105    1
    14    83    82    1
    15    80    79    2
    16   110   108    1
    17   105   108    1
    18   105   106    1
    19    76    74    1
    20    89    88    2
    21    59    58    2
    22    74    71    1
    23    58    57    1
    24   107   106    2
    25    82    81    1
    26    82    85    1
    27    88    87    1
    28   108   109    1
    29    79    81   am
    30    79    78    1
    31    71    72    1
    32    71    70    1
    33    77    72   am
    34    77    78    1
    35    55    54    2
    36    72    73    2
    37    37    36    2
    38    36    35    1
    39    64    63    2
    40    57    56    1
    41    57    60    1
    42    54    56   am
    43    54    53    1
    44    87    86    1
    45    87    90    1
    46    70    63   am
    47    52    53    1
    48    63    62    1
    49    92    90    1
    50    29    28    2
    51    90    91    1
    52    35    38    1
    53    35    34    1
    54    40    42   ar
    55    40    39   ar
    56    38    39    1
    57    42    43   ar
    58    28    34   am
    59    28    27    1
    60    61    62    1
    61    62    65    1
    62    47    46    2
    63    39    41   ar
    64    26    27    1
    65    46    45    1
    66    27    30    1
    67    43    41   ar
    68    65    66    1
    69    30    31    1
    70    19    18    2
    71    44    45    1
    72    45    48    1
    73    31    32    1
    74    31    33    1
    75    18    17    1
    76    66    67    1
    77    11    10    2
    78    49    48    1
    79    49    50    1
    80    49    51    1
    81    20    17    1
    82    20    21    1
    83    67    68    1
    84    17    16    1
    85    68    69    1
    86    10    16   am
    87    10     9    1
    88    21    22   ar
    89    21    23   ar
    90    22    24   ar
    91     8     9    1
    92     9    12    1
    93    15    13   ar
    94    12    13    1
    95    23    25   ar
    96    13    14   ar
    97    24    25   ar
    98     6     7    1
    99     6     5    1
   100     7     1    1
   101     5     2    1
   102     1     2    1
   103     2     3    1
   104     3     4    2
