@<TRIPOS>MOLECULE
tmp/4n6bE00.pdb
 81 74 0 0 0
SMALL
GASTEIGER

@<TRIPOS>ATOM
      1  N        -36.6890  -40.5390  -41.9380 N.3   158  VAL158     -0.1245
      2  CA       -36.1260  -39.6640  -42.9550 C.3   158  VAL158      0.1561
      3  C        -36.9180  -38.3760  -43.0390 C.2   158  VAL158      0.2260
      4  O        -38.1320  -38.3830  -43.1930 O.2   158  VAL158     -0.2867
      5  CB       -36.1300  -40.3160  -44.3350 C.3   158  VAL158      0.0252
      6  CG1      -35.9880  -39.2660  -45.4010 C.3   158  VAL158      0.0019
      7  CG2      -35.0230  -41.3410  -44.4360 C.3   158  VAL158      0.0019
      8  N        -36.9460  -34.3570  -44.7260 N.3   160  GLY160     -0.1225
      9  CA       -36.4500  -33.5690  -45.8320 C.3   160  GLY160      0.1811
     10  C        -35.8760  -32.2100  -45.4990 C.2   160  GLY160      0.2280
     11  O        -36.0020  -31.7140  -44.3880 O.2   160  GLY160     -0.2866
     12  N        -41.4480  -41.2940  -42.9430 N.3   176  THR176     -0.1218
     13  CA       -40.7910  -40.4900  -43.9450 C.3   176  THR176      0.1862
     14  C        -41.4910  -39.1560  -44.1490 C.2   176  THR176      0.2287
     15  O        -42.6470  -39.1020  -44.5280 O.2   176  THR176     -0.2866
     16  CB       -40.7280  -41.2290  -45.2750 C.3   176  THR176      0.1770
     17  OG1      -40.3090  -42.5750  -45.0450 O.3   176  THR176     -0.2211
     18  CG2      -39.7590  -40.5530  -46.2130 C.3   176  THR176      0.0375
     19  N        -40.8740  -36.6840  -46.6020 N.3   178  GLY178     -0.1210
     20  CA       -40.1220  -36.4200  -47.8050 C.3   178  GLY178      0.1956
     21  C        -40.9280  -35.7860  -48.9060 C.2   178  GLY178      0.2612
     22  O        -42.1140  -35.5570  -48.7800 O.2   178  GLY178     -0.2717
     23  N        -40.2550  -35.5200  -50.0110 N.am  179  GLY179     -0.1942
     24  CA       -40.8400  -34.8010  -51.1200 C.3   179  GLY179      0.2014
     25  C        -41.8020  -35.6110  -51.9530 C.2   179  GLY179      0.2639
     26  O        -42.0750  -36.7690  -51.6640 O.2   179  GLY179     -0.2714
     27  N        -42.3210  -34.9790  -52.9960 N.am  180  THR180     -0.1950
     28  CA       -43.2440  -35.6250  -53.9080 C.3   180  THR180      0.1897
     29  C        -42.6440  -35.7140  -55.2970 C.2   180  THR180      0.2313
     30  O        -43.3220  -36.1300  -56.2320 O.2   180  THR180     -0.2863
     31  CB       -44.5490  -34.8460  -54.0250 C.3   180  THR180      0.1794
     32  OG1      -45.4680  -35.5910  -54.8280 O.3   180  THR180     -0.2208
     33  CG2      -44.2960  -33.5100  -54.6740 C.3   180  THR180      0.0378
     34  N        -41.5380  -30.2650  -48.7240 N.3   186  HIS186     -0.1241
     35  CA       -41.6270  -31.2610  -47.6730 C.3   186  HIS186      0.1621
     36  C        -42.6460  -30.8420  -46.6280 C.2   186  HIS186      0.2264
     37  O        -43.0070  -29.6730  -46.5670 O.2   186  HIS186     -0.2867
     38  CB       -40.2590  -31.4410  -47.0300 C.3   186  HIS186      0.0745
     39  CG       -39.2080  -31.9110  -47.9770 C.ar  186  HIS186      0.0817
     40  ND1      -38.1800  -31.1060  -48.4050 N.ar  186  HIS186     -0.2268
     41  CD2      -39.0260  -33.1070  -48.5810 C.ar  186  HIS186      0.1154
     42  CE1      -37.4030  -31.7870  -49.2280 C.ar  186  HIS186      0.1986
     43  NE2      -37.8980  -33.0030  -49.3510 N.ar  186  HIS186     -0.2212
     44  N        -45.9450  -36.9610  -47.8000 N.3   202  LEU202     -0.1245
     45  CA       -45.2750  -36.4320  -48.9720 C.3   202  LEU202      0.1561
     46  C        -45.7730  -35.0650  -49.3870 C.2   202  LEU202      0.2260
     47  O        -46.9660  -34.8570  -49.5300 O.2   202  LEU202     -0.2867
     48  CB       -45.4740  -37.3860  -50.1430 C.3   202  LEU202      0.0270
     49  CG       -44.9180  -38.7940  -49.9740 C.3   202  LEU202      0.0019
     50  CD1      -44.9980  -39.5440  -51.2840 C.3   202  LEU202      0.0001
     51  CD2      -43.5000  -38.7270  -49.4600 C.3   202  LEU202      0.0001
     52  N        -50.3150  -43.2440  -45.8310 N.3   218  VAL218     -0.1245
     53  CA       -49.6700  -42.4660  -46.8610 C.3   218  VAL218      0.1561
     54  C        -50.4470  -41.1910  -47.0370 C.2   218  VAL218      0.2260
     55  O        -51.4700  -41.1510  -47.7150 O.2   218  VAL218     -0.2867
     56  CB       -49.6340  -43.2160  -48.1820 C.3   218  VAL218      0.0252
     57  CG1      -48.9610  -42.3690  -49.2330 C.3   218  VAL218      0.0019
     58  CG2      -48.9070  -44.5270  -48.0020 C.3   218  VAL218      0.0019
     59  N        -51.0730  -37.5850  -48.3800 N.3   220  LEU220     -0.1245
     60  CA       -50.7330  -36.7480  -49.5150 C.3   220  LEU220      0.1561
     61  C        -51.4720  -35.4290  -49.4690 C.2   220  LEU220      0.2260
     62  O        -51.1750  -34.5190  -50.2350 O.2   220  LEU220     -0.2867
     63  CB       -51.0820  -37.4570  -50.8140 C.3   220  LEU220      0.0270
     64  CG       -50.2740  -38.6930  -51.1710 C.3   220  LEU220      0.0019
     65  CD1      -50.7370  -39.1620  -52.5130 C.3   220  LEU220      0.0001
     66  CD2      -48.7990  -38.3750  -51.1910 C.3   220  LEU220      0.0001
     67  N        -54.0630  -46.0640  -46.8130 N.3   232  ASN232     -0.1226
     68  CA       -53.3100  -45.8790  -48.0460 C.3   232  ASN232      0.1770
     69  C        -54.2590  -46.0020  -49.2270 C.2   232  ASN232      0.2439
     70  O        -54.6040  -47.1110  -49.6310 O.2   232  ASN232     -0.2733
     71  CB       -52.1820  -46.9020  -48.1600 C.3   232  ASN232      0.1168
     72  CG       -51.2590  -46.6240  -49.3280 C.2   232  ASN232      0.2627
     73  OD1      -51.3560  -45.5870  -49.9720 O.2   232  ASN232     -0.2716
     74  ND2      -50.3500  -47.5490  -49.6000 N.am  232  ASN232     -0.0877
     75  N        -54.7020  -44.8570  -49.7720 N.am  233  PRO233     -0.2729
     76  CA       -54.2890  -43.5200  -49.3490 C.3   233  PRO233      0.1401
     77  C        -55.0680  -43.0180  -48.1430 C.2   233  PRO233      0.2269
     78  O        -56.2340  -43.3550  -47.9670 O.2   233  PRO233     -0.2865
     79  CB       -54.5880  -42.6660  -50.5770 C.3   233  PRO233      0.0296
     80  CG       -55.6140  -43.4210  -51.3530 C.3   233  PRO233      0.0237
     81  CD       -55.7880  -44.7850  -50.7580 C.3   233  PRO233      0.0939
@<TRIPOS>BOND
     1    30    29    2
     2    29    28    1
     3    32    31    1
     4    33    31    1
     5    31    28    1
     6    28    27    1
     7    27    25   am
     8    65    64    1
     9    25    26    2
    10    25    24    1
    11    80    81    1
    12    80    79    1
    13    50    49    1
    14    66    64    1
    15    64    63    1
    16    24    23    1
    17    63    60    1
    18    81    75    1
    19    79    76    1
    20    62    61    2
    21    48    49    1
    22    48    45    1
    23    23    21   am
    24    49    51    1
    25    73    72    2
    26    75    76    1
    27    75    69   am
    28    70    69    2
    29    74    72   am
    30    47    46    2
    31    60    61    1
    32    60    59    1
    33    46    45    1
    34    43    42   ar
    35    43    41   ar
    36    76    77    1
    37    72    71    1
    38    57    56    1
    39    42    40   ar
    40    69    68    1
    41    45    44    1
    42    21    22    2
    43    21    20    1
    44    34    35    1
    45    41    39   ar
    46    40    39   ar
    47    56    58    1
    48    56    53    1
    49    71    68    1
    50    77    78    2
    51    68    67    1
    52    39    38    1
    53    20    19    1
    54    55    54    2
    55    35    38    1
    56    35    36    1
    57    54    53    1
    58    53    52    1
    59    36    37    2
    60    18    16    1
    61     9    10    1
    62     9     8    1
    63    10    11    2
    64     6     5    1
    65    16    17    1
    66    16    13    1
    67    15    14    2
    68     7     5    1
    69     5     2    1
    70    14    13    1
    71    13    12    1
    72     4     3    2
    73     3     2    1
    74     2     1    1
