@<TRIPOS>MOLECULE
tmp/4n6fB00.pdb
 140 129 0 0 0
SMALL
GASTEIGER

@<TRIPOS>ATOM
      1  N        -62.4810  -47.1910  -16.2850 N.3    18  GLY18      -0.1225
      2  CA       -62.7660  -48.1220  -17.3670 C.3    18  GLY18       0.1811
      3  C        -62.0330  -49.4280  -17.1280 C.2    18  GLY18       0.2280
      4  O        -60.8500  -49.5440  -17.4420 O.2    18  GLY18      -0.2866
      5  N        -63.0290  -52.4740  -18.3330 N.3    20  GLU20      -0.1245
      6  CA       -63.4790  -53.5030  -19.2770 C.3    20  GLU20       0.1567
      7  C        -62.3520  -54.3000  -19.9470 C.2    20  GLU20       0.2260
      8  O        -62.6010  -55.3900  -20.4510 O.2    20  GLU20      -0.2867
      9  CB       -64.4360  -52.9340  -20.3440 C.3    20  GLU20       0.0388
     10  CG       -63.9050  -51.7770  -21.1780 C.3    20  GLU20       0.1160
     11  CD       -64.4630  -50.4440  -20.7240 C.2    20  GLU20       0.3649
     12  OE1      -65.0720  -49.7500  -21.5570 O.co2  20  GLU20      -0.2457
     13  OE2      -64.3130  -50.0980  -19.5340 O.co2  20  GLU20      -0.2457
     14  N        -68.1500  -51.1560  -26.0210 N.3    74  SER74      -0.1217
     15  CA       -66.7950  -50.7550  -26.4350 C.3    74  SER74       0.1889
     16  C        -66.1880  -51.4210  -27.6720 C.2    74  SER74       0.2288
     17  O        -65.1290  -51.0000  -28.1230 O.2    74  SER74      -0.2866
     18  CB       -65.8250  -50.9380  -25.2610 C.3    74  SER74       0.2089
     19  OG       -66.0180  -49.9050  -24.3170 O.3    74  SER74      -0.2183
     20  N        -73.0640  -47.3280  -20.8890 N.3    99  LYS99      -0.1245
     21  CA       -72.0140  -46.4110  -21.2940 C.3    99  LYS99       0.1561
     22  C        -71.9410  -46.6110  -22.7710 C.2    99  LYS99       0.2260
     23  O        -71.3260  -47.5580  -23.2400 O.2    99  LYS99      -0.2867
     24  CB       -70.7340  -46.7480  -20.5060 C.3    99  LYS99       0.0271
     25  CG       -69.4300  -46.2340  -21.1090 C.3    99  LYS99       0.0035
     26  CD       -68.2120  -46.4700  -20.2020 C.3    99  LYS99       0.0206
     27  CE       -67.0640  -47.2030  -20.9040 C.3    99  LYS99       0.1093
     28  NZ       -66.3600  -46.3010  -21.8220 N.3    99  LYS99      -0.1314
     29  N        -71.0720  -46.3080  -26.6230 N.3   101  ASP101     -0.1239
     30  CA       -69.9420  -45.9470  -27.4840 C.3   101  ASP101      0.1674
     31  C        -70.1340  -46.4040  -28.9250 C.2   101  ASP101      0.2266
     32  O        -70.4670  -47.5600  -29.1700 O.2   101  ASP101     -0.2867
     33  CB       -68.6650  -46.5940  -26.9520 C.3   101  ASP101      0.1410
     34  CG       -68.2600  -46.0580  -25.5880 C.2   101  ASP101      0.3668
     35  OD1      -67.7780  -44.9140  -25.5220 O.co2 101  ASP101     -0.2456
     36  OD2      -68.4160  -46.7820  -24.5840 O.co2 101  ASP101     -0.2456
     37  N        -67.5720  -45.9440  -32.1990 N.3   103  ARG103     -0.1245
     38  CA       -66.2570  -45.4150  -32.5630 C.3   103  ARG103      0.1563
     39  C        -65.9740  -45.4730  -34.0650 C.2   103  ARG103      0.2260
     40  O        -66.1330  -46.5190  -34.6950 O.2   103  ARG103     -0.2867
     41  CB       -65.1610  -46.2010  -31.8360 C.3   103  ARG103      0.0307
     42  CG       -65.2570  -46.1880  -30.3180 C.3   103  ARG103      0.0489
     43  CD       -64.6860  -44.9140  -29.7210 C.3   103  ARG103      0.2205
     44  NE       -64.9250  -44.8540  -28.2770 N.pl3 103  ARG103     -0.0865
     45  CZ       -64.0920  -45.2860  -27.3300 C.cat 103  ARG103      0.5346
     46  NH1      -64.4470  -45.1740  -26.0560 N.pl3 103  ARG103      0.1354
     47  NH2      -62.9130  -45.8210  -27.6330 N.pl3 103  ARG103      0.1354
     48  N        -70.8740  -41.0960  -25.4740 N.3   131  PHE131     -0.1241
     49  CA       -69.5490  -40.4870  -25.5890 C.3   131  PHE131      0.1605
     50  C        -69.4970  -39.7440  -26.9060 C.2   131  PHE131      0.2264
     51  O        -69.7920  -40.3200  -27.9470 O.2   131  PHE131     -0.2867
     52  CB       -68.4660  -41.5840  -25.5400 C.3   131  PHE131      0.0534
     53  CG       -67.0420  -41.0770  -25.4010 C.ar  131  PHE131     -0.0203
     54  CD1      -66.7440  -39.8620  -24.7950 C.ar  131  PHE131     -0.0042
     55  CD2      -65.9890  -41.8570  -25.8480 C.ar  131  PHE131     -0.0042
     56  CE1      -65.4330  -39.4260  -24.6760 C.ar  131  PHE131     -0.0003
     57  CE2      -64.6760  -41.4250  -25.7310 C.ar  131  PHE131     -0.0003
     58  CZ       -64.3970  -40.2110  -25.1400 C.ar  131  PHE131     -0.0000
     59  N        -70.6880  -37.9760  -21.8780 N.3   151  ARG151     -0.1245
     60  CA       -69.2600  -38.1180  -21.7520 C.3   151  ARG151      0.1563
     61  C        -68.7070  -37.3900  -22.9520 C.2   151  ARG151      0.2260
     62  O        -69.1230  -37.6440  -24.0850 O.2   151  ARG151     -0.2867
     63  CB       -68.8670  -39.5970  -21.7390 C.3   151  ARG151      0.0307
     64  CG       -69.3450  -40.3490  -20.4980 C.3   151  ARG151      0.0489
     65  CD       -69.6730  -41.7990  -20.8040 C.3   151  ARG151      0.2205
     66  NE       -68.5620  -42.4430  -21.5020 N.pl3 151  ARG151     -0.0865
     67  CZ       -68.6730  -43.2810  -22.5310 C.cat 151  ARG151      0.5346
     68  NH1      -67.5650  -43.7800  -23.0890 N.pl3 151  ARG151      0.1354
     69  NH2      -69.8710  -43.6190  -23.0240 N.pl3 151  ARG151      0.1354
     70  N        -58.1190  -41.0810  -27.3570 N.3   157  VAL157     -0.1231
     71  CA       -57.9500  -42.2250  -26.4760 C.3   157  VAL157      0.1692
     72  C        -56.4860  -42.6650  -26.4520 C.2   157  VAL157      0.2591
     73  O        -55.8290  -42.7390  -27.4950 O.2   157  VAL157     -0.2718
     74  CB       -58.8410  -43.4050  -26.9190 C.3   157  VAL157      0.0266
     75  CG1      -58.4990  -44.6750  -26.1450 C.3   157  VAL157      0.0020
     76  CG2      -60.3030  -43.0570  -26.7350 C.3   157  VAL157      0.0020
     77  N        -55.9900  -42.9220  -25.2430 N.am  158  ALA158     -0.1980
     78  CA       -54.6280  -43.4070  -25.0110 C.3   158  ALA158      0.1597
     79  C        -53.5090  -42.3990  -25.3040 C.2   158  ALA158      0.2287
     80  O        -52.3380  -42.7720  -25.2780 O.2   158  ALA158     -0.2864
     81  CB       -54.3800  -44.7140  -25.7750 C.3   158  ALA158      0.0319
     82  N        -52.9270  -39.4920  -23.5800 N.3   160  GLY160     -0.1225
     83  CA       -52.4600  -38.8110  -22.3690 C.3   160  GLY160      0.1811
     84  C        -52.2360  -37.3120  -22.5340 C.2   160  GLY160      0.2280
     85  O        -51.5320  -36.7050  -21.7240 O.2   160  GLY160     -0.2866
     86  N        -63.7230  -37.2700  -20.5350 N.3   183  GLU183     -0.1231
     87  CA       -63.1880  -38.5940  -20.8340 C.3   183  GLU183      0.1699
     88  C        -62.3330  -38.5780  -22.1050 C.2   183  GLU183      0.2593
     89  O        -62.6110  -37.8320  -23.0390 O.2   183  GLU183     -0.2718
     90  CB       -64.3530  -39.5650  -21.0000 C.3   183  GLU183      0.0402
     91  CG       -63.9610  -41.0000  -21.3310 C.3   183  GLU183      0.1161
     92  CD       -65.1540  -41.9500  -21.3750 C.2   183  GLU183      0.3649
     93  OE1      -65.0170  -43.0430  -21.9670 O.co2 183  GLU183     -0.2457
     94  OE2      -66.2250  -41.6260  -20.8080 O.co2 183  GLU183     -0.2457
     95  N        -61.2960  -39.4080  -22.1350 N.am  184  GLY184     -0.1942
     96  CA       -60.4690  -39.5650  -23.3220 C.3   184  GLY184      0.2014
     97  C        -59.1810  -38.7770  -23.2350 C.2   184  GLY184      0.2639
     98  O        -59.1960  -37.5520  -23.1580 O.2   184  GLY184     -0.2714
     99  N        -58.0570  -39.4830  -23.2470 N.am  185  GLY185     -0.1939
    100  CA       -56.7440  -38.8360  -23.2640 C.3   185  GLY185      0.2014
    101  C        -56.3030  -38.2390  -21.9370 C.2   185  GLY185      0.2638
    102  O        -55.3250  -37.4960  -21.8900 O.2   185  GLY185     -0.2714
    103  N        -57.0150  -38.5610  -20.8570 N.am  186  ILE186     -0.1977
    104  CA       -56.5910  -38.1640  -19.5260 C.3   186  ILE186      0.1596
    105  C        -55.3310  -38.9690  -19.2280 C.2   186  ILE186      0.2287
    106  O        -55.3060  -40.1890  -19.3780 O.2   186  ILE186     -0.2864
    107  CB       -57.6590  -38.4420  -18.4460 C.3   186  ILE186      0.0276
    108  CG1      -58.9710  -37.7010  -18.7490 C.3   186  ILE186      0.0022
    109  CG2      -57.1430  -38.0640  -17.0580 C.3   186  ILE186      0.0022
    110  CD1      -58.8790  -36.1930  -18.7010 C.3   186  ILE186      0.0001
    111  N        -63.7230  -39.9080  -16.4640 N.3   204  LEU204     -0.1231
    112  CA       -63.5010  -41.3320  -16.6600 C.3   204  LEU204      0.1693
    113  C        -62.0800  -41.5360  -17.1350 C.2   204  LEU204      0.2592
    114  O        -61.6270  -40.8600  -18.0620 O.2   204  LEU204     -0.2718
    115  CB       -64.5010  -41.9140  -17.6570 C.3   204  LEU204      0.0284
    116  CG       -64.5060  -43.4460  -17.7510 C.3   204  LEU204      0.0019
    117  CD1      -65.9110  -43.9690  -18.0340 C.3   204  LEU204      0.0001
    118  CD2      -63.5300  -43.9510  -18.8100 C.3   204  LEU204      0.0001
    119  N        -61.3740  -42.4630  -16.4940 N.am  205  VAL205     -0.1966
    120  CA       -59.9860  -42.7420  -16.8470 C.3   205  VAL205      0.1727
    121  C        -59.7680  -44.2250  -17.1010 C.2   205  VAL205      0.2616
    122  O        -60.3950  -45.0760  -16.4790 O.2   205  VAL205     -0.2715
    123  CB       -58.9940  -42.2480  -15.7700 C.3   205  VAL205      0.0290
    124  CG1      -59.0840  -40.7380  -15.6230 C.3   205  VAL205      0.0023
    125  CG2      -59.2480  -42.9220  -14.4380 C.3   205  VAL205      0.0023
    126  N        -58.8670  -44.5210  -18.0230 N.am  206  ASN206     -0.1958
    127  CA       -58.5190  -45.8970  -18.3150 C.3   206  ASN206      0.1819
    128  C        -57.0110  -46.0550  -18.5260 C.2   206  ASN206      0.2621
    129  O        -56.3200  -46.6060  -17.6700 O.2   206  ASN206     -0.2715
    130  CB       -59.3140  -46.3860  -19.5260 C.3   206  ASN206      0.1195
    131  CG       -59.0610  -47.8400  -19.8490 C.2   206  ASN206      0.2630
    132  OD1      -58.2070  -48.5000  -19.2500 O.2   206  ASN206     -0.2716
    133  ND2      -59.7970  -48.3460  -20.8180 N.am  206  ASN206     -0.0877
    134  N        -56.5110  -45.5540  -19.6470 N.am  207  THR207     -0.1951
    135  CA       -55.1210  -45.7550  -20.0310 C.3   207  THR207      0.1897
    136  C        -54.1690  -45.1990  -18.9720 C.2   207  THR207      0.2313
    137  O        -53.1920  -45.8530  -18.6140 O.2   207  THR207     -0.2863
    138  CB       -54.8130  -45.1130  -21.3920 C.3   207  THR207      0.1794
    139  OG1      -55.7360  -45.6050  -22.3680 O.3   207  THR207     -0.2208
    140  CG2      -53.3920  -45.4430  -21.8520 C.3   207  THR207      0.0378
@<TRIPOS>BOND
     1    40    39    2
     2    39    38    1
     3    38    37    1
     4    38    41    1
     5    41    42    1
     6    42    43    1
     7    43    44    1
     8    32    31    2
     9    31    30    1
    10    44    45    2
    11    17    16    2
    12    51    50    2
    13    16    15    1
    14    47    45    1
    15    73    72    2
    16    30    33    1
    17    30    29    1
    18    70    71    1
    19    45    46    1
    20    33    34    1
    21    74    76    1
    22    74    71    1
    23    74    75    1
    24    50    49    1
    25    71    72    1
    26    72    77   am
    27    15    14    1
    28    15    18    1
    29    55    57   ar
    30    55    53   ar
    31    81    78    1
    32    57    58   ar
    33    49    52    1
    34    49    48    1
    35    34    35   ar
    36    34    36   ar
    37    52    53    1
    38    53    54   ar
    39    79    80    2
    40    79    78    1
    41    18    19    1
    42    77    78    1
    43    58    56   ar
    44    54    56   ar
    45    62    61    2
    46    82    83    1
    47    96    97    1
    48    96    95    1
    49   100    99    1
    50   100   101    1
    51    99    97   am
    52    23    22    2
    53    97    98    2
    54    68    67    1
    55    89    88    2
    56    69    67    1
    57    61    60    1
    58    22    21    1
    59    84    83    1
    60    84    85    2
    61    67    66    2
    62   139   138    1
    63    95    88   am
    64    88    87    1
    65    93    92   ar
    66   101   102    2
    67   101   103   am
    68    59    60    1
    69   140   138    1
    70    28    27    1
    71    60    63    1
    72    63    64    1
    73    12    11   ar
    74    66    65    1
    75   138   135    1
    76    92    91    1
    77    92    94   ar
    78    91    90    1
    79    21    20    1
    80    21    24    1
    81    10    11    1
    82    10     9    1
    83    25    24    1
    84    25    26    1
    85    90    87    1
    86    27    26    1
    87   103   104    1
    88    87    86    1
    89   133   131   am
    90    65    64    1
    91    11    13   ar
    92     8     7    2
    93     9     6    1
    94   135   134    1
    95   135   136    1
    96     7     6    1
    97   131   130    1
    98   131   132    2
    99   134   128   am
   100   104   105    1
   101   104   107    1
   102   130   127    1
   103   106   105    2
   104     6     5    1
   105   136   137    2
   106   118   116    1
   107   108   110    1
   108   108   107    1
   109   128   127    1
   110   128   129    2
   111   107   109    1
   112   127   126    1
   113   114   113    2
   114   117   116    1
   115   126   121   am
   116   116   115    1
   117   115   112    1
   118     4     3    2
   119     2     3    1
   120     2     1    1
   121   113   112    1
   122   113   119   am
   123   121   120    1
   124   121   122    2
   125   120   119    1
   126   120   123    1
   127   112   111    1
   128   123   124    1
   129   123   125    1
