@<TRIPOS>MOLECULE
tmp/4n6hA16.pdb
 111 101 0 0 0
SMALL
GASTEIGER

@<TRIPOS>ATOM
      1  N          1.7500  -59.3390   93.5650 N.3   303  TYR303     -0.1241
      2  CA         2.8160  -60.3650   93.7060 C.3   303  TYR303      0.1605
      3  C          4.0340  -59.7080   94.3310 C.2   303  TYR303      0.2264
      4  O          4.5560  -60.1710   95.3460 O.2   303  TYR303     -0.2867
      5  CB         3.1400  -60.9370   92.2950 C.3   303  TYR303      0.0534
      6  CG         3.7230  -62.3480   92.1870 C.ar  303  TYR303     -0.0201
      7  CD1        5.0270  -62.6320   92.5900 C.ar  303  TYR303     -0.0009
      8  CD2        2.9680  -63.3960   91.6340 C.ar  303  TYR303     -0.0009
      9  CE1        5.5490  -63.9170   92.4610 C.ar  303  TYR303      0.0417
     10  CE2        3.4790  -64.6770   91.5290 C.ar  303  TYR303      0.0417
     11  CZ         4.7600  -64.9440   91.9480 C.ar  303  TYR303      0.1957
     12  OH         5.3010  -66.2240   91.8380 O.3   303  TYR303     -0.2866
     13  N          5.5250  -60.4030   98.0700 N.3   307  LEU307     -0.1245
     14  CA         6.9540  -60.7540   98.3430 C.3   307  LEU307      0.1561
     15  C          7.5940  -59.7930   99.3710 C.2   307  LEU307      0.2260
     16  O          8.2630  -60.2380  100.3170 O.2   307  LEU307     -0.2867
     17  CB         7.7660  -60.8510   97.0490 C.3   307  LEU307      0.0270
     18  CG         7.3380  -62.0020   96.1090 C.3   307  LEU307      0.0019
     19  CD1        7.9550  -61.8480   94.7300 C.3   307  LEU307      0.0001
     20  CD2        7.6500  -63.3960   96.6920 C.3   307  LEU307      0.0001
     21  N          6.1480  -60.4560  102.9380 N.3   310  LEU310     -0.1245
     22  CA         6.6800  -61.7030  103.4650 C.3   310  LEU310      0.1561
     23  C          8.1190  -61.5420  104.0070 C.2   310  LEU310      0.2260
     24  O          8.4780  -62.1860  105.0040 O.2   310  LEU310     -0.2867
     25  CB         6.6310  -62.8110  102.3890 C.3   310  LEU310      0.0270
     26  CG         5.2360  -63.2730  101.9250 C.3   310  LEU310      0.0019
     27  CD1        5.2480  -64.2150  100.7130 C.3   310  LEU310      0.0001
     28  CD2        4.5900  -63.9710  103.0830 C.3   310  LEU310      0.0001
     29  N          2.6390  -68.8490   99.2980 N.3   331  ARG331     -0.1245
     30  CA         3.5850  -69.4740   98.3800 C.3   331  ARG331      0.1563
     31  C          2.8650  -70.3260   97.3340 C.2   331  ARG331      0.2260
     32  O          3.2120  -70.2370   96.1530 O.2   331  ARG331     -0.2867
     33  CB         4.6690  -70.2950   99.1480 C.3   331  ARG331      0.0307
     34  CG         5.5060  -71.1720   98.2320 C.3   331  ARG331      0.0489
     35  CD         6.6790  -71.8610   98.9410 C.3   331  ARG331      0.2205
     36  NE         6.1820  -72.8710   99.8730 N.pl3 331  ARG331     -0.0865
     37  CZ         6.9380  -73.7500  100.5220 C.cat 331  ARG331      0.5346
     38  NH1        8.2570  -73.7810  100.3430 N.pl3 331  ARG331      0.1354
     39  NH2        6.3570  -74.6160  101.3450 N.pl3 331  ARG331      0.1354
     40  N          1.3600  -68.0180   94.7400 N.3   334  LEU334     -0.1231
     41  CA         2.4340  -67.4390   93.9350 C.3   334  LEU334      0.1693
     42  C          2.9660  -68.4670   92.9070 C.2   334  LEU334      0.2591
     43  O          3.2280  -68.1310   91.7360 O.2   334  LEU334     -0.2718
     44  CB         3.5310  -66.8570   94.8290 C.3   334  LEU334      0.0284
     45  CG         3.1840  -65.7680   95.8910 C.3   334  LEU334      0.0019
     46  CD1        4.3510  -65.3600   96.7640 C.3   334  LEU334      0.0001
     47  CD2        2.5750  -64.5030   95.2950 C.3   334  LEU334      0.0001
     48  N          3.0850  -69.7310   93.3150 N.am  335  VAL335     -0.1980
     49  CA         3.4690  -70.7900   92.3580 C.3   335  VAL335      0.1595
     50  C          2.4150  -71.0600   91.2980 C.2   335  VAL335      0.2287
     51  O          2.7400  -71.1890   90.1220 O.2   335  VAL335     -0.2864
     52  CB         3.8710  -72.0970   93.0750 C.3   335  VAL335      0.0276
     53  CG1        4.2360  -73.1740   92.0600 C.3   335  VAL335      0.0022
     54  CG2        5.0830  -71.8320   93.9670 C.3   335  VAL335      0.0022
     55  N          2.4670  -68.1130   88.9360 N.3   338  GLY338     -0.1210
     56  CA         3.6900  -68.2310   88.1400 C.3   338  GLY338      0.1956
     57  C          3.6380  -69.2970   87.0640 C.2   338  GLY338      0.2611
     58  O          4.0640  -69.0660   85.9010 O.2   338  GLY338     -0.2717
     59  N          3.1110  -70.4620   87.4320 N.am  339  ALA339     -0.1979
     60  CA         2.9400  -71.5390   86.4940 C.3   339  ALA339      0.1597
     61  C          1.9650  -71.1360   85.3570 C.2   339  ALA339      0.2287
     62  O          2.1510  -71.5260   84.1920 O.2   339  ALA339     -0.2864
     63  CB         2.4460  -72.7950   87.2040 C.3   339  ALA339      0.0319
     64  N          3.9160  -68.8640   82.9310 N.3   342  VAL342     -0.1231
     65  CA         4.8460  -69.6570   82.1510 C.3   342  VAL342      0.1692
     66  C          4.1290  -70.5120   81.0860 C.2   342  VAL342      0.2592
     67  O          4.5880  -70.6370   79.9450 O.2   342  VAL342     -0.2718
     68  CB         5.6600  -70.5780   83.0540 C.3   342  VAL342      0.0266
     69  CG1        6.3460  -71.6520   82.2230 C.3   342  VAL342      0.0020
     70  CG2        6.6680  -69.7900   83.8620 C.3   342  VAL342      0.0020
     71  N          2.9830  -71.0720   81.4440 N.am  343  CYS343     -0.1970
     72  CA         2.2280  -71.9050   80.5030 C.3   343  CYS343      0.1712
     73  C          1.4840  -71.1440   79.4140 C.2   343  CYS343      0.2296
     74  O          1.2390  -71.7080   78.3500 O.2   343  CYS343     -0.2864
     75  CB         1.2690  -72.8070   81.2580 C.3   343  CYS343      0.0983
     76  SG         2.0430  -74.1360   82.2150 S.3   343  CYS343     -0.0798
     77  N          1.0730  -76.5230   75.7910 N.3   376  LEU376     -0.1245
     78  CA         1.5460  -76.0300   77.0750 C.3   376  LEU376      0.1561
     79  C          0.4660  -75.2770   77.8470 C.2   376  LEU376      0.2260
     80  O          0.3700  -75.3970   79.0850 O.2   376  LEU376     -0.2867
     81  CB         2.7670  -75.1120   76.8560 C.3   376  LEU376      0.0270
     82  CG         3.4280  -74.5460   78.0990 C.3   376  LEU376      0.0019
     83  CD1        3.9190  -75.6680   79.0080 C.3   376  LEU376      0.0001
     84  CD2        4.6220  -73.6420   77.6620 C.3   376  LEU376      0.0001
     85  N         -1.7290  -77.9910   79.1610 N.3   379  ALA379     -0.1245
     86  CA        -1.0090  -78.6840   80.2300 C.3   379  ALA379      0.1562
     87  C         -1.0610  -77.9940   81.5900 C.2   379  ALA379      0.2260
     88  O         -1.0290  -78.6550   82.6240 O.2   379  ALA379     -0.2867
     89  CB         0.4290  -78.8890   79.8350 C.3   379  ALA379      0.0290
     90  N         -3.5660  -79.6950   83.7680 N.3   382  SER382     -0.1202
     91  CA        -3.1600  -80.9330   84.4170 C.3   382  SER382      0.2020
     92  C         -2.1650  -80.6560   85.5470 C.2   382  SER382      0.2618
     93  O         -2.1450  -81.3670   86.5430 O.2   382  SER382     -0.2717
     94  CB        -2.5360  -81.8930   83.3870 C.3   382  SER382      0.2103
     95  OG        -1.5190  -81.2640   82.6440 O.3   382  SER382     -0.2182
     96  N         -1.3780  -79.5980   85.3950 N.am  383  LEU383     -0.1979
     97  CA        -0.3820  -79.2020   86.4010 C.3   383  LEU383      0.1596
     98  C         -0.9900  -78.7770   87.7390 C.2   383  LEU383      0.2287
     99  O         -0.4870  -79.1360   88.8020 O.2   383  LEU383     -0.2864
    100  CB         0.4620  -78.0650   85.8490 C.3   383  LEU383      0.0297
    101  CG         1.5200  -77.5000   86.8010 C.3   383  LEU383      0.0022
    102  CD1        2.4450  -78.6160   87.2690 C.3   383  LEU383      0.0001
    103  CD2        2.2950  -76.3780   86.1020 C.3   383  LEU383      0.0001
    104  N          0.0850  -79.3390   91.6280 N.3   387  LEU387     -0.1245
    105  CA         0.5850  -78.2510   92.4480 C.3   387  LEU387      0.1561
    106  C         -0.1720  -78.1520   93.7740 C.2   387  LEU387      0.2260
    107  O          0.4580  -78.0650   94.8280 O.2   387  LEU387     -0.2867
    108  CB         0.5750  -76.9130   91.7240 C.3   387  LEU387      0.0270
    109  CG         1.5350  -76.7810   90.5350 C.3   387  LEU387      0.0019
    110  CD1        1.3080  -75.4320   89.8860 C.3   387  LEU387      0.0001
    111  CD2        3.0020  -76.9840   90.9470 C.3   387  LEU387      0.0001
@<TRIPOS>BOND
     1    77    78    1
     2    81    78    1
     3    81    82    1
     4    78    79    1
     5    84    82    1
     6    79    80    2
     7    82    83    1
     8    74    73    2
     9    85    86    1
    10    73    72    1
    11    89    86    1
    12    67    66    2
    13    86    87    1
    14    72    75    1
    15    72    71    1
    16    66    71   am
    17    66    65    1
    18    75    76    1
    19    87    88    2
    20    65    64    1
    21    65    68    1
    22    69    68    1
    23    95    94    1
    24    68    70    1
    25    94    91    1
    26    90    91    1
    27    62    61    2
    28    91    92    1
    29    61    60    1
    30    96    92   am
    31    96    97    1
    32    92    93    2
    33   100    97    1
    34   100   101    1
    35    58    57    2
    36   103   101    1
    37    97    98    1
    38    60    63    1
    39    60    59    1
    40   101   102    1
    41    57    59   am
    42    57    56    1
    43    98    99    2
    44    56    55    1
    45   110   109    1
    46    51    50    2
    47   109   111    1
    48   109   108    1
    49    50    49    1
    50    10     8   ar
    51    10    11   ar
    52   104   105    1
    53     8     6   ar
    54   108   105    1
    55    43    42    2
    56    12    11    1
    57    11     9   ar
    58    53    52    1
    59     6     5    1
    60     6     7   ar
    61     5     2    1
    62    49    52    1
    63    49    48    1
    64   105   106    1
    65     9     7   ar
    66    42    48   am
    67    42    41    1
    68    52    54    1
    69     1     2    1
    70     2     3    1
    71   106   107    2
    72    41    40    1
    73    41    44    1
    74     3     4    2
    75    19    18    1
    76    44    45    1
    77    47    45    1
    78    45    46    1
    79    18    20    1
    80    18    17    1
    81    32    31    2
    82    17    14    1
    83    31    30    1
    84    13    14    1
    85    34    35    1
    86    34    33    1
    87    14    15    1
    88    30    33    1
    89    30    29    1
    90    35    36    1
    91    15    16    2
    92    36    37    2
    93    38    37    1
    94    37    39    1
    95    27    26    1
    96    26    25    1
    97    26    28    1
    98    25    22    1
    99    21    22    1
   100    22    23    1
   101    23    24    2
