@<TRIPOS>MOLECULE
tmp/4n6hA19.pdb
 80 77 0 0 0
SMALL
GASTEIGER

@<TRIPOS>ATOM
      1  N        -20.0140  -64.4870   84.5730 N.3   244  VAL244     -0.1245
      2  CA       -20.9010  -63.5000   83.8840 C.3   244  VAL244      0.1561
      3  C        -20.0540  -62.5660   82.9960 C.2   244  VAL244      0.2260
      4  O        -20.3630  -62.4040   81.8220 O.2   244  VAL244     -0.2867
      5  CB       -21.7360  -62.7150   84.8790 C.3   244  VAL244      0.0252
      6  CG1      -22.4720  -61.5210   84.2120 C.3   244  VAL244      0.0019
      7  CG2      -22.7280  -63.6620   85.5400 C.3   244  VAL244      0.0019
      8  N        -18.7270  -64.2550   80.0170 N.3   247  SER247     -0.1202
      9  CA       -19.7940  -64.4840   79.0320 C.3   247  SER247      0.2020
     10  C        -19.9330  -63.3550   78.0020 C.2   247  SER247      0.2619
     11  O        -20.5500  -63.5520   76.9240 O.2   247  SER247     -0.2717
     12  CB       -21.1360  -64.7100   79.7180 C.3   247  SER247      0.2103
     13  OG       -21.1350  -65.8590   80.5390 O.3   247  SER247     -0.2182
     14  N        -19.3910  -62.1910   78.3360 N.am  248  GLY248     -0.1956
     15  CA       -19.2760  -61.0650   77.3930 C.3   248  GLY248      0.1869
     16  C        -18.5610  -61.4730   76.1180 C.2   248  GLY248      0.2309
     17  O        -18.8920  -60.9810   75.0430 O.2   248  GLY248     -0.2863
     18  N        -20.5220  -65.8960   75.1020 N.3   251  VAL251     -0.1231
     19  CA       -21.7730  -65.9880   74.3480 C.3   251  VAL251      0.1678
     20  C        -21.5960  -65.5420   72.8810 C.2   251  VAL251      0.2434
     21  O        -22.0210  -66.2480   71.9930 O.2   251  VAL251     -0.2733
     22  CB       -22.9200  -65.2580   75.0540 C.3   251  VAL251      0.0265
     23  CG1      -24.1770  -65.2920   74.2020 C.3   251  VAL251      0.0020
     24  CG2      -23.1660  -65.9000   76.4120 C.3   251  VAL251      0.0020
     25  N        -20.8730  -64.4380   72.6290 N.am  252  PRO252     -0.2729
     26  CA       -20.5450  -64.1750   71.2160 C.3   252  PRO252      0.1401
     27  C        -19.7510  -65.3090   70.5520 C.2   252  PRO252      0.2269
     28  O        -19.9970  -65.6280   69.3950 O.2   252  PRO252     -0.2865
     29  CB       -19.7270  -62.8660   71.2910 C.3   252  PRO252      0.0296
     30  CG       -20.2690  -62.1950   72.4740 C.3   252  PRO252      0.0237
     31  CD       -20.5860  -63.2680   73.4730 C.3   252  PRO252      0.0939
     32  N        -22.1500  -68.0460   69.5880 N.3   255  VAL255     -0.1231
     33  CA       -22.9600  -67.6420   68.4360 C.3   255  VAL255      0.1692
     34  C        -22.1500  -67.7450   67.1450 C.2   255  VAL255      0.2591
     35  O        -22.6490  -68.2280   66.1420 O.2   255  VAL255     -0.2718
     36  CB       -23.4820  -66.2100   68.5960 C.3   255  VAL255      0.0266
     37  CG1      -24.2280  -65.7340   67.3630 C.3   255  VAL255      0.0020
     38  CG2      -24.3860  -66.1090   69.8080 C.3   255  VAL255      0.0020
     39  N        -20.9040  -67.2720   67.1860 N.am  256  MET256     -0.1979
     40  CA       -20.0920  -67.1670   65.9830 C.3   256  MET256      0.1605
     41  C        -19.4550  -68.4790   65.5320 C.2   256  MET256      0.2287
     42  O        -19.0370  -68.5980   64.3800 O.2   256  MET256     -0.2864
     43  CB       -19.0130  -66.0970   66.1890 C.3   256  MET256      0.0413
     44  CG       -19.5820  -64.7050   66.2240 C.3   256  MET256      0.0598
     45  SD       -18.2190  -63.5050   66.2380 S.3   256  MET256     -0.1393
     46  CE       -17.3230  -63.9350   67.7140 C.3   256  MET256      0.0692
     47  N        -19.0560  -71.9440   64.0750 N.3   258  VAL258     -0.1245
     48  CA       -19.7910  -72.6300   63.0320 C.3   258  VAL258      0.1561
     49  C        -18.9200  -73.6900   62.3770 C.2   258  VAL258      0.2260
     50  O        -17.6780  -73.6720   62.5270 O.2   258  VAL258     -0.2867
     51  CB       -20.3270  -71.6550   61.9510 C.3   258  VAL258      0.0252
     52  CG1      -21.4090  -70.7390   62.5040 C.3   258  VAL258      0.0019
     53  CG2      -19.1950  -70.8690   61.3140 C.3   258  VAL258      0.0019
     54  N        -17.0280  -67.3850   62.7900 N.3   271  GLN271     -0.1231
     55  CA       -17.4640  -66.5670   61.6760 C.3   271  GLN271      0.1698
     56  C        -17.7210  -65.1760   62.2150 C.2   271  GLN271      0.2592
     57  O        -18.7330  -64.9260   62.8550 O.2   271  GLN271     -0.2718
     58  CB       -18.7340  -67.1320   61.0220 C.3   271  GLN271      0.0381
     59  CG       -19.2460  -66.2920   59.8520 C.3   271  GLN271      0.0905
     60  CD       -18.2230  -66.2250   58.7390 C.2   271  GLN271      0.2608
     61  OE1      -17.9530  -67.2260   58.0690 O.2   271  GLN271     -0.2717
     62  NE2      -17.6110  -65.0560   58.5620 N.am  271  GLN271     -0.0878
     63  N        -16.7880  -64.2710   61.9610 N.am  272  PHE272     -0.1963
     64  CA       -16.9500  -62.8980   62.3900 C.3   272  PHE272      0.1756
     65  C        -17.8240  -62.1530   61.4010 C.2   272  PHE272      0.2461
     66  O        -17.8280  -62.4550   60.2130 O.2   272  PHE272     -0.2730
     67  CB       -15.5940  -62.2040   62.5120 C.3   272  PHE272      0.0574
     68  CG       -14.8000  -62.6170   63.7240 C.ar  272  PHE272     -0.0200
     69  CD1      -15.0250  -62.0140   64.9540 C.ar  272  PHE272     -0.0042
     70  CD2      -13.8480  -63.6050   63.6470 C.ar  272  PHE272     -0.0042
     71  CE1      -14.3060  -62.4010   66.0750 C.ar  272  PHE272     -0.0003
     72  CE2      -13.1310  -63.9990   64.7690 C.ar  272  PHE272     -0.0003
     73  CZ       -13.3510  -63.3870   65.9820 C.ar  272  PHE272     -0.0000
     74  N        -18.5580  -61.1560   61.8830 N.am  273  PRO273     -0.2727
     75  CA       -19.2490  -60.3350   60.8940 C.3   273  PRO273      0.1402
     76  C        -18.2510  -59.5800   59.9990 C.2   273  PRO273      0.2269
     77  O        -17.0570  -59.4680   60.3230 O.2   273  PRO273     -0.2865
     78  CB       -20.0930  -59.3760   61.7430 C.3   273  PRO273      0.0296
     79  CG       -19.4350  -59.3450   63.0800 C.3   273  PRO273      0.0237
     80  CD       -18.6810  -60.6390   63.2580 C.3   273  PRO273      0.0939
@<TRIPOS>BOND
     1    61    60    2
     2    62    60   am
     3    60    59    1
     4    59    58    1
     5    76    77    2
     6    76    75    1
     7    66    65    2
     8    75    78    1
     9    75    74    1
    10    58    55    1
    11    53    51    1
    12    65    74   am
    13    65    64    1
    14    55    56    1
    15    55    54    1
    16    78    79    1
    17    74    80    1
    18    51    52    1
    19    51    48    1
    20    63    56   am
    21    63    64    1
    22    56    57    2
    23    49    50    2
    24    49    48    1
    25    64    67    1
    26    67    68    1
    27    48    47    1
    28    79    80    1
    29    70    68   ar
    30    70    72   ar
    31    68    69   ar
    32    42    41    2
    33    72    73   ar
    34    69    71   ar
    35    41    40    1
    36    73    71   ar
    37    40    43    1
    38    40    39    1
    39    35    34    2
    40    43    44    1
    41    44    45    1
    42    45    46    1
    43    34    39   am
    44    34    33    1
    45    37    36    1
    46    33    36    1
    47    33    32    1
    48    36    38    1
    49    28    27    2
    50    27    26    1
    51    26    29    1
    52    26    25    1
    53    29    30    1
    54    21    20    2
    55    30    31    1
    56    25    20   am
    57    25    31    1
    58    20    19    1
    59    23    22    1
    60    19    22    1
    61    19    18    1
    62    17    16    2
    63    22    24    1
    64    16    15    1
    65    11    10    2
    66    15    14    1
    67    10    14   am
    68    10     9    1
    69     9    12    1
    70     9     8    1
    71    12    13    1
    72     4     3    2
    73     3     2    1
    74     2     1    1
    75     2     5    1
    76     6     5    1
    77     5     7    1
