@<TRIPOS>MOLECULE
tmp/4n6hA10.pdb
 130 123 0 0 0
SMALL
GASTEIGER

@<TRIPOS>ATOM
      1  N        -13.4110  -80.0320   97.8370 N.3   144  ILE144     -0.1231
      2  CA       -13.7680  -78.7460   98.3900 C.3   144  ILE144      0.1692
      3  C        -15.2430  -78.7700   98.8370 C.2   144  ILE144      0.2591
      4  O        -15.5880  -78.2290   99.9230 O.2   144  ILE144     -0.2718
      5  CB       -13.4370  -77.6070   97.3890 C.3   144  ILE144      0.0266
      6  CG1      -11.9080  -77.5370   97.1870 C.3   144  ILE144      0.0019
      7  CG2      -14.0310  -76.2650   97.8260 C.3   144  ILE144      0.0020
      8  CD1      -11.5000  -76.7130   95.9720 C.3   144  ILE144      0.0001
      9  N        -16.0950  -79.3930   98.0360 N.am  145  VAL145     -0.1980
     10  CA       -17.5250  -79.5080   98.3800 C.3   145  VAL145      0.1595
     11  C        -17.7150  -80.3300   99.6640 C.2   145  VAL145      0.2287
     12  O        -18.5660  -79.9990  100.4980 O.2   145  VAL145     -0.2864
     13  CB       -18.3420  -80.1160   97.2070 C.3   145  VAL145      0.0276
     14  CG1      -19.7120  -80.6250   97.6430 C.3   145  VAL145      0.0022
     15  CG2      -18.4900  -79.1050   96.0800 C.3   145  VAL145      0.0022
     16  N        -13.2520  -75.1440  102.8500 N.3   151  LYS151     -0.1245
     17  CA       -14.0130  -73.9890  102.3850 C.3   151  LYS151      0.1561
     18  C        -13.3900  -72.7120  102.9850 C.2   151  LYS151      0.2260
     19  O        -13.8070  -72.1890  104.0320 O.2   151  LYS151     -0.2867
     20  CB       -15.5090  -74.1680  102.6590 C.3   151  LYS151      0.0271
     21  CG       -16.0980  -75.2790  101.7980 C.3   151  LYS151      0.0035
     22  CD       -17.5700  -75.5620  102.0430 C.3   151  LYS151      0.0206
     23  CE       -17.9490  -76.9080  101.4490 C.3   151  LYS151      0.1093
     24  NZ       -17.3690  -78.0130  102.2240 N.3   151  LYS151     -0.1314
     25  N        -12.1240  -71.4880   97.3600 N.3   156  ILE156     -0.1245
     26  CA       -13.3140  -71.1820   96.5070 C.3   156  ILE156      0.1561
     27  C        -12.8650  -70.6500   95.1360 C.2   156  ILE156      0.2260
     28  O        -13.3360  -71.1130   94.1070 O.2   156  ILE156     -0.2867
     29  CB       -14.2740  -70.2190   97.2040 C.3   156  ILE156      0.0252
     30  CG1      -14.8380  -70.8660   98.4640 C.3   156  ILE156      0.0019
     31  CG2      -15.3930  -69.7850   96.2680 C.3   156  ILE156      0.0019
     32  CD1      -15.5290  -72.1740   98.2670 C.3   156  ILE156      0.0001
     33  N        -11.6070  -73.6580   93.3250 N.3   159  PHE159     -0.1227
     34  CA       -12.7500  -74.4070   92.7600 C.3   159  PHE159      0.1736
     35  C        -13.0880  -73.8900   91.3400 C.2   159  PHE159      0.2595
     36  O        -13.3280  -74.6740   90.3930 O.2   159  PHE159     -0.2718
     37  CB       -13.9800  -74.2940   93.6810 C.3   159  PHE159      0.0547
     38  CG       -15.1400  -75.1320   93.2290 C.ar  159  PHE159     -0.0202
     39  CD1      -15.9750  -74.6810   92.2100 C.ar  159  PHE159     -0.0042
     40  CD2      -15.3940  -76.3690   93.8040 C.ar  159  PHE159     -0.0042
     41  CE1      -17.0170  -75.4580   91.7520 C.ar  159  PHE159     -0.0003
     42  CE2      -16.5000  -77.1400   93.3800 C.ar  159  PHE159     -0.0003
     43  CZ       -17.2710  -76.6850   92.3410 C.ar  159  PHE159     -0.0000
     44  N        -13.0710  -72.5770   91.1920 N.am  160  ASN160     -0.1974
     45  CA       -13.3040  -71.9700   89.8810 C.3   160  ASN160      0.1688
     46  C        -12.2950  -72.3390   88.8300 C.2   160  ASN160      0.2292
     47  O        -12.6440  -72.5620   87.6790 O.2   160  ASN160     -0.2864
     48  CB       -13.3910  -70.4580   89.9880 C.3   160  ASN160      0.1181
     49  CG       -14.5280  -69.8870   89.1810 C.2   160  ASN160      0.2629
     50  OD1      -15.5930  -70.4880   89.0900 O.2   160  ASN160     -0.2716
     51  ND2      -14.3120  -68.6870   88.6150 N.am  160  ASN160     -0.0877
     52  N        -13.0140  -75.9990   87.8200 N.3   163  LEU163     -0.1245
     53  CA       -14.1750  -76.1510   86.9700 C.3   163  LEU163      0.1561
     54  C        -13.7880  -75.8510   85.5320 C.2   163  LEU163      0.2260
     55  O        -14.0560  -76.6620   84.6390 O.2   163  LEU163     -0.2867
     56  CB       -15.2870  -75.2320   87.4400 C.3   163  LEU163      0.0270
     57  CG       -16.5630  -75.1530   86.6060 C.3   163  LEU163      0.0019
     58  CD1      -17.1180  -76.5520   86.4210 C.3   163  LEU163      0.0001
     59  CD2      -17.5410  -74.2020   87.2860 C.3   163  LEU163      0.0001
     60  N        -13.8460  -69.6460   77.4650 N.3   200  TYR200     -0.1241
     61  CA       -14.1760  -69.5200   78.8700 C.3   200  TYR200      0.1605
     62  C        -13.0330  -69.9360   79.7670 C.2   200  TYR200      0.2264
     63  O        -12.7630  -69.3010   80.8090 O.2   200  TYR200     -0.2867
     64  CB       -15.4240  -70.3340   79.2370 C.3   200  TYR200      0.0534
     65  CG       -16.7660  -69.6120   79.0590 C.ar  200  TYR200     -0.0201
     66  CD1      -17.1730  -68.6380   79.9420 C.ar  200  TYR200     -0.0009
     67  CD2      -17.6330  -69.9760   78.0480 C.ar  200  TYR200     -0.0009
     68  CE1      -18.3920  -67.9780   79.7880 C.ar  200  TYR200      0.0417
     69  CE2      -18.8550  -69.3580   77.8890 C.ar  200  TYR200      0.0417
     70  CZ       -19.2370  -68.3590   78.7650 C.ar  200  TYR200      0.1957
     71  OH       -20.4790  -67.7630   78.6340 O.3   200  TYR200     -0.2866
     72  N        -17.3880  -66.9240   96.5140 N.3   236  LYS236     -0.1245
     73  CA       -18.3260  -67.6510   95.6810 C.3   236  LYS236      0.1561
     74  C        -19.0930  -66.6930   94.7490 C.2   236  LYS236      0.2260
     75  O        -19.2670  -66.9880   93.5740 O.2   236  LYS236     -0.2867
     76  CB       -19.2680  -68.4550   96.5770 C.3   236  LYS236      0.0271
     77  CG       -20.3240  -69.2250   95.8290 C.3   236  LYS236      0.0035
     78  CD       -21.0850  -70.1590   96.7770 C.3   236  LYS236      0.0206
     79  CE       -20.2970  -71.4360   97.1100 C.3   236  LYS236      0.1093
     80  NZ       -18.9750  -71.2320   97.7890 N.3   236  LYS236     -0.1314
     81  N        -16.8110  -65.5620   92.0040 N.3   239  ASN239     -0.1225
     82  CA       -16.7820  -66.5800   90.9540 C.3   239  ASN239      0.1785
     83  C        -17.9080  -66.4430   89.9420 C.2   239  ASN239      0.2597
     84  O        -17.6980  -66.5500   88.7450 O.2   239  ASN239     -0.2718
     85  CB       -16.7890  -68.0040   91.5320 C.3   239  ASN239      0.1169
     86  CG       -15.4360  -68.4250   92.1130 C.2   239  ASN239      0.2627
     87  OD1      -14.3860  -67.7970   91.8670 O.2   239  ASN239     -0.2716
     88  ND2      -15.4650  -69.5190   92.8940 N.am  239  ASN239     -0.0877
     89  N        -19.1260  -66.2350   90.4180 N.am  240  ILE240     -0.1980
     90  CA       -20.2470  -66.0770   89.5260 C.3   240  ILE240      0.1595
     91  C        -20.0430  -64.8390   88.6500 C.2   240  ILE240      0.2287
     92  O        -20.2150  -64.9110   87.4450 O.2   240  ILE240     -0.2864
     93  CB       -21.5470  -65.9440   90.3420 C.3   240  ILE240      0.0276
     94  CG1      -21.8120  -67.2660   91.0720 C.3   240  ILE240      0.0022
     95  CG2      -22.7120  -65.5500   89.4440 C.3   240  ILE240      0.0022
     96  CD1      -22.7310  -67.1070   92.2670 C.3   240  ILE240      0.0001
     97  N        -17.7790  -65.6090   85.7470 N.3   243  TRP243     -0.1227
     98  CA       -18.4090  -66.3130   84.6440 C.3   243  TRP243      0.1737
     99  C        -19.3380  -65.4010   83.8720 C.2   243  TRP243      0.2595
    100  O        -19.4180  -65.5130   82.6560 O.2   243  TRP243     -0.2718
    101  CB       -19.1350  -67.5820   85.1170 C.3   243  TRP243      0.0564
    102  CG       -18.1980  -68.6940   85.4520 C.ar  243  TRP243      0.0003
    103  CD1      -17.6540  -68.9680   86.6560 C.ar  243  TRP243      0.0946
    104  CD2      -17.7180  -69.6950   84.5640 C.ar  243  TRP243      0.0152
    105  NE1      -16.8040  -70.0410   86.5770 N.ar  243  TRP243     -0.2442
    106  CE2      -16.8600  -70.5340   85.3050 C.ar  243  TRP243      0.0810
    107  CE3      -17.9340  -69.9630   83.2090 C.ar  243  TRP243      0.0012
    108  CZ2      -16.1630  -71.6100   84.7200 C.ar  243  TRP243      0.0191
    109  CZ3      -17.2820  -71.0420   82.6330 C.ar  243  TRP243      0.0001
    110  CH2      -16.3680  -71.8320   83.3860 C.ar  243  TRP243      0.0015
    111  N        -20.0140  -64.4870   84.5730 N.am  244  VAL244     -0.1980
    112  CA       -20.9010  -63.5000   83.8840 C.3   244  VAL244      0.1595
    113  C        -20.0540  -62.5660   82.9960 C.2   244  VAL244      0.2287
    114  O        -20.3630  -62.4040   81.8220 O.2   244  VAL244     -0.2864
    115  CB       -21.7360  -62.7150   84.8790 C.3   244  VAL244      0.0276
    116  CG1      -22.4720  -61.5210   84.2120 C.3   244  VAL244      0.0022
    117  CG2      -22.7280  -63.6620   85.5400 C.3   244  VAL244      0.0022
    118  N        -18.7270  -64.2550   80.0170 N.3   247  SER247     -0.1217
    119  CA       -19.7940  -64.4840   79.0320 C.3   247  SER247      0.1889
    120  C        -19.9330  -63.3550   78.0020 C.2   247  SER247      0.2288
    121  O        -20.5500  -63.5520   76.9240 O.2   247  SER247     -0.2866
    122  CB       -21.1360  -64.7100   79.7180 C.3   247  SER247      0.2089
    123  OG       -21.1350  -65.8590   80.5390 O.3   247  SER247     -0.2183
    124  N        -20.5220  -65.8960   75.1020 N.3   251  VAL251     -0.1245
    125  CA       -21.7730  -65.9880   74.3480 C.3   251  VAL251      0.1561
    126  C        -21.5960  -65.5420   72.8810 C.2   251  VAL251      0.2260
    127  O        -22.0210  -66.2480   71.9930 O.2   251  VAL251     -0.2867
    128  CB       -22.9200  -65.2580   75.0540 C.3   251  VAL251      0.0252
    129  CG1      -24.1770  -65.2920   74.2020 C.3   251  VAL251      0.0019
    130  CG2      -23.1660  -65.9000   76.4120 C.3   251  VAL251      0.0019
@<TRIPOS>BOND
     1   127   126    2
     2   126   125    1
     3   129   128    1
     4   125   128    1
     5   125   124    1
     6   128   130    1
     7   121   120    2
     8    60    61    1
     9    69    67   ar
    10    69    70   ar
    11   120   119    1
    12    67    65   ar
    13    71    70    1
    14    70    68   ar
    15    61    64    1
    16    61    62    1
    17   119   122    1
    18   119   118    1
    19    65    64    1
    20    65    66   ar
    21   122   123    1
    22    62    63    2
    23    68    66   ar
    24   114   113    2
    25   109   107   ar
    26   109   110   ar
    27   100    99    2
    28   113   112    1
    29   107   104   ar
    30   110   108   ar
    31    99   111   am
    32    99    98    1
    33   112   111    1
    34   112   115    1
    35   116   115    1
    36   104   106   ar
    37   104   102   ar
    38    55    54    2
    39    98   101    1
    40    98    97    1
    41   108   106   ar
    42   115   117    1
    43   101   102    1
    44   106   105   ar
    45   102   103   ar
    46    54    53    1
    47    58    57    1
    48   105   103   ar
    49    57    59    1
    50    57    56    1
    51    53    56    1
    52    53    52    1
    53    92    91    2
    54    47    46    2
    55    51    49   am
    56    91    90    1
    57    84    83    2
    58    46    45    1
    59    50    49    2
    60    49    48    1
    61    95    93    1
    62    90    93    1
    63    90    89    1
    64    45    48    1
    65    45    44    1
    66    83    89   am
    67    83    82    1
    68    93    94    1
    69    36    35    2
    70    82    85    1
    71    82    81    1
    72    94    96    1
    73    44    35   am
    74    35    34    1
    75    85    86    1
    76    41    39   ar
    77    41    43   ar
    78    87    86    2
    79    86    88   am
    80    39    38   ar
    81    43    42   ar
    82    34    33    1
    83    34    37    1
    84    38    37    1
    85    38    40   ar
    86    42    40   ar
    87    75    74    2
    88    28    27    2
    89    74    73    1
    90    27    26    1
    91    73    72    1
    92    73    76    1
    93    77    76    1
    94    77    78    1
    95     8     6    1
    96    15    13    1
    97    31    29    1
    98    26    29    1
    99    26    25    1
   100    78    79    1
   101    79    80    1
   102     6     5    1
   103    29    30    1
   104    13    14    1
   105    13    10    1
   106     5     7    1
   107     5     2    1
   108     1     2    1
   109     9    10    1
   110     9     3   am
   111    32    30    1
   112    10    11    1
   113     2     3    1
   114     3     4    2
   115    11    12    2
   116    23    22    1
   117    23    24    1
   118    21    22    1
   119    21    20    1
   120    17    20    1
   121    17    16    1
   122    17    18    1
   123    18    19    2
