@<TRIPOS>MOLECULE
tmp/4n6hA18.pdb
 89 84 0 0 0
SMALL
GASTEIGER

@<TRIPOS>ATOM
      1  N         -9.0610  -64.3070   85.0540 N.3   207  PHE207     -0.1241
      2  CA        -9.8650  -63.4800   85.9570 C.3   207  PHE207      0.1605
      3  C         -9.8460  -64.0300   87.3750 C.2   207  PHE207      0.2264
      4  O         -9.7350  -63.2880   88.3360 O.2   207  PHE207     -0.2867
      5  CB       -11.3300  -63.3650   85.4760 C.3   207  PHE207      0.0534
      6  CG       -11.5340  -62.5940   84.2140 C.ar  207  PHE207     -0.0203
      7  CD1      -10.5290  -61.8330   83.6180 C.ar  207  PHE207     -0.0042
      8  CD2      -12.8040  -62.6070   83.6210 C.ar  207  PHE207     -0.0042
      9  CE1      -10.7790  -61.1190   82.4510 C.ar  207  PHE207     -0.0003
     10  CE2      -13.0550  -61.8780   82.4530 C.ar  207  PHE207     -0.0003
     11  CZ       -12.0400  -61.1430   81.8740 C.ar  207  PHE207     -0.0000
     12  N         -6.4630  -63.4170   89.0090 N.3   210  THR210     -0.1203
     13  CA        -6.3460  -62.0020   89.3750 C.3   210  THR210      0.1994
     14  C         -7.0670  -61.7990   90.7230 C.2   210  THR210      0.2617
     15  O         -6.5380  -61.1720   91.6230 O.2   210  THR210     -0.2717
     16  CB        -6.9150  -61.0820   88.3000 C.3   210  THR210      0.1784
     17  OG1       -6.2450  -61.3160   87.0610 O.3   210  THR210     -0.2211
     18  CG2       -6.7970  -59.5890   88.6760 C.3   210  THR210      0.0376
     19  N         -8.3110  -62.2780   90.8430 N.am  211  MET211     -0.1979
     20  CA        -9.0180  -62.1500   92.0910 C.3   211  MET211      0.1605
     21  C         -8.3680  -62.9360   93.2160 C.2   211  MET211      0.2287
     22  O         -8.3580  -62.4490   94.3340 O.2   211  MET211     -0.2864
     23  CB       -10.5210  -62.5150   91.9210 C.3   211  MET211      0.0413
     24  CG       -11.2240  -61.6120   90.9280 C.3   211  MET211      0.0598
     25  SD       -10.9800  -59.8270   91.1940 S.3   211  MET211     -0.1393
     26  CE       -11.7920  -59.7100   92.7730 C.3   211  MET211      0.0692
     27  N        -18.0540  -63.6900   93.7530 N.3   238  ILE238     -0.1245
     28  CA       -17.0690  -63.2310   92.7670 C.3   238  ILE238      0.1561
     29  C        -16.8500  -64.2670   91.6780 C.2   238  ILE238      0.2260
     30  O        -16.7620  -63.9020   90.5380 O.2   238  ILE238     -0.2867
     31  CB       -15.7850  -62.7980   93.4620 C.3   238  ILE238      0.0252
     32  CG1      -16.0960  -61.5160   94.2200 C.3   238  ILE238      0.0019
     33  CG2      -14.6670  -62.5540   92.4490 C.3   238  ILE238      0.0019
     34  CD1      -15.0700  -61.1340   95.2230 C.3   238  ILE238      0.0001
     35  N        -19.6410  -63.7170   89.2620 N.3   241  CYS241     -0.1221
     36  CA       -19.3410  -62.5000   88.4890 C.3   241  CYS241      0.1808
     37  C        -18.2840  -62.7520   87.3950 C.2   241  CYS241      0.2601
     38  O        -18.3720  -62.2000   86.2910 O.2   241  CYS241     -0.2717
     39  CB       -18.8420  -61.3830   89.3740 C.3   241  CYS241      0.0970
     40  SG       -20.0690  -60.7470   90.5470 S.3   241  CYS241     -0.0800
     41  N        -17.2750  -63.5490   87.7400 N.am  242  ILE242     -0.1979
     42  CA       -16.2600  -63.9480   86.7690 C.3   242  ILE242      0.1595
     43  C        -16.8790  -64.6400   85.5270 C.2   242  ILE242      0.2287
     44  O        -16.5350  -64.3240   84.3830 O.2   242  ILE242     -0.2864
     45  CB       -15.1620  -64.7890   87.4650 C.3   242  ILE242      0.0276
     46  CG1      -14.2630  -63.8760   88.3280 C.3   242  ILE242      0.0022
     47  CG2      -14.3530  -65.5940   86.4370 C.3   242  ILE242      0.0022
     48  CD1      -13.3380  -64.6190   89.2660 C.3   242  ILE242      0.0001
     49  N        -18.9820  -62.0020   83.5590 N.3   245  LEU245     -0.1245
     50  CA       -18.0630  -61.1180   82.7910 C.3   245  LEU245      0.1561
     51  C        -17.4510  -61.8720   81.6170 C.2   245  LEU245      0.2260
     52  O        -17.4830  -61.3850   80.4820 O.2   245  LEU245     -0.2867
     53  CB       -16.9580  -60.5570   83.6860 C.3   245  LEU245      0.0270
     54  CG       -15.9660  -59.5450   83.0670 C.3   245  LEU245      0.0019
     55  CD1      -16.7080  -58.3170   82.5480 C.3   245  LEU245      0.0001
     56  CD2      -14.8820  -59.1660   84.0820 C.3   245  LEU245      0.0001
     57  N         -6.8370  -57.8470   77.5710 N.3   290  PHE290     -0.1241
     58  CA        -7.6850  -58.0540   78.7290 C.3   290  PHE290      0.1605
     59  C         -7.6870  -59.4460   79.3090 C.2   290  PHE290      0.2264
     60  O         -8.0850  -59.6460   80.4660 O.2   290  PHE290     -0.2867
     61  CB        -9.1010  -57.4740   78.4450 C.3   290  PHE290      0.0534
     62  CG        -9.0660  -56.0020   78.1380 C.ar  290  PHE290     -0.0203
     63  CD1       -8.7100  -55.0860   79.1250 C.ar  290  PHE290     -0.0042
     64  CD2       -9.3230  -55.5320   76.8670 C.ar  290  PHE290     -0.0042
     65  CE1       -8.6340  -53.7310   78.8460 C.ar  290  PHE290     -0.0003
     66  CE2       -9.2750  -54.1710   76.5810 C.ar  290  PHE290     -0.0003
     67  CZ        -8.9160  -53.2640   77.5710 C.ar  290  PHE290     -0.0000
     68  N         -3.1690  -56.8820   80.8880 N.3   294  VAL294     -0.1231
     69  CA        -3.7800  -56.0900   81.9540 C.3   294  VAL294      0.1678
     70  C         -3.8570  -56.9030   83.2630 C.2   294  VAL294      0.2434
     71  O         -3.3440  -56.4630   84.2860 O.2   294  VAL294     -0.2733
     72  CB        -5.1420  -55.5080   81.5330 C.3   294  VAL294      0.0265
     73  CG1       -5.8380  -54.8360   82.7100 C.3   294  VAL294      0.0020
     74  CG2       -4.9460  -54.5060   80.4160 C.3   294  VAL294      0.0020
     75  N         -4.3870  -58.1460   83.2330 N.am  295  PRO295     -0.2729
     76  CA        -4.4380  -58.8790   84.5190 C.3   295  PRO295      0.1401
     77  C         -3.0640  -59.2390   85.0480 C.2   295  PRO295      0.2269
     78  O         -2.8470  -59.2120   86.2430 O.2   295  PRO295     -0.2865
     79  CB        -5.2810  -60.1570   84.2080 C.3   295  PRO295      0.0296
     80  CG        -5.3140  -60.2250   82.7340 C.3   295  PRO295      0.0237
     81  CD        -5.1440  -58.8170   82.1760 C.3   295  PRO295      0.0939
     82  N         -1.7650  -56.2470   86.9720 N.3   298  ILE298     -0.1245
     83  CA        -2.4470  -56.2160   88.3140 C.3   298  ILE298      0.1561
     84  C         -1.7780  -57.2340   89.2630 C.2   298  ILE298      0.2260
     85  O         -1.4170  -56.9530   90.4020 O.2   298  ILE298     -0.2867
     86  CB        -3.9840  -56.4790   88.1700 C.3   298  ILE298      0.0252
     87  CG1       -4.6830  -55.3900   87.3640 C.3   298  ILE298      0.0019
     88  CG2       -4.6410  -56.6050   89.5540 C.3   298  ILE298      0.0019
     89  CD1       -6.1280  -55.6610   87.0220 C.3   298  ILE298      0.0001
@<TRIPOS>BOND
     1    66    64   ar
     2    66    67   ar
     3    64    62   ar
     4    67    65   ar
     5    57    58    1
     6    62    61    1
     7    62    63   ar
     8    61    58    1
     9    58    59    1
    10    65    63   ar
    11    59    60    2
    12    74    72    1
    13    52    51    2
    14    68    69    1
    15    72    69    1
    16    72    73    1
    17    51    50    1
    18    11     9   ar
    19    11    10   ar
    20    69    70    1
    21    81    80    1
    22    81    75    1
    23     9     7   ar
    24    10     8   ar
    25    55    54    1
    26    80    79    1
    27    50    49    1
    28    50    53    1
    29    54    53    1
    30    54    56    1
    31    75    70   am
    32    75    76    1
    33    70    71    2
    34     7     6   ar
    35     8     6   ar
    36    79    76    1
    37     6     5    1
    38    44    43    2
    39    76    77    1
    40    77    78    2
    41     1     2    1
    42     5     2    1
    43    43    42    1
    44     2     3    1
    45    38    37    2
    46    47    45    1
    47    42    45    1
    48    42    41    1
    49    82    83    1
    50    89    87    1
    51    17    16    1
    52    87    86    1
    53     3     4    2
    54    37    41   am
    55    37    36    1
    56    45    46    1
    57    86    83    1
    58    86    88    1
    59    16    18    1
    60    16    13    1
    61    83    84    1
    62    46    48    1
    63    36    35    1
    64    36    39    1
    65    12    13    1
    66    84    85    2
    67    39    40    1
    68    13    14    1
    69    30    29    2
    70    14    19   am
    71    14    15    2
    72    19    20    1
    73    24    25    1
    74    24    23    1
    75    25    26    1
    76    29    28    1
    77    23    20    1
    78    20    21    1
    79    33    31    1
    80    28    31    1
    81    28    27    1
    82    21    22    2
    83    31    32    1
    84    32    34    1
