@<TRIPOS>MOLECULE
tmp/4n6hA11.pdb
 114 107 0 0 0
SMALL
GASTEIGER

@<TRIPOS>ATOM
      1  N        -13.6120  -78.6110   82.3450 N.3   167  LEU167     -0.1245
      2  CA       -14.2740  -78.3490   81.0790 C.3   167  LEU167      0.1561
      3  C        -13.2800  -78.3830   79.9190 C.2   167  LEU167      0.2260
      4  O        -13.5170  -79.0640   78.9240 O.2   167  LEU167     -0.2867
      5  CB       -15.0250  -77.0250   81.1310 C.3   167  LEU167      0.0270
      6  CG       -16.2610  -77.0310   82.0380 C.3   167  LEU167      0.0019
      7  CD1      -16.6630  -75.6070   82.3600 C.3   167  LEU167      0.0001
      8  CD2      -17.3960  -77.7970   81.3960 C.3   167  LEU167      0.0001
      9  N        -22.0090  -79.2870   64.3800 N.3   188  GLU188     -0.1231
     10  CA       -21.9170  -77.8770   64.7590 C.3   188  GLU188      0.1699
     11  C        -22.1150  -77.5850   66.2440 C.2   188  GLU188      0.2592
     12  O        -21.4390  -76.7220   66.7650 O.2   188  GLU188     -0.2718
     13  CB       -22.8320  -77.0170   63.9070 C.3   188  GLU188      0.0402
     14  CG       -22.5520  -75.5440   64.1210 C.3   188  GLU188      0.1161
     15  CD       -23.2250  -74.6650   63.1060 C.2   188  GLU188      0.3649
     16  OE1      -22.5590  -74.3420   62.0920 O.co2 188  GLU188     -0.2457
     17  OE2      -24.4310  -74.3480   63.3250 O.co2 188  GLU188     -0.2457
     18  N        -23.0090  -78.3050   66.9200 N.am  189  LEU189     -0.1980
     19  CA       -23.2670  -78.0730   68.3220 C.3   189  LEU189      0.1596
     20  C        -22.0030  -78.3530   69.1580 C.2   189  LEU189      0.2287
     21  O        -21.6670  -77.5560   70.0410 O.2   189  LEU189     -0.2864
     22  CB       -24.4290  -78.9390   68.8030 C.3   189  LEU189      0.0297
     23  CG       -24.8920  -78.7780   70.2440 C.3   189  LEU189      0.0022
     24  CD1      -25.2340  -77.3380   70.5920 C.3   189  LEU189      0.0001
     25  CD2      -26.1160  -79.6650   70.4680 C.3   189  LEU189      0.0001
     26  N        -19.5290  -75.5270   68.7050 N.3   192  LYS192     -0.1231
     27  CA       -19.8690  -74.4200   69.5670 C.3   192  LYS192      0.1693
     28  C        -19.4470  -74.6610   71.0210 C.2   192  LYS192      0.2591
     29  O        -18.8770  -73.7600   71.6760 O.2   192  LYS192     -0.2718
     30  CB       -21.3750  -74.1260   69.4870 C.3   192  LYS192      0.0285
     31  CG       -21.8300  -73.5530   68.1410 C.3   192  LYS192      0.0035
     32  CD       -23.2970  -73.1720   68.1810 C.3   192  LYS192      0.0206
     33  CE       -23.7630  -72.5280   66.8870 C.3   192  LYS192      0.1093
     34  NZ       -23.2290  -71.1670   66.6310 N.3   192  LYS192     -0.1314
     35  N        -19.6960  -75.8690   71.5230 N.am  193  ALA193     -0.1980
     36  CA       -19.3150  -76.2260   72.8710 C.3   193  ALA193      0.1597
     37  C        -17.7930  -76.1210   73.0980 C.2   193  ALA193      0.2287
     38  O        -17.3330  -75.5350   74.0770 O.2   193  ALA193     -0.2864
     39  CB       -19.8060  -77.6260   73.2120 C.3   193  ALA193      0.0319
     40  N        -16.4730  -72.4580   72.7060 N.3   196  SER196     -0.1202
     41  CA       -16.8950  -71.6660   73.8510 C.3   196  SER196      0.2020
     42  C        -16.1030  -72.0190   75.0980 C.2   196  SER196      0.2618
     43  O        -15.6270  -71.1260   75.8130 O.2   196  SER196     -0.2717
     44  CB       -18.4020  -71.8450   74.1700 C.3   196  SER196      0.2103
     45  OG       -19.1840  -71.3790   73.0910 O.3   196  SER196     -0.2182
     46  N        -15.9900  -73.3200   75.3770 N.am  197  ILE197     -0.1979
     47  CA       -15.2370  -73.7840   76.5220 C.3   197  ILE197      0.1595
     48  C        -13.7970  -73.2540   76.4400 C.2   197  ILE197      0.2287
     49  O        -13.2560  -72.7860   77.4260 O.2   197  ILE197     -0.2864
     50  CB       -15.2410  -75.3380   76.6520 C.3   197  ILE197      0.0276
     51  CG1      -16.6000  -75.7750   77.2020 C.3   197  ILE197      0.0022
     52  CG2      -14.1390  -75.8190   77.5750 C.3   197  ILE197      0.0022
     53  CD1      -16.8710  -77.2400   77.0710 C.3   197  ILE197      0.0001
     54  N        -13.8460  -69.6460   77.4650 N.3   200  TYR200     -0.1241
     55  CA       -14.1760  -69.5200   78.8700 C.3   200  TYR200      0.1605
     56  C        -13.0330  -69.9360   79.7670 C.2   200  TYR200      0.2264
     57  O        -12.7630  -69.3010   80.8090 O.2   200  TYR200     -0.2867
     58  CB       -15.4240  -70.3340   79.2370 C.3   200  TYR200      0.0534
     59  CG       -16.7660  -69.6120   79.0590 C.ar  200  TYR200     -0.0201
     60  CD1      -17.1730  -68.6380   79.9420 C.ar  200  TYR200     -0.0009
     61  CD2      -17.6330  -69.9760   78.0480 C.ar  200  TYR200     -0.0009
     62  CE1      -18.3920  -67.9780   79.7880 C.ar  200  TYR200      0.0417
     63  CE2      -18.8550  -69.3580   77.8890 C.ar  200  TYR200      0.0417
     64  CZ       -19.2370  -68.3590   78.7650 C.ar  200  TYR200      0.1957
     65  OH       -20.4790  -67.7630   78.6340 O.3   200  TYR200     -0.2866
     66  N        -17.7790  -65.6090   85.7470 N.3   243  TRP243     -0.1241
     67  CA       -18.4090  -66.3130   84.6440 C.3   243  TRP243      0.1605
     68  C        -19.3380  -65.4010   83.8720 C.2   243  TRP243      0.2264
     69  O        -19.4180  -65.5130   82.6560 O.2   243  TRP243     -0.2867
     70  CB       -19.1350  -67.5820   85.1170 C.3   243  TRP243      0.0550
     71  CG       -18.1980  -68.6940   85.4520 C.ar  243  TRP243      0.0003
     72  CD1      -17.6540  -68.9680   86.6560 C.ar  243  TRP243      0.0946
     73  CD2      -17.7180  -69.6950   84.5640 C.ar  243  TRP243      0.0152
     74  NE1      -16.8040  -70.0410   86.5770 N.ar  243  TRP243     -0.2442
     75  CE2      -16.8600  -70.5340   85.3050 C.ar  243  TRP243      0.0810
     76  CE3      -17.9340  -69.9630   83.2090 C.ar  243  TRP243      0.0012
     77  CZ2      -16.1630  -71.6100   84.7200 C.ar  243  TRP243      0.0191
     78  CZ3      -17.2820  -71.0420   82.6330 C.ar  243  TRP243      0.0001
     79  CH2      -16.3680  -71.8320   83.3860 C.ar  243  TRP243      0.0015
     80  N        -18.7270  -64.2550   80.0170 N.3   247  SER247     -0.1217
     81  CA       -19.7940  -64.4840   79.0320 C.3   247  SER247      0.1889
     82  C        -19.9330  -63.3550   78.0020 C.2   247  SER247      0.2288
     83  O        -20.5500  -63.5520   76.9240 O.2   247  SER247     -0.2866
     84  CB       -21.1360  -64.7100   79.7180 C.3   247  SER247      0.2089
     85  OG       -21.1350  -65.8590   80.5390 O.3   247  SER247     -0.2183
     86  N        -20.5220  -65.8960   75.1020 N.3   251  VAL251     -0.1245
     87  CA       -21.7730  -65.9880   74.3480 C.3   251  VAL251      0.1561
     88  C        -21.5960  -65.5420   72.8810 C.2   251  VAL251      0.2260
     89  O        -22.0210  -66.2480   71.9930 O.2   251  VAL251     -0.2867
     90  CB       -22.9200  -65.2580   75.0540 C.3   251  VAL251      0.0252
     91  CG1      -24.1770  -65.2920   74.2020 C.3   251  VAL251      0.0019
     92  CG2      -23.1660  -65.9000   76.4120 C.3   251  VAL251      0.0019
     93  N        -19.9800  -68.5590   71.2910 N.3   254  MET254     -0.1230
     94  CA       -21.0590  -69.5380   71.1450 C.3   254  MET254      0.1702
     95  C        -21.8510  -69.3060   69.8570 C.2   254  MET254      0.2592
     96  O        -22.1680  -70.2490   69.1260 O.2   254  MET254     -0.2718
     97  CB       -22.0170  -69.3820   72.3410 C.3   254  MET254      0.0401
     98  CG       -22.5840  -70.6520   72.9580 C.3   254  MET254      0.0596
     99  SD       -23.2640  -70.2680   74.5970 S.3   254  MET254     -0.1393
    100  CE       -21.8950  -70.6590   75.6760 C.3   254  MET254      0.0692
    101  N        -22.1500  -68.0460   69.5880 N.am  255  VAL255     -0.1980
    102  CA       -22.9600  -67.6420   68.4360 C.3   255  VAL255      0.1595
    103  C        -22.1500  -67.7450   67.1450 C.2   255  VAL255      0.2287
    104  O        -22.6490  -68.2280   66.1420 O.2   255  VAL255     -0.2864
    105  CB       -23.4820  -66.2100   68.5960 C.3   255  VAL255      0.0276
    106  CG1      -24.2280  -65.7340   67.3630 C.3   255  VAL255      0.0022
    107  CG2      -24.3860  -66.1090   69.8080 C.3   255  VAL255      0.0022
    108  N        -19.0560  -71.9440   64.0750 N.3   258  VAL258     -0.1245
    109  CA       -19.7910  -72.6300   63.0320 C.3   258  VAL258      0.1561
    110  C        -18.9200  -73.6900   62.3770 C.2   258  VAL258      0.2260
    111  O        -17.6780  -73.6720   62.5270 O.2   258  VAL258     -0.2867
    112  CB       -20.3270  -71.6550   61.9510 C.3   258  VAL258      0.0252
    113  CG1      -21.4090  -70.7390   62.5040 C.3   258  VAL258      0.0019
    114  CG2      -19.1950  -70.8690   61.3140 C.3   258  VAL258      0.0019
@<TRIPOS>BOND
     1   114   112    1
     2   112   113    1
     3   112   109    1
     4    16    15   ar
     5   110   111    2
     6   110   109    1
     7   109   108    1
     8    15    17   ar
     9    15    14    1
    10    13    14    1
    11    13    10    1
    12     9    10    1
    13    10    11    1
    14   104   103    2
    15    11    12    2
    16    11    18   am
    17    34    33    1
    18    33    32    1
    19    18    19    1
    20   103   102    1
    21   106   105    1
    22    31    32    1
    23    31    30    1
    24    19    22    1
    25    19    20    1
    26   102   105    1
    27   102   101    1
    28   105   107    1
    29    26    27    1
    30    22    23    1
    31    96    95    2
    32    20    21    2
    33    30    27    1
    34    27    28    1
    35   101    95   am
    36    95    94    1
    37    23    25    1
    38    23    24    1
    39    28    35   am
    40    28    29    2
    41    94    93    1
    42    94    97    1
    43    35    36    1
    44    89    88    2
    45    97    98    1
    46    40    41    1
    47    36    37    1
    48    36    39    1
    49    88    87    1
    50    98    99    1
    51    45    44    1
    52    37    38    2
    53    41    44    1
    54    41    42    1
    55    91    90    1
    56    87    90    1
    57    87    86    1
    58    99   100    1
    59    90    92    1
    60    42    46   am
    61    42    43    2
    62    46    47    1
    63    48    47    1
    64    48    49    2
    65    47    50    1
    66    50    51    1
    67    50    52    1
    68    83    82    2
    69    53    51    1
    70    54    55    1
    71    63    61   ar
    72    63    64   ar
    73    82    81    1
    74    61    59   ar
    75    65    64    1
    76    64    62   ar
    77    55    58    1
    78    55    56    1
    79     4     3    2
    80    81    84    1
    81    81    80    1
    82    59    58    1
    83    59    60   ar
    84    84    85    1
    85    56    57    2
    86    62    60   ar
    87     3     2    1
    88     2     5    1
    89     2     1    1
    90     5     6    1
    91     8     6    1
    92     6     7    1
    93    78    76   ar
    94    78    79   ar
    95    69    68    2
    96    76    73   ar
    97    79    77   ar
    98    68    67    1
    99    73    75   ar
   100    73    71   ar
   101    67    70    1
   102    67    66    1
   103    77    75   ar
   104    70    71    1
   105    75    74   ar
   106    71    72   ar
   107    74    72   ar
