@<TRIPOS>MOLECULE
tmp/4n6hA08.pdb
 163 159 0 0 0
SMALL
GASTEIGER

@<TRIPOS>ATOM
      1  N        -15.3730  -74.6410   71.2240 N.3   195  LEU195     -0.1245
      2  CA       -14.8660  -73.2560   71.0790 C.3   195  LEU195      0.1561
      3  C        -15.2230  -72.3720   72.2520 C.2   195  LEU195      0.2260
      4  O        -14.3500  -71.6410   72.7960 O.2   195  LEU195     -0.2867
      5  CB       -15.2770  -72.6220   69.7550 C.3   195  LEU195      0.0270
      6  CG       -14.3660  -72.9290   68.5830 C.3   195  LEU195      0.0019
      7  CD1      -14.9540  -72.3630   67.2920 C.3   195  LEU195      0.0001
      8  CD2      -13.0000  -72.2900   68.8290 C.3   195  LEU195      0.0001
      9  N        -13.2160  -73.3220   75.2460 N.3   198  ASP198     -0.1225
     10  CA       -11.8370  -72.8970   75.0730 C.3   198  ASP198      0.1805
     11  C        -11.6170  -71.4180   75.4860 C.2   198  ASP198      0.2597
     12  O        -10.6670  -71.0690   76.2300 O.2   198  ASP198     -0.2718
     13  CB       -11.3720  -73.1530   73.6570 C.3   198  ASP198      0.1424
     14  CG        -9.8930  -73.4140   73.6130 C.2   198  ASP198      0.3668
     15  OD1       -9.4220  -74.1860   74.4780 O.co2 198  ASP198     -0.2456
     16  OD2       -9.2270  -72.8900   72.7220 O.co2 198  ASP198     -0.2456
     17  N        -12.5240  -70.5550   75.0620 N.am  199  TYR199     -0.1976
     18  CA       -12.4920  -69.1810   75.4500 C.3   199  TYR199      0.1639
     19  C        -12.8620  -68.9250   76.9260 C.2   199  TYR199      0.2290
     20  O        -12.2740  -68.0860   77.5630 O.2   199  TYR199     -0.2864
     21  CB       -13.3620  -68.3420   74.5140 C.3   199  TYR199      0.0560
     22  CG       -12.6750  -68.0130   73.2100 C.ar  199  TYR199     -0.0198
     23  CD1      -12.6160  -68.9390   72.1810 C.ar  199  TYR199     -0.0009
     24  CD2      -12.0150  -66.7850   73.0360 C.ar  199  TYR199     -0.0009
     25  CE1      -11.9570  -68.6410   70.9990 C.ar  199  TYR199      0.0417
     26  CE2      -11.3740  -66.4700   71.8450 C.ar  199  TYR199      0.0417
     27  CZ       -11.3590  -67.3970   70.8390 C.ar  199  TYR199      0.1957
     28  OH       -10.7410  -67.1260   69.6530 O.3   199  TYR199     -0.2866
     29  N        -12.3300  -71.0080   79.3960 N.3   201  ASN201     -0.1225
     30  CA       -11.1600  -71.3830   80.1820 C.3   201  ASN201      0.1785
     31  C        -10.0960  -70.2650   80.1950 C.2   201  ASN201      0.2597
     32  O         -9.5520  -69.9390   81.2440 O.2   201  ASN201     -0.2718
     33  CB       -10.5340  -72.6790   79.6340 C.3   201  ASN201      0.1169
     34  CG        -9.2670  -73.0870   80.3860 C.2   201  ASN201      0.2627
     35  OD1       -9.2440  -73.0810   81.6020 O.2   201  ASN201     -0.2716
     36  ND2       -8.2840  -73.5490   79.6600 N.am  201  ASN201     -0.0877
     37  N         -9.8000  -69.7220   79.0260 N.am  202  MET202     -0.1979
     38  CA        -8.8620  -68.6450   78.8830 C.3   202  MET202      0.1605
     39  C         -9.2270  -67.4380   79.7610 C.2   202  MET202      0.2287
     40  O         -8.3750  -66.8790   80.4770 O.2   202  MET202     -0.2864
     41  CB        -8.7440  -68.2410   77.4120 C.3   202  MET202      0.0413
     42  CG        -7.7290  -67.0880   77.2190 C.3   202  MET202      0.0598
     43  SD        -7.1760  -66.9360   75.5090 S.3   202  MET202     -0.1393
     44  CE        -8.7450  -66.6430   74.6440 C.3   202  MET202      0.0692
     45  N         -8.5350  -60.3960   68.7580 N.3   284  LYS284     -0.1245
     46  CA        -7.2050  -60.8660   69.2010 C.3   284  LYS284      0.1561
     47  C         -6.4480  -59.8190   70.0010 C.2   284  LYS284      0.2260
     48  O         -5.7820  -60.1480   70.9670 O.2   284  LYS284     -0.2867
     49  CB        -6.3960  -61.3450   68.0070 C.3   284  LYS284      0.0271
     50  CG        -6.9530  -62.6740   67.5070 C.3   284  LYS284      0.0035
     51  CD        -6.5150  -63.0310   66.1230 C.3   284  LYS284      0.0206
     52  CE        -6.8090  -64.5020   65.8080 C.3   284  LYS284      0.1093
     53  NZ        -6.4960  -64.8390   64.4000 N.3   284  LYS284     -0.1314
     54  N         -8.1050  -59.6880   73.4320 N.3   287  VAL287     -0.1231
     55  CA        -7.7380  -60.8580   74.2110 C.3   287  VAL287      0.1692
     56  C         -6.3130  -60.6810   74.7920 C.2   287  VAL287      0.2592
     57  O         -6.0820  -60.9220   75.9840 O.2   287  VAL287     -0.2718
     58  CB        -7.7870  -62.1490   73.3860 C.3   287  VAL287      0.0266
     59  CG1       -7.1930  -63.3090   74.1420 C.3   287  VAL287      0.0020
     60  CG2       -9.2240  -62.4870   72.9490 C.3   287  VAL287      0.0020
     61  N         -5.3900  -60.2250   73.9560 N.am  288  PHE288     -0.1976
     62  CA        -4.0240  -59.9720   74.3940 C.3   288  PHE288      0.1639
     63  C         -4.0220  -58.9430   75.5450 C.2   288  PHE288      0.2290
     64  O         -3.3160  -59.1280   76.5400 O.2   288  PHE288     -0.2864
     65  CB        -3.1850  -59.5170   73.2050 C.3   288  PHE288      0.0560
     66  CG        -1.7530  -59.2230   73.5450 C.ar  288  PHE288     -0.0200
     67  CD1       -0.8520  -60.2550   73.8400 C.ar  288  PHE288     -0.0042
     68  CD2       -1.3030  -57.9330   73.5440 C.ar  288  PHE288     -0.0042
     69  CE1        0.4810  -59.9650   74.1560 C.ar  288  PHE288     -0.0003
     70  CE2        0.0190  -57.6380   73.8650 C.ar  288  PHE288     -0.0003
     71  CZ         0.9030  -58.6520   74.1520 C.ar  288  PHE288     -0.0000
     72  N          1.0530  -69.9050   79.6930 N.3   344  TRP344     -0.1241
     73  CA         0.1470  -69.1640   78.8120 C.3   344  TRP344      0.1605
     74  C          0.8000  -68.0010   78.0600 C.2   344  TRP344      0.2264
     75  O          0.3060  -67.5660   77.0040 O.2   344  TRP344     -0.2867
     76  CB        -1.0480  -68.6390   79.6010 C.3   344  TRP344      0.0550
     77  CG        -2.0970  -69.6740   79.8550 C.ar  344  TRP344      0.0003
     78  CD1       -2.1220  -70.5820   80.8720 C.ar  344  TRP344      0.0946
     79  CD2       -3.3190  -69.8760   79.0910 C.ar  344  TRP344      0.0152
     80  NE1       -3.2880  -71.3370   80.8040 N.ar  344  TRP344     -0.2442
     81  CE2       -4.0390  -70.9130   79.7310 C.ar  344  TRP344      0.0810
     82  CE3       -3.8880  -69.2430   77.9740 C.ar  344  TRP344      0.0012
     83  CZ2       -5.2680  -71.3670   79.2570 C.ar  344  TRP344      0.0191
     84  CZ3       -5.1460  -69.6880   77.4950 C.ar  344  TRP344      0.0001
     85  CH2       -5.8210  -70.7340   78.1490 C.ar  344  TRP344      0.0015
     86  N          1.8480  -68.9600   74.2440 N.3   347  ILE347     -0.1231
     87  CA         0.7430  -68.9250   73.2870 C.3   347  ILE347      0.1692
     88  C          0.0910  -67.5330   73.1240 C.2   347  ILE347      0.2592
     89  O         -0.2600  -67.1440   72.0030 O.2   347  ILE347     -0.2718
     90  CB        -0.2930  -70.0460   73.5170 C.3   347  ILE347      0.0266
     91  CG1       -1.2480  -70.1250   72.3120 C.3   347  ILE347      0.0019
     92  CG2       -1.0270  -69.8320   74.8300 C.3   347  ILE347      0.0020
     93  CD1       -0.5600  -70.3090   70.9560 C.3   347  ILE347      0.0001
     94  N         -0.0130  -66.7400   74.1850 N.am  348  HIS348     -0.1976
     95  CA        -0.5720  -65.3960   74.0260 C.3   348  HIS348      0.1656
     96  C          0.2370  -64.5510   73.0610 C.2   348  HIS348      0.2291
     97  O         -0.3130  -63.8360   72.2260 O.2   348  HIS348     -0.2864
     98  CB        -0.7410  -64.6800   75.3680 C.3   348  HIS348      0.0771
     99  CG        -2.0960  -64.9310   76.0020 C.ar  348  HIS348      0.0820
    100  ND1       -3.2640  -64.5050   75.4300 N.ar  348  HIS348     -0.2267
    101  CD2       -2.4490  -65.5620   77.1410 C.ar  348  HIS348      0.1154
    102  CE1       -4.2890  -64.8480   76.1880 C.ar  348  HIS348      0.1986
    103  NE2       -3.8230  -65.4820   77.2420 N.ar  348  HIS348     -0.2212
    104  N         -0.0380  -66.0300   69.3290 N.3   351  VAL351     -0.1245
    105  CA        -1.3010  -65.7590   68.5910 C.3   351  VAL351      0.1561
    106  C         -1.2160  -64.3850   67.9250 C.2   351  VAL351      0.2260
    107  O         -1.6190  -64.1960   66.7790 O.2   351  VAL351     -0.2867
    108  CB        -2.5900  -65.8580   69.4700 C.3   351  VAL351      0.0252
    109  CG1       -3.8140  -65.3000   68.7550 C.3   351  VAL351      0.0019
    110  CG2       -2.8620  -67.3080   69.8520 C.3   351  VAL351      0.0019
    111  N          1.3230  -64.6450   65.0130 N.3   354  TRP354     -0.1227
    112  CA         0.7400  -65.3710   63.9050 C.3   354  TRP354      0.1737
    113  C         -0.2810  -64.5350   63.1250 C.2   354  TRP354      0.2596
    114  O         -0.3870  -64.6450   61.8980 O.2   354  TRP354     -0.2718
    115  CB         0.0220  -66.5870   64.4320 C.3   354  TRP354      0.0564
    116  CG        -0.4330  -67.5430   63.3990 C.ar  354  TRP354      0.0003
    117  CD1       -1.6050  -67.5120   62.7000 C.ar  354  TRP354      0.0946
    118  CD2        0.2450  -68.7290   62.9950 C.ar  354  TRP354      0.0152
    119  NE1       -1.6800  -68.5950   61.8580 N.ar  354  TRP354     -0.2442
    120  CE2       -0.5600  -69.3610   62.0240 C.ar  354  TRP354      0.0810
    121  CE3        1.4520  -69.3180   63.3650 C.ar  354  TRP354      0.0012
    122  CZ2       -0.1870  -70.5490   61.4060 C.ar  354  TRP354      0.0191
    123  CZ3        1.8340  -70.4890   62.7520 C.ar  354  TRP354      0.0001
    124  CH2        1.0090  -71.1090   61.7920 C.ar  354  TRP354      0.0015
    125  N         -1.0290  -63.7220   63.8470 N.am  355  THR355     -0.1953
    126  CA        -2.0910  -62.9360   63.2460 C.3   355  THR355      0.1897
    127  C         -1.5970  -61.6660   62.5470 C.2   355  THR355      0.2313
    128  O         -2.1080  -61.3360   61.4800 O.2   355  THR355     -0.2863
    129  CB        -3.1490  -62.5680   64.2860 C.3   355  THR355      0.1794
    130  OG1       -3.6880  -63.7740   64.8490 O.3   355  THR355     -0.2208
    131  CG2       -4.2900  -61.7410   63.6520 C.3   355  THR355      0.0378
    132  N          4.1770  -73.5660   67.4170 N.3   370  LEU370     -0.1245
    133  CA         2.8510  -73.0330   67.7380 C.3   370  LEU370      0.1561
    134  C          2.0340  -74.0990   68.4830 C.2   370  LEU370      0.2260
    135  O          1.4150  -73.8440   69.5210 O.2   370  LEU370     -0.2867
    136  CB         2.1220  -72.5780   66.4870 C.3   370  LEU370      0.0270
    137  CG         0.6690  -72.1260   66.7100 C.3   370  LEU370      0.0019
    138  CD1        0.6460  -70.7760   67.4290 C.3   370  LEU370      0.0001
    139  CD2       -0.1100  -72.1060   65.4080 C.3   370  LEU370      0.0001
    140  N          0.4010  -74.1830   72.2490 N.3   374  ILE374     -0.1245
    141  CA        -1.0300  -74.4890   72.5450 C.3   374  ILE374      0.1561
    142  C         -1.0900  -75.6100   73.5660 C.2   374  ILE374      0.2260
    143  O         -1.8120  -75.5250   74.5530 O.2   374  ILE374     -0.2867
    144  CB        -1.8370  -74.8480   71.2630 C.3   374  ILE374      0.0252
    145  CG1       -1.9410  -73.6250   70.3480 C.3   374  ILE374      0.0019
    146  CG2       -3.2290  -75.3890   71.6200 C.3   374  ILE374      0.0019
    147  CD1       -2.3360  -73.9340   68.9260 C.3   374  ILE374      0.0001
    148  N         -0.3410  -74.5010   77.1170 N.3   377  GLY377     -0.1210
    149  CA        -1.5280  -73.8500   77.6830 C.3   377  GLY377      0.1956
    150  C         -2.5420  -74.8440   78.2880 C.2   377  GLY377      0.2611
    151  O         -3.0150  -74.6510   79.4210 O.2   377  GLY377     -0.2717
    152  N         -2.8390  -75.9180   77.5560 N.am  378  TYR378     -0.1976
    153  CA        -3.6940  -76.9850   78.1100 C.3   378  TYR378      0.1639
    154  C         -3.0420  -77.7250   79.2670 C.2   378  TYR378      0.2290
    155  O         -3.7220  -78.0850   80.2310 O.2   378  TYR378     -0.2864
    156  CB        -4.1040  -77.9970   77.0380 C.3   378  TYR378      0.0560
    157  CG        -5.0730  -77.4490   76.0680 C.ar  378  TYR378     -0.0198
    158  CD1       -6.3030  -76.9580   76.5010 C.ar  378  TYR378     -0.0009
    159  CD2       -4.7820  -77.4080   74.7190 C.ar  378  TYR378     -0.0009
    160  CE1       -7.2110  -76.4510   75.5950 C.ar  378  TYR378      0.0417
    161  CE2       -5.6920  -76.8720   73.8020 C.ar  378  TYR378      0.0417
    162  CZ        -6.8880  -76.3860   74.2670 C.ar  378  TYR378      0.1957
    163  OH        -7.8290  -75.8730   73.4130 O.3   378  TYR378     -0.2866
@<TRIPOS>BOND
     1   122   124   ar
     2   122   120   ar
     3   128   127    2
     4   124   123   ar
     5   119   120   ar
     6   119   117   ar
     7   114   113    2
     8   120   118   ar
     9   127   126    1
    10   117   116   ar
    11   123   121   ar
    12   118   121   ar
    13   118   116   ar
    14   113   125   am
    15   113   112    1
    16   126   125    1
    17   126   129    1
    18   116   115    1
    19   131   129    1
    20   112   115    1
    21   112   111    1
    22   129   130    1
    23    53    52    1
    24   139   137    1
    25    52    51    1
    26    51    50    1
    27   136   137    1
    28   136   133    1
    29   137   138    1
    30   107   106    2
    31     7     6    1
    32   132   133    1
    33    50    49    1
    34   133   134    1
    35   106   105    1
    36    49    46    1
    37   134   135    2
    38     6     8    1
    39     6     5    1
    40   105   104    1
    41   105   108    1
    42   109   108    1
    43    45    46    1
    44   147   145    1
    45    46    47    1
    46   108   110    1
    47    28    27    1
    48     5     2    1
    49    47    48    2
    50   145   144    1
    51    27    25   ar
    52    27    26   ar
    53    93    91    1
    54    25    23   ar
    55     2     1    1
    56     2     3    1
    57   144   146    1
    58   144   141    1
    59    26    24   ar
    60    89    88    2
    61    23    22   ar
    62    97    96    2
    63   140   141    1
    64     3     4    2
    65    91    90    1
    66   141   142    1
    67    16    14   ar
    68    60    58    1
    69    24    22   ar
    70    96    95    1
    71    88    87    1
    72    88    94   am
    73    65    66    1
    74    65    62    1
    75    22    21    1
    76    87    90    1
    77    87    86    1
    78    58    59    1
    79    58    55    1
    80   163   162    1
    81    54    55    1
    82    90    92    1
    83    68    66   ar
    84    68    70   ar
    85    66    67   ar
    86   142   143    2
    87    14    13    1
    88    14    15   ar
    89    13    10    1
    90   161   162   ar
    91   161   159   ar
    92    67    69   ar
    93    70    71   ar
    94    61    62    1
    95    61    56   am
    96    95    94    1
    97    95    98    1
    98    71    69   ar
    99    55    56    1
   100   162   160   ar
   101    62    63    1
   102    21    18    1
   103    44    43    1
   104   159   157   ar
   105    56    57    2
   106    17    18    1
   107    17    11   am
   108    10     9    1
   109    10    11    1
   110    98    99    1
   111   100    99   ar
   112   100   102   ar
   113    18    19    1
   114    11    12    2
   115    43    42    1
   116    63    64    2
   117   160   158   ar
   118    99   101   ar
   119   157   158   ar
   120   157   156    1
   121   102   103   ar
   122    19    20    2
   123    75    74    2
   124   156   153    1
   125   148   149    1
   126   101   103   ar
   127    42    41    1
   128    41    38    1
   129    84    82   ar
   130    84    85   ar
   131   152   153    1
   132   152   150   am
   133   149   150    1
   134    82    79   ar
   135    74    73    1
   136   153   154    1
   137    85    83   ar
   138   150   151    2
   139    73    76    1
   140    73    72    1
   141    38    37    1
   142    38    39    1
   143    37    31   am
   144    79    81   ar
   145    79    77   ar
   146    83    81   ar
   147   154   155    2
   148    29    30    1
   149    76    77    1
   150    33    30    1
   151    33    34    1
   152    36    34   am
   153    81    80   ar
   154    39    40    2
   155    77    78   ar
   156    30    31    1
   157    31    32    2
   158    34    35    2
   159    80    78   ar
