@<TRIPOS>MOLECULE
tmp/4n6hA17.pdb
 99 93 0 0 0
SMALL
GASTEIGER

@<TRIPOS>ATOM
      1  N        -11.7040  -68.8640  101.4120 N.3   153  ALA153     -0.1245
      2  CA       -11.8080  -68.0130  100.2380 C.3   153  ALA153      0.1562
      3  C        -10.8480  -68.4190   99.1260 C.2   153  ALA153      0.2260
      4  O        -11.2420  -68.5070   97.9530 O.2   153  ALA153     -0.2867
      5  CB       -11.5630  -66.5560  100.6270 C.3   153  ALA153      0.0290
      6  N        -11.8230  -69.8210   95.1080 N.3   157  TYR157     -0.1241
      7  CA       -11.2050  -69.4570   93.8470 C.3   157  TYR157      0.1605
      8  C        -10.5790  -70.6720   93.1560 C.2   157  TYR157      0.2264
      9  O        -10.7370  -70.8500   91.9270 O.2   157  TYR157     -0.2867
     10  CB       -10.1760  -68.3530   94.0510 C.3   157  TYR157      0.0534
     11  CG       -10.7830  -67.0390   94.4550 C.ar  157  TYR157     -0.0201
     12  CD1      -11.8760  -66.5000   93.7250 C.ar  157  TYR157     -0.0009
     13  CD2      -10.3900  -66.3880   95.6090 C.ar  157  TYR157     -0.0009
     14  CE1      -12.4450  -65.2920   94.1020 C.ar  157  TYR157      0.0417
     15  CE2      -10.9660  -65.1910   96.0050 C.ar  157  TYR157      0.0417
     16  CZ       -12.0010  -64.6430   95.2350 C.ar  157  TYR157      0.1957
     17  OH       -12.5990  -63.4520   95.6330 O.3   157  TYR157     -0.2866
     18  N         -8.3110  -62.2780   90.8430 N.3   211  MET211     -0.1245
     19  CA        -9.0180  -62.1500   92.0910 C.3   211  MET211      0.1570
     20  C         -8.3680  -62.9360   93.2160 C.2   211  MET211      0.2261
     21  O         -8.3580  -62.4490   94.3340 O.2   211  MET211     -0.2867
     22  CB       -10.5210  -62.5150   91.9210 C.3   211  MET211      0.0387
     23  CG       -11.2240  -61.6120   90.9280 C.3   211  MET211      0.0595
     24  SD       -10.9800  -59.8270   91.1940 S.3   211  MET211     -0.1393
     25  CE       -11.7920  -59.7100   92.7730 C.3   211  MET211      0.0692
     26  N         -5.4550  -60.7350   94.3610 N.3   214  VAL214     -0.1231
     27  CA        -5.9230  -59.5840   95.1230 C.3   214  VAL214      0.1692
     28  C         -6.3750  -60.0340   96.5210 C.2   214  VAL214      0.2592
     29  O         -6.0400  -59.3890   97.5130 O.2   214  VAL214     -0.2718
     30  CB        -7.0770  -58.8680   94.3630 C.3   214  VAL214      0.0266
     31  CG1       -7.7530  -57.8530   95.2660 C.3   214  VAL214      0.0020
     32  CG2       -6.5380  -58.1730   93.1050 C.3   214  VAL214      0.0020
     33  N         -7.0980  -61.1680   96.5900 N.am  215  ASP215     -0.1974
     34  CA        -7.5330  -61.7450   97.8380 C.3   215  ASP215      0.1709
     35  C         -6.3740  -62.1020   98.7510 C.2   215  ASP215      0.2293
     36  O         -6.3710  -61.7860   99.9450 O.2   215  ASP215     -0.2864
     37  CB        -8.3810  -63.0000   97.5500 C.3   215  ASP215      0.1436
     38  CG        -8.8540  -63.6680   98.7970 C.2   215  ASP215      0.3671
     39  OD1       -9.8020  -63.1410   99.4070 O.co2 215  ASP215     -0.2456
     40  OD2       -8.2590  -64.6900   99.1970 O.co2 215  ASP215     -0.2456
     41  N         -4.7530  -58.8800  100.1000 N.3   218  ILE218     -0.1245
     42  CA        -5.5130  -58.3910  101.2380 C.3   218  ILE218      0.1561
     43  C         -5.1890  -59.2200  102.4860 C.2   218  ILE218      0.2260
     44  O         -4.9330  -58.6620  103.5680 O.2   218  ILE218     -0.2867
     45  CB        -7.0370  -58.3790  100.9090 C.3   218  ILE218      0.0252
     46  CG1       -7.3130  -57.3610   99.7920 C.3   218  ILE218      0.0019
     47  CG2       -7.9050  -58.0210  102.1130 C.3   218  ILE218      0.0019
     48  CD1       -8.7120  -57.5170   99.2160 C.3   218  ILE218      0.0001
     49  N        -13.3970  -57.6570  104.0360 N.3   229  PHE229     -0.1227
     50  CA       -13.4180  -58.0930  102.6210 C.3   229  PHE229      0.1736
     51  C        -13.5550  -59.5930  102.4090 C.2   229  PHE229      0.2595
     52  O        -14.2400  -60.0170  101.4750 O.2   229  PHE229     -0.2718
     53  CB       -12.1340  -57.6790  101.9030 C.3   229  PHE229      0.0547
     54  CG       -11.9940  -56.1970  101.6900 C.ar  229  PHE229     -0.0202
     55  CD1      -12.2840  -55.6250  100.4540 C.ar  229  PHE229     -0.0042
     56  CD2      -11.5340  -55.3870  102.7040 C.ar  229  PHE229     -0.0042
     57  CE1      -12.1440  -54.2630  100.2510 C.ar  229  PHE229     -0.0003
     58  CE2      -11.3970  -54.0200  102.5130 C.ar  229  PHE229     -0.0003
     59  CZ       -11.6970  -53.4640  101.2790 C.ar  229  PHE229     -0.0000
     60  N        -12.8790  -60.4000  103.2260 N.am  230  ARG230     -0.1966
     61  CA       -12.7110  -61.8340  102.9080 C.3   230  ARG230      0.1729
     62  C        -13.7180  -62.7280  103.5950 C.2   230  ARG230      0.2616
     63  O        -13.8120  -62.7170  104.8270 O.2   230  ARG230     -0.2715
     64  CB       -11.2930  -62.3150  103.2690 C.3   230  ARG230      0.0348
     65  CG       -10.2030  -61.5260  102.5620 C.3   230  ARG230      0.0492
     66  CD        -8.8090  -62.1090  102.7680 C.3   230  ARG230      0.2205
     67  NE        -8.5770  -63.3710  102.0600 N.pl3 230  ARG230     -0.0865
     68  CZ        -8.4450  -64.5800  102.6330 C.cat 230  ARG230      0.5346
     69  NH1       -8.5160  -64.7560  103.9420 N.pl3 230  ARG230      0.1354
     70  NH2       -8.2300  -65.6260  101.8740 N.pl3 230  ARG230      0.1354
     71  N        -14.4970  -63.4710  102.7980 N.am  231  THR231     -0.1951
     72  CA       -15.2570  -64.6410  103.2770 C.3   231  THR231      0.1897
     73  C        -15.4330  -65.6330  102.1250 C.2   231  THR231      0.2313
     74  O        -15.4400  -65.2470  100.9640 O.2   231  THR231     -0.2863
     75  CB       -16.6780  -64.3290  103.8040 C.3   231  THR231      0.1794
     76  OG1      -17.5080  -63.9130  102.7250 O.3   231  THR231     -0.2208
     77  CG2      -16.6760  -63.2560  104.8910 C.3   231  THR231      0.0378
     78  N        -18.3760  -64.5330   99.8780 N.3   234  LYS234     -0.1231
     79  CA       -18.0640  -63.4520   98.9540 C.3   234  LYS234      0.1693
     80  C        -17.2390  -63.9680   97.7650 C.2   234  LYS234      0.2591
     81  O        -17.4510  -63.5470   96.6570 O.2   234  LYS234     -0.2718
     82  CB       -17.3180  -62.3250   99.6910 C.3   234  LYS234      0.0285
     83  CG       -18.2190  -61.5150  100.6190 C.3   234  LYS234      0.0035
     84  CD       -17.4360  -60.4950  101.4520 C.3   234  LYS234      0.0206
     85  CE       -18.4040  -59.6190  102.2370 C.3   234  LYS234      0.1093
     86  NZ       -17.7550  -58.4020  102.7970 N.3   234  LYS234     -0.1314
     87  N        -16.2970  -64.8690   98.0070 N.am  235  ALA235     -0.1980
     88  CA       -15.5130  -65.4500   96.9190 C.3   235  ALA235      0.1597
     89  C        -16.4020  -66.2280   95.9640 C.2   235  ALA235      0.2287
     90  O        -16.2270  -66.1890   94.7720 O.2   235  ALA235     -0.2864
     91  CB       -14.4450  -66.3650   97.4600 C.3   235  ALA235      0.0319
     92  N        -18.0540  -63.6900   93.7530 N.3   238  ILE238     -0.1245
     93  CA       -17.0690  -63.2310   92.7670 C.3   238  ILE238      0.1561
     94  C        -16.8500  -64.2670   91.6780 C.2   238  ILE238      0.2260
     95  O        -16.7620  -63.9020   90.5380 O.2   238  ILE238     -0.2867
     96  CB       -15.7850  -62.7980   93.4620 C.3   238  ILE238      0.0252
     97  CG1      -16.0960  -61.5160   94.2200 C.3   238  ILE238      0.0019
     98  CG2      -14.6670  -62.5540   92.4490 C.3   238  ILE238      0.0019
     99  CD1      -15.0700  -61.1340   95.2230 C.3   238  ILE238      0.0001
@<TRIPOS>BOND
     1    95    94    2
     2    18    19    1
     3    23    24    1
     4    23    22    1
     5    24    25    1
     6    94    93    1
     7    22    19    1
     8     9     8    2
     9    19    20    1
    10    98    96    1
    11    93    96    1
    12    93    92    1
    13    32    30    1
    14     8     7    1
    15    20    21    2
    16    96    97    1
    17    12    14   ar
    18    12    11   ar
    19     7    10    1
    20     7     6    1
    21    10    11    1
    22    14    16   ar
    23    97    99    1
    24    26    27    1
    25    30    27    1
    26    30    31    1
    27    11    13   ar
    28    90    89    2
    29    27    28    1
    30    16    17    1
    31    16    15   ar
    32    13    15   ar
    33    89    88    1
    34    28    33   am
    35    28    29    2
    36    33    34    1
    37    81    80    2
    38    88    91    1
    39    88    87    1
    40    37    34    1
    41    37    38    1
    42    80    87   am
    43    80    79    1
    44    34    35    1
    45     4     3    2
    46    35    36    2
    47    38    40   ar
    48    38    39   ar
    49    79    82    1
    50    79    78    1
    51     3     2    1
    52    48    46    1
    53    82    83    1
    54    46    45    1
    55    41    42    1
    56     2     5    1
    57     2     1    1
    58    57    55   ar
    59    57    59   ar
    60    55    54   ar
    61    83    84    1
    62    45    42    1
    63    45    47    1
    64    74    73    2
    65    42    43    1
    66    59    58   ar
    67    84    85    1
    68    52    51    2
    69    54    53    1
    70    54    56   ar
    71    70    68    1
    72    53    50    1
    73    67    68    2
    74    67    66    1
    75    73    72    1
    76    85    86    1
    77    51    50    1
    78    51    60   am
    79    43    44    2
    80    58    56   ar
    81    65    66    1
    82    65    64    1
    83    50    49    1
    84    68    69    1
    85    76    75    1
    86    71    72    1
    87    71    62   am
    88    61    60    1
    89    61    64    1
    90    61    62    1
    91    72    75    1
    92    62    63    2
    93    75    77    1
