@<TRIPOS>MOLECULE
tmp/4n6hA13.pdb
 125 116 0 0 0
SMALL
GASTEIGER

@<TRIPOS>ATOM
      1  N         -8.4680  -83.9110   83.9450 N.3   134  LEU134     -0.1245
      2  CA        -9.8760  -84.1640   84.2010 C.3   134  LEU134      0.1561
      3  C        -10.0850  -84.8300   85.5590 C.2   134  LEU134      0.2260
      4  O        -10.9250  -84.3800   86.3710 O.2   134  LEU134     -0.2867
      5  CB       -10.5370  -84.9440   83.0940 C.3   134  LEU134      0.0270
      6  CG       -12.0740  -85.1460   83.1580 C.3   134  LEU134      0.0019
      7  CD1      -12.8470  -83.8520   83.3060 C.3   134  LEU134      0.0001
      8  CD2      -12.5010  -85.8290   81.8660 C.3   134  LEU134      0.0001
      9  N        -11.6260  -82.8610   88.9260 N.3   138  VAL138     -0.1245
     10  CA       -12.9040  -83.3500   89.4700 C.3   138  VAL138      0.1561
     11  C        -12.7060  -83.6960   90.9600 C.2   138  VAL138      0.2260
     12  O        -13.5320  -83.3260   91.7940 O.2   138  VAL138     -0.2867
     13  CB       -13.4520  -84.5230   88.6270 C.3   138  VAL138      0.0252
     14  CG1      -14.5860  -85.2440   89.3610 C.3   138  VAL138      0.0019
     15  CG2      -13.8810  -84.0060   87.2430 C.3   138  VAL138      0.0019
     16  N        -12.6770  -80.5070   92.9960 N.3   141  MET141     -0.1230
     17  CA       -14.0320  -79.9670   93.1890 C.3   141  MET141      0.1702
     18  C        -14.8050  -80.7700   94.2320 C.2   141  MET141      0.2592
     19  O        -15.4160  -80.1870   95.1560 O.2   141  MET141     -0.2718
     20  CB       -14.8090  -79.9030   91.8960 C.3   141  MET141      0.0401
     21  CG       -14.3570  -78.7450   90.9980 C.3   141  MET141      0.0596
     22  SD       -15.3230  -78.5390   89.4900 S.3   141  MET141     -0.1393
     23  CE       -14.7150  -79.8970   88.5560 C.3   141  MET141      0.0692
     24  N        -14.7660  -82.0910   94.1140 N.am  142  PHE142     -0.1976
     25  CA       -15.5110  -82.9170   95.0970 C.3   142  PHE142      0.1639
     26  C        -14.9530  -82.7460   96.5320 C.2   142  PHE142      0.2290
     27  O        -15.7200  -82.7400   97.5010 O.2   142  PHE142     -0.2864
     28  CB       -15.5100  -84.3790   94.6780 C.3   142  PHE142      0.0560
     29  CG       -16.5610  -84.7180   93.6500 C.ar  142  PHE142     -0.0200
     30  CD1      -17.8980  -84.4030   93.8760 C.ar  142  PHE142     -0.0042
     31  CD2      -16.2390  -85.4370   92.5120 C.ar  142  PHE142     -0.0042
     32  CE1      -18.8820  -84.7470   92.9470 C.ar  142  PHE142     -0.0003
     33  CE2      -17.2150  -85.7820   91.5790 C.ar  142  PHE142     -0.0003
     34  CZ       -18.5300  -85.4240   91.7900 C.ar  142  PHE142     -0.0000
     35  N        -16.0950  -79.3930   98.0360 N.3   145  VAL145     -0.1245
     36  CA       -17.5250  -79.5080   98.3800 C.3   145  VAL145      0.1561
     37  C        -17.7150  -80.3300   99.6640 C.2   145  VAL145      0.2260
     38  O        -18.5660  -79.9990  100.4980 O.2   145  VAL145     -0.2867
     39  CB       -18.3420  -80.1160   97.2070 C.3   145  VAL145      0.0252
     40  CG1      -19.7120  -80.6250   97.6430 C.3   145  VAL145      0.0019
     41  CG2      -18.4900  -79.1050   96.0800 C.3   145  VAL145      0.0019
     42  N        -11.6070  -73.6580   93.3250 N.3   159  PHE159     -0.1241
     43  CA       -12.7500  -74.4070   92.7600 C.3   159  PHE159      0.1605
     44  C        -13.0880  -73.8900   91.3400 C.2   159  PHE159      0.2264
     45  O        -13.3280  -74.6740   90.3930 O.2   159  PHE159     -0.2867
     46  CB       -13.9800  -74.2940   93.6810 C.3   159  PHE159      0.0534
     47  CG       -15.1400  -75.1320   93.2290 C.ar  159  PHE159     -0.0203
     48  CD1      -15.9750  -74.6810   92.2100 C.ar  159  PHE159     -0.0042
     49  CD2      -15.3940  -76.3690   93.8040 C.ar  159  PHE159     -0.0042
     50  CE1      -17.0170  -75.4580   91.7520 C.ar  159  PHE159     -0.0003
     51  CE2      -16.5000  -77.1400   93.3800 C.ar  159  PHE159     -0.0003
     52  CZ       -17.2710  -76.6850   92.3410 C.ar  159  PHE159     -0.0000
     53  N        -13.0140  -75.9990   87.8200 N.3   163  LEU163     -0.1245
     54  CA       -14.1750  -76.1510   86.9700 C.3   163  LEU163      0.1561
     55  C        -13.7880  -75.8510   85.5320 C.2   163  LEU163      0.2260
     56  O        -14.0560  -76.6620   84.6390 O.2   163  LEU163     -0.2867
     57  CB       -15.2870  -75.2320   87.4400 C.3   163  LEU163      0.0270
     58  CG       -16.5630  -75.1530   86.6060 C.3   163  LEU163      0.0019
     59  CD1      -17.1180  -76.5520   86.4210 C.3   163  LEU163      0.0001
     60  CD2      -17.5410  -74.2020   87.2860 C.3   163  LEU163      0.0001
     61  N        -11.3990  -78.6600   84.2730 N.3   166  ALA166     -0.1231
     62  CA       -12.2030  -79.8600   83.9250 C.3   166  ALA166      0.1694
     63  C        -12.9280  -79.7400   82.5630 C.2   166  ALA166      0.2591
     64  O        -12.8640  -80.6530   81.7150 O.2   166  ALA166     -0.2718
     65  CB       -13.2010  -80.1670   85.0380 C.3   166  ALA166      0.0304
     66  N        -13.6120  -78.6110   82.3450 N.am  167  LEU167     -0.1980
     67  CA       -14.2740  -78.3490   81.0790 C.3   167  LEU167      0.1596
     68  C        -13.2800  -78.3830   79.9190 C.2   167  LEU167      0.2287
     69  O        -13.5170  -79.0640   78.9240 O.2   167  LEU167     -0.2864
     70  CB       -15.0250  -77.0250   81.1310 C.3   167  LEU167      0.0297
     71  CG       -16.2610  -77.0310   82.0380 C.3   167  LEU167      0.0022
     72  CD1      -16.6630  -75.6070   82.3600 C.3   167  LEU167      0.0001
     73  CD2      -17.3960  -77.7970   81.3960 C.3   167  LEU167      0.0001
     74  N        -11.8370  -81.8210   79.1300 N.3   170  SER170     -0.1202
     75  CA       -12.8260  -82.7340   78.5810 C.3   170  SER170      0.2020
     76  C        -12.9100  -82.6100   77.0440 C.2   170  SER170      0.2619
     77  O        -13.3360  -83.5360   76.3900 O.2   170  SER170     -0.2717
     78  CB       -14.1710  -82.5190   79.2680 C.3   170  SER170      0.2103
     79  OG       -14.8080  -81.3950   78.7110 O.3   170  SER170     -0.2182
     80  N        -12.4790  -81.4750   76.4790 N.am  171  THR171     -0.1952
     81  CA       -12.4880  -81.2480   75.0520 C.3   171  THR171      0.1897
     82  C        -11.3310  -81.9350   74.3280 C.2   171  THR171      0.2313
     83  O        -11.3740  -82.0760   73.1000 O.2   171  THR171     -0.2863
     84  CB       -12.4720  -79.7460   74.6780 C.3   171  THR171      0.1794
     85  OG1      -11.1550  -79.1740   74.8520 O.3   171  THR171     -0.2208
     86  CG2      -13.5180  -78.9780   75.4840 C.3   171  THR171      0.0378
     87  N        -11.5520  -84.7960   71.5710 N.3   174  PHE174     -0.1241
     88  CA       -12.1790  -84.3030   70.3430 C.3   174  PHE174      0.1605
     89  C        -11.2220  -83.4770   69.5180 C.2   174  PHE174      0.2264
     90  O        -11.1470  -83.6240   68.2840 O.2   174  PHE174     -0.2867
     91  CB       -13.4690  -83.5090   70.6700 C.3   174  PHE174      0.0534
     92  CG       -14.4270  -84.2720   71.5100 C.ar  174  PHE174     -0.0203
     93  CD1      -15.2710  -85.2300   70.9370 C.ar  174  PHE174     -0.0042
     94  CD2      -14.4170  -84.1470   72.9100 C.ar  174  PHE174     -0.0042
     95  CE1      -16.1110  -85.9960   71.7340 C.ar  174  PHE174     -0.0003
     96  CE2      -15.2800  -84.8920   73.7020 C.ar  174  PHE174     -0.0003
     97  CZ       -16.1320  -85.8170   73.1070 C.ar  174  PHE174     -0.0000
     98  N        -21.3120  -79.4590   68.8760 N.3   190  LEU190     -0.1245
     99  CA       -20.0620  -79.7680   69.6060 C.3   190  LEU190      0.1561
    100  C        -18.9620  -78.7360   69.2890 C.2   190  LEU190      0.2260
    101  O        -18.1230  -78.4320   70.1600 O.2   190  LEU190     -0.2867
    102  CB       -19.5260  -81.1720   69.3250 C.3   190  LEU190      0.0270
    103  CG       -18.4180  -81.5840   70.3190 C.3   190  LEU190      0.0019
    104  CD1      -19.0970  -81.9460   71.6370 C.3   190  LEU190      0.0001
    105  CD2      -17.5290  -82.7200   69.8240 C.3   190  LEU190      0.0001
    106  N        -19.6960  -75.8690   71.5230 N.3   193  ALA193     -0.1231
    107  CA       -19.3150  -76.2260   72.8710 C.3   193  ALA193      0.1694
    108  C        -17.7930  -76.1210   73.0980 C.2   193  ALA193      0.2591
    109  O        -17.3330  -75.5350   74.0770 O.2   193  ALA193     -0.2718
    110  CB       -19.8060  -77.6260   73.2120 C.3   193  ALA193      0.0304
    111  N        -17.0320  -76.7030   72.1840 N.am  194  VAL194     -0.1980
    112  CA       -15.5700  -76.7840   72.3540 C.3   194  VAL194      0.1595
    113  C        -14.9680  -75.3840   72.2400 C.2   194  VAL194      0.2287
    114  O        -14.1180  -74.9920   73.0760 O.2   194  VAL194     -0.2864
    115  CB       -14.9480  -77.7790   71.3800 C.3   194  VAL194      0.0276
    116  CG1      -13.4360  -77.6740   71.3730 C.3   194  VAL194      0.0022
    117  CG2      -15.3690  -79.1910   71.7770 C.3   194  VAL194      0.0022
    118  N        -15.9900  -73.3200   75.3770 N.3   197  ILE197     -0.1245
    119  CA       -15.2370  -73.7840   76.5220 C.3   197  ILE197      0.1561
    120  C        -13.7970  -73.2540   76.4400 C.2   197  ILE197      0.2260
    121  O        -13.2560  -72.7860   77.4260 O.2   197  ILE197     -0.2867
    122  CB       -15.2410  -75.3380   76.6520 C.3   197  ILE197      0.0252
    123  CG1      -16.6000  -75.7750   77.2020 C.3   197  ILE197      0.0019
    124  CG2      -14.1390  -75.8190   77.5750 C.3   197  ILE197      0.0019
    125  CD1      -16.8710  -77.2400   77.0710 C.3   197  ILE197      0.0001
@<TRIPOS>BOND
     1    90    89    2
     2    98    99    1
     3   100    99    1
     4   100   101    2
     5   102    99    1
     6   102   103    1
     7    89    88    1
     8   105   103    1
     9   103   104    1
    10    88    91    1
    11    88    87    1
    12    91    92    1
    13    93    92   ar
    14    93    95   ar
    15   116   115    1
    16   115   117    1
    17   115   112    1
    18    92    94   ar
    19   106   107    1
    20    95    97   ar
    21   111   112    1
    22   111   108   am
    23   113   112    1
    24   113   114    2
    25   107   108    1
    26   107   110    1
    27    94    96   ar
    28   108   109    2
    29    83    82    2
    30    97    96   ar
    31    82    81    1
    32    84    85    1
    33    84    81    1
    34    84    86    1
    35    81    80    1
    36   118   119    1
    37    77    76    2
    38   120   119    1
    39   120   121    2
    40    80    76   am
    41   119   122    1
    42   122   123    1
    43   122   124    1
    44    76    75    1
    45   125   123    1
    46    75    74    1
    47    75    78    1
    48    79    78    1
    49    69    68    2
    50    68    67    1
    51    67    70    1
    52    67    66    1
    53    70    71    1
    54    73    71    1
    55    64    63    2
    56     8     6    1
    57    71    72    1
    58    66    63   am
    59    63    62    1
    60     5     6    1
    61     5     2    1
    62     6     7    1
    63    62    61    1
    64    62    65    1
    65     1     2    1
    66     2     3    1
    67    56    55    2
    68    55    54    1
    69     3     4    2
    70    59    58    1
    71    58    60    1
    72    58    57    1
    73    54    57    1
    74    54    53    1
    75    15    13    1
    76    23    22    1
    77    13    14    1
    78    13    10    1
    79     9    10    1
    80    10    11    1
    81    22    21    1
    82    45    44    2
    83    11    12    2
    84    21    20    1
    85    44    43    1
    86    33    34   ar
    87    33    31   ar
    88    50    48   ar
    89    50    52   ar
    90    34    32   ar
    91    20    17    1
    92    48    47   ar
    93    52    51   ar
    94    31    29   ar
    95    43    42    1
    96    43    46    1
    97    32    30   ar
    98    16    17    1
    99    17    18    1
   100    47    46    1
   101    47    49   ar
   102    51    49   ar
   103    29    30   ar
   104    29    28    1
   105    24    18   am
   106    24    25    1
   107    18    19    2
   108    28    25    1
   109    25    26    1
   110    41    39    1
   111    26    27    2
   112    39    40    1
   113    39    36    1
   114    35    36    1
   115    36    37    1
   116    37    38    2
