@<TRIPOS>MOLECULE
tmp/4n6hA15.pdb
 89 83 0 0 0
SMALL
GASTEIGER

@<TRIPOS>ATOM
      1  N          1.4630  -68.0930   84.2020 N.3   341  VAL341     -0.1231
      2  CA         2.1920  -67.1790   83.3160 C.3   341  VAL341      0.1692
      3  C          3.1630  -67.9280   82.3900 C.2   341  VAL341      0.2591
      4  O          3.2170  -67.6810   81.1890 O.2   341  VAL341     -0.2718
      5  CB         2.8560  -66.0350   84.1300 C.3   341  VAL341      0.0266
      6  CG1        3.6600  -65.1330   83.2120 C.3   341  VAL341      0.0020
      7  CG2        1.7800  -65.2210   84.8450 C.3   341  VAL341      0.0020
      8  N          3.9160  -68.8640   82.9310 N.am  342  VAL342     -0.1980
      9  CA         4.8460  -69.6570   82.1510 C.3   342  VAL342      0.1595
     10  C          4.1290  -70.5120   81.0860 C.2   342  VAL342      0.2287
     11  O          4.5880  -70.6370   79.9450 O.2   342  VAL342     -0.2864
     12  CB         5.6600  -70.5780   83.0540 C.3   342  VAL342      0.0276
     13  CG1        6.3460  -71.6520   82.2230 C.3   342  VAL342      0.0022
     14  CG2        6.6680  -69.7900   83.8620 C.3   342  VAL342      0.0022
     15  N          1.8990  -67.4850   78.5870 N.3   345  ALA345     -0.1231
     16  CA         2.5650  -66.3560   77.9230 C.3   345  ALA345      0.1679
     17  C          3.0180  -66.7260   76.5160 C.2   345  ALA345      0.2434
     18  O          2.8860  -65.9230   75.6070 O.2   345  ALA345     -0.2733
     19  CB         3.7400  -65.8460   78.7650 C.3   345  ALA345      0.0304
     20  N          3.5700  -67.9260   76.3250 N.am  346  PRO346     -0.2729
     21  CA         4.0410  -68.2620   74.9950 C.3   346  PRO346      0.1401
     22  C          2.9450  -68.2790   73.9590 C.2   346  PRO346      0.2269
     23  O          3.0740  -67.6340   72.9130 O.2   346  PRO346     -0.2865
     24  CB         4.6920  -69.6220   75.1910 C.3   346  PRO346      0.0296
     25  CG         5.1610  -69.5760   76.6220 C.3   346  PRO346      0.0237
     26  CD         4.0160  -68.9210   77.3150 C.3   346  PRO346      0.0939
     27  N          1.5530  -64.6300   73.1730 N.3   349  ILE349     -0.1231
     28  CA         2.4080  -63.8690   72.2970 C.3   349  ILE349      0.1692
     29  C          2.3250  -64.4420   70.8780 C.2   349  ILE349      0.2592
     30  O          2.2350  -63.7120   69.9100 O.2   349  ILE349     -0.2718
     31  CB         3.8620  -63.8480   72.8690 C.3   349  ILE349      0.0266
     32  CG1        3.8850  -63.0390   74.1780 C.3   349  ILE349      0.0019
     33  CG2        4.8400  -63.2870   71.8390 C.3   349  ILE349      0.0020
     34  CD1        5.1180  -63.2760   75.0520 C.3   349  ILE349      0.0001
     35  N          2.3300  -65.7690   70.7650 N.am  350  PHE350     -0.1976
     36  CA         2.3880  -66.4270   69.4690 C.3   350  PHE350      0.1639
     37  C          1.1210  -66.1460   68.6750 C.2   350  PHE350      0.2290
     38  O          1.2000  -66.0000   67.4630 O.2   350  PHE350     -0.2864
     39  CB         2.6080  -67.9520   69.6890 C.3   350  PHE350      0.0560
     40  CG         3.4780  -68.6380   68.6620 C.ar  350  PHE350     -0.0200
     41  CD1        3.4160  -68.3180   67.3150 C.ar  350  PHE350     -0.0042
     42  CD2        4.3440  -69.6560   69.0700 C.ar  350  PHE350     -0.0042
     43  CE1        4.1840  -69.0000   66.3930 C.ar  350  PHE350     -0.0003
     44  CE2        5.1100  -70.3470   68.1520 C.ar  350  PHE350     -0.0003
     45  CZ         5.0410  -70.0160   66.8140 C.ar  350  PHE350     -0.0000
     46  N          1.6320  -62.7630   67.1510 N.3   353  VAL353     -0.1245
     47  CA         2.6060  -62.8600   66.0780 C.3   353  VAL353      0.1561
     48  C          2.0130  -63.5380   64.8230 C.2   353  VAL353      0.2260
     49  O          2.1680  -63.0510   63.6960 O.2   353  VAL353     -0.2867
     50  CB         3.8790  -63.6070   66.5470 C.3   353  VAL353      0.0252
     51  CG1        4.8580  -63.8330   65.3900 C.3   353  VAL353      0.0019
     52  CG2        4.5440  -62.8640   67.6790 C.3   353  VAL353      0.0019
     53  N          5.2120  -63.9380   59.2030 N.3   359  ILE359     -0.1231
     54  CA         6.0550  -65.1000   59.4800 C.3   359  ILE359      0.1692
     55  C          5.7590  -66.1850   58.4590 C.2   359  ILE359      0.2592
     56  O          4.7520  -66.1070   57.7320 O.2   359  ILE359     -0.2718
     57  CB         5.7960  -65.6610   60.8940 C.3   359  ILE359      0.0266
     58  CG1        4.3330  -66.0800   61.0710 C.3   359  ILE359      0.0019
     59  CG2        6.1590  -64.6410   61.9640 C.3   359  ILE359      0.0020
     60  CD1        4.1180  -66.9270   62.3050 C.3   359  ILE359      0.0001
     61  N          6.6060  -67.2080   58.4100 N.am  360  ASP360     -0.1974
     62  CA         6.3230  -68.3700   57.5650 C.3   360  ASP360      0.1709
     63  C          5.4200  -69.3880   58.2540 C.2   360  ASP360      0.2293
     64  O          5.8930  -70.2850   58.9590 O.2   360  ASP360     -0.2864
     65  CB         7.6160  -69.0420   57.0990 C.3   360  ASP360      0.1436
     66  CG         7.3610  -70.1180   56.0470 C.2   360  ASP360      0.3671
     67  OD1        6.1820  -70.3550   55.6740 O.co2 360  ASP360     -0.2456
     68  OD2        8.3430  -70.7230   55.5830 O.co2 360  ASP360     -0.2456
     69  N          5.9100  -73.2680   57.5070 N.3   363  ASP363     -0.1239
     70  CA         7.1670  -73.8720   57.9470 C.3   363  ASP363      0.1674
     71  C          6.9060  -74.8780   59.0880 C.2   363  ASP363      0.2266
     72  O          6.3200  -74.5220   60.0900 O.2   363  ASP363     -0.2867
     73  CB         8.1490  -72.7670   58.3720 C.3   363  ASP363      0.1410
     74  CG         9.4360  -73.3020   58.9630 C.2   363  ASP363      0.3668
     75  OD1       10.4100  -72.5350   59.0540 O.co2 363  ASP363     -0.2456
     76  OD2        9.5000  -74.4700   59.3630 O.co2 363  ASP363     -0.2456
     77  N          7.8900  -73.8490   62.7110 N.3   366  VAL366     -0.1245
     78  CA         7.0150  -72.7740   63.2100 C.3   366  VAL366      0.1561
     79  C          5.6610  -73.3560   63.6230 C.2   366  VAL366      0.2260
     80  O          5.1480  -73.0160   64.6920 O.2   366  VAL366     -0.2867
     81  CB         6.8580  -71.6650   62.1540 C.3   366  VAL366      0.0252
     82  CG1        5.8570  -70.6170   62.6090 C.3   366  VAL366      0.0019
     83  CG2        8.2150  -71.0270   61.8620 C.3   366  VAL366      0.0019
     84  N          3.1500  -74.6500   71.9590 N.3   373  CYS373     -0.1235
     85  CA         2.6860  -73.5710   72.8400 C.3   373  CYS373      0.1677
     86  C          1.1990  -73.7450   73.2100 C.2   373  CYS373      0.2270
     87  O          0.7940  -73.4610   74.3480 O.2   373  CYS373     -0.2867
     88  CB         2.9240  -72.2100   72.2180 C.3   373  CYS373      0.0956
     89  SG         4.7160  -71.7950   72.1690 S.3   373  CYS373     -0.0801
@<TRIPOS>BOND
     1    68    66   ar
     2    67    66   ar
     3    66    65    1
     4    65    62    1
     5    69    70    1
     6    62    63    1
     7    62    61    1
     8    56    55    2
     9    70    73    1
    10    70    71    1
    11    63    64    2
    12    73    74    1
    13    61    55   am
    14    55    54    1
    15    74    75   ar
    16    74    76   ar
    17    71    72    2
    18    53    54    1
    19    54    57    1
    20    57    58    1
    21    57    59    1
    22    58    60    1
    23    83    81    1
    24    81    82    1
    25    81    78    1
    26    77    78    1
    27    78    79    1
    28    79    80    2
    29    49    48    2
    30    48    47    1
    31    51    50    1
    32    47    50    1
    33    47    46    1
    34    43    45   ar
    35    43    41   ar
    36    50    52    1
    37    45    44   ar
    38    41    40   ar
    39    38    37    2
    40    44    42   ar
    41    40    42   ar
    42    40    39    1
    43    37    36    1
    44    36    39    1
    45    36    35    1
    46    30    29    2
    47    35    29   am
    48    29    28    1
    49    33    31    1
    50    84    85    1
    51    89    88    1
    52    88    85    1
    53    28    31    1
    54    28    27    1
    55    85    86    1
    56    31    32    1
    57    23    22    2
    58    86    87    2
    59    22    21    1
    60    32    34    1
    61    21    24    1
    62    21    20    1
    63    24    25    1
    64    18    17    2
    65    20    17   am
    66    20    26    1
    67    17    16    1
    68    25    26    1
    69    16    15    1
    70    16    19    1
    71    11    10    2
    72    10     9    1
    73     4     3    2
    74     9     8    1
    75     9    12    1
    76    13    12    1
    77     3     8   am
    78     3     2    1
    79    12    14    1
    80     6     5    1
    81     2     5    1
    82     2     1    1
    83     5     7    1
