@<TRIPOS>MOLECULE
tmp/4n6kA00.pdb
 169 162 0 0 0
SMALL
GASTEIGER

@<TRIPOS>ATOM
      1  N         24.6080   27.6970   28.5530 N.3    10  VAL10      -0.1231
      2  CA        25.9750   28.1190   28.8160 C.3    10  VAL10       0.1692
      3  C         26.4060   29.3420   28.0260 C.2    10  VAL10       0.2592
      4  O         27.5330   29.8110   28.2010 O.2    10  VAL10      -0.2718
      5  CB        26.9860   26.9640   28.5560 C.3    10  VAL10       0.0266
      6  CG1       26.5610   25.7170   29.3230 C.3    10  VAL10       0.0020
      7  CG2       27.1450   26.6720   27.0640 C.3    10  VAL10       0.0020
      8  N         25.5610   29.7920   27.1010 N.am   11  PHE11      -0.1962
      9  CA        25.8860   30.8400   26.1340 C.3    11  PHE11       0.1771
     10  C         25.8690   32.2470   26.7290 C.2    11  PHE11       0.2620
     11  O         25.3020   32.4990   27.7900 O.2    11  PHE11      -0.2715
     12  CB        24.9460   30.7530   24.9260 C.3    11  PHE11       0.0574
     13  CG        25.1010   29.4880   24.1020 C.ar   11  PHE11      -0.0200
     14  CD1       24.6750   28.2480   24.5850 C.ar   11  PHE11      -0.0042
     15  CD2       25.6470   29.5390   22.8280 C.ar   11  PHE11      -0.0042
     16  CE1       24.8100   27.1020   23.8200 C.ar   11  PHE11      -0.0003
     17  CE2       25.7720   28.3900   22.0640 C.ar   11  PHE11      -0.0003
     18  CZ        25.3670   27.1720   22.5660 C.ar   11  PHE11      -0.0000
     19  N         26.4940   33.1640   25.9970 N.am   12  SER12      -0.1950
     20  CA        26.6730   34.5390   26.4190 C.3    12  SER12       0.1924
     21  C         25.5680   35.4170   25.8410 C.2    12  SER12       0.2314
     22  O         24.9730   35.0870   24.8230 O.2    12  SER12      -0.2863
     23  CB        28.0320   35.0410   25.9470 C.3    12  SER12       0.2116
     24  OG        29.0770   34.4710   26.7090 O.3    12  SER12      -0.2180
     25  N         25.2770   36.1310   22.0600 N.3    15  GLU15      -0.1245
     26  CA        25.0640   35.0220   21.1420 C.3    15  GLU15       0.1567
     27  C         23.5880   34.8190   20.8480 C.2    15  GLU15       0.2260
     28  O         22.7330   34.9800   21.7150 O.2    15  GLU15      -0.2867
     29  CB        25.6810   33.7570   21.7280 C.3    15  GLU15       0.0388
     30  CG        27.1920   33.8110   21.7420 C.3    15  GLU15       0.1160
     31  CD        27.7950   32.5820   22.3630 C.2    15  GLU15       0.3649
     32  OE1       27.8740   32.4920   23.6070 O.co2  15  GLU15      -0.2457
     33  OE2       28.1950   31.6830   21.6190 O.co2  15  GLU15      -0.2457
     34  N         25.2820   22.0490   31.1940 N.3    49  TYR49      -0.1241
     35  CA        25.8300   20.8180   30.6500 C.3    49  TYR49       0.1605
     36  C         25.0770   19.6260   31.2770 C.2    49  TYR49       0.2264
     37  O         23.8370   19.6540   31.3760 O.2    49  TYR49      -0.2867
     38  CB        27.3390   20.7500   30.8480 C.3    49  TYR49       0.0534
     39  CG        28.1150   21.8280   30.1180 C.ar   49  TYR49      -0.0201
     40  CD1       28.1630   21.8790   28.7280 C.ar   49  TYR49      -0.0009
     41  CD2       28.8080   22.8000   30.8250 C.ar   49  TYR49      -0.0009
     42  CE1       28.9120   22.8440   28.0570 C.ar   49  TYR49       0.0417
     43  CE2       29.5520   23.7720   30.1700 C.ar   49  TYR49       0.0417
     44  CZ        29.5870   23.7950   28.7850 C.ar   49  TYR49       0.1957
     45  OH        30.3550   24.7600   28.1600 O.3    49  TYR49      -0.2866
     46  N         20.8960   22.3570   25.8050 N.3    66  GLU66      -0.1231
     47  CA        22.2430   21.7990   25.6250 C.3    66  GLU66       0.1699
     48  C         22.2430   20.9620   24.3700 C.2    66  GLU66       0.2592
     49  O         21.1880   20.5060   23.9240 O.2    66  GLU66      -0.2718
     50  CB        22.6530   20.8970   26.7800 C.3    66  GLU66       0.0402
     51  CG        22.6130   21.5690   28.1450 C.3    66  GLU66       0.1161
     52  CD        23.6650   22.6330   28.3640 C.2    66  GLU66       0.3649
     53  OE1       24.6110   22.7620   27.5460 O.co2  66  GLU66      -0.2457
     54  OE2       23.5550   23.3660   29.3720 O.co2  66  GLU66      -0.2457
     55  N         23.4210   20.7160   23.8000 N.am   67  ASP67      -0.1974
     56  CA        23.4520   19.8540   22.6270 C.3    67  ASP67       0.1709
     57  C         23.0460   18.4240   22.9770 C.2    67  ASP67       0.2293
     58  O         23.0760   18.0120   24.1430 O.2    67  ASP67      -0.2864
     59  CB        24.8050   19.9550   21.8860 C.3    67  ASP67       0.1436
     60  CG        25.9400   19.2740   22.6010 C.2    67  ASP67       0.3671
     61  OD1       25.8590   18.0590   22.7710 O.co2  67  ASP67      -0.2456
     62  OD2       26.9160   19.9690   22.9620 O.co2  67  ASP67      -0.2456
     63  N         24.5350   15.7720   25.4680 N.3    70  PHE70      -0.1241
     64  CA        24.3150   15.8660   26.9050 C.3    70  PHE70       0.1605
     65  C         23.0980   15.1010   27.3810 C.2    70  PHE70       0.2264
     66  O         22.9280   14.9460   28.5860 O.2    70  PHE70      -0.2867
     67  CB        24.3440   17.3270   27.3590 C.3    70  PHE70       0.0534
     68  CG        25.7300   17.8860   27.3040 C.ar   70  PHE70      -0.0203
     69  CD1       26.6400   17.5310   28.2810 C.ar   70  PHE70      -0.0042
     70  CD2       26.1650   18.6730   26.2500 C.ar   70  PHE70      -0.0042
     71  CE1       27.9610   17.9680   28.2040 C.ar   70  PHE70      -0.0003
     72  CE2       27.4800   19.1050   26.1690 C.ar   70  PHE70      -0.0003
     73  CZ        28.3680   18.7580   27.1540 C.ar   70  PHE70      -0.0000
     74  N         23.5400   26.4120   16.2460 N.3   123  TYR123     -0.1241
     75  CA        24.4400   27.5580   16.4680 C.3   123  TYR123      0.1605
     76  C         25.6890   27.4810   15.5830 C.2   123  TYR123      0.2264
     77  O         26.5610   28.3250   15.6730 O.2   123  TYR123     -0.2867
     78  CB        24.7820   27.7650   17.9650 C.3   123  TYR123      0.0534
     79  CG        25.4520   26.5770   18.5960 C.ar  123  TYR123     -0.0201
     80  CD1       26.8180   26.3910   18.4630 C.ar  123  TYR123     -0.0009
     81  CD2       24.7140   25.5990   19.2590 C.ar  123  TYR123     -0.0009
     82  CE1       27.4330   25.2920   19.0030 C.ar  123  TYR123      0.0417
     83  CE2       25.3370   24.4960   19.8180 C.ar  123  TYR123      0.0417
     84  CZ        26.6920   24.3370   19.6500 C.ar  123  TYR123      0.1957
     85  OH        27.3270   23.2200   20.1470 O.3   123  TYR123     -0.2866
     86  N         30.9090   23.4100   13.8780 N.3   126  ARG126     -0.1245
     87  CA        32.0440   23.6370   14.7610 C.3   126  ARG126      0.1563
     88  C         33.3150   23.3450   13.9730 C.2   126  ARG126      0.2260
     89  O         33.4400   22.2970   13.3390 O.2   126  ARG126     -0.2867
     90  CB        31.9360   22.7700   16.0090 C.3   126  ARG126      0.0307
     91  CG        30.6600   23.0530   16.8090 C.3   126  ARG126      0.0489
     92  CD        30.4680   22.1360   18.0220 C.3   126  ARG126      0.2205
     93  NE        31.4730   22.3210   19.0600 N.pl3 126  ARG126     -0.0865
     94  CZ        31.2760   22.8640   20.2600 C.cat 126  ARG126      0.5346
     95  NH1       30.1060   23.3570   20.6280 N.pl3 126  ARG126      0.1354
     96  NH2       32.2720   22.9170   21.1240 N.pl3 126  ARG126      0.1354
     97  N         40.6000   22.1250   23.5620 N.3   146  ARG146     -0.1245
     98  CA        39.4610   22.0790   24.4460 C.3   146  ARG146      0.1563
     99  C         38.2290   21.6100   23.6990 C.2   146  ARG146      0.2260
    100  O         37.9620   22.0390   22.5730 O.2   146  ARG146     -0.2867
    101  CB        39.1950   23.4420   25.0810 C.3   146  ARG146      0.0307
    102  CG        37.9690   23.4680   25.9910 C.3   146  ARG146      0.0489
    103  CD        36.7150   23.8420   25.2200 C.3   146  ARG146      0.2205
    104  NE        35.5080   23.7130   26.0340 N.pl3 146  ARG146     -0.0865
    105  CZ        34.2980   23.9860   25.5950 C.cat 146  ARG146      0.5346
    106  NH1       34.1070   24.3550   24.3320 N.pl3 146  ARG146      0.1354
    107  NH2       33.2690   23.8810   26.4200 N.pl3 146  ARG146      0.1354
    108  N         33.8360   20.5210   24.8790 N.3   148  PRO148     -0.2116
    109  CA        32.9130   20.3230   25.9970 C.3   148  PRO148      0.1372
    110  C         33.0760   18.9340   26.5930 C.2   148  PRO148      0.2244
    111  O         33.6280   18.0310   25.9620 O.2   148  PRO148     -0.2868
    112  CB        31.5350   20.5240   25.3500 C.3   148  PRO148      0.0268
    113  CG        31.8130   21.3060   24.1040 C.3   148  PRO148      0.0207
    114  CD        33.1110   20.7600   23.6180 C.3   148  PRO148      0.0892
    115  N         32.2680   14.5890   22.0700 N.3   153  TYR153     -0.1241
    116  CA        33.3220   15.5240   21.7040 C.3   153  TYR153      0.1605
    117  C         34.7080   14.9420   21.9400 C.2   153  TYR153      0.2264
    118  O         35.6230   15.1000   21.1160 O.2   153  TYR153     -0.2867
    119  CB        33.2090   16.7870   22.5200 C.3   153  TYR153      0.0534
    120  CG        32.0470   17.6650   22.1470 C.ar  153  TYR153     -0.0201
    121  CD1       32.0840   18.4480   21.0160 C.ar  153  TYR153     -0.0009
    122  CD2       30.9310   17.7400   22.9590 C.ar  153  TYR153     -0.0009
    123  CE1       31.0360   19.2940   20.6930 C.ar  153  TYR153      0.0417
    124  CE2       29.8730   18.5690   22.6410 C.ar  153  TYR153      0.0417
    125  CZ        29.9100   19.3300   21.5010 C.ar  153  TYR153      0.1957
    126  OH        28.8860   20.1860   21.1800 O.3   153  TYR153     -0.2866
    127  N         32.8650   25.7330   29.3420 N.3   169  TRP169     -0.1241
    128  CA        33.2260   26.9780   28.6890 C.3   169  TRP169      0.1605
    129  C         33.9100   27.9400   29.6450 C.2   169  TRP169      0.2264
    130  O         34.8590   28.6140   29.2640 O.2   169  TRP169     -0.2867
    131  CB        32.0040   27.6570   28.0430 C.3   169  TRP169      0.0550
    132  CG        32.4100   28.8160   27.2150 C.ar  169  TRP169      0.0003
    133  CD1       32.3380   30.1230   27.5550 C.ar  169  TRP169      0.0946
    134  CD2       33.0290   28.7680   25.9350 C.ar  169  TRP169      0.0152
    135  NE1       32.8560   30.9100   26.5610 N.ar  169  TRP169     -0.2442
    136  CE2       33.2800   30.0980   25.5430 C.ar  169  TRP169      0.0810
    137  CE3       33.3590   27.7350   25.0610 C.ar  169  TRP169      0.0012
    138  CZ2       33.8750   30.4150   24.3260 C.ar  169  TRP169      0.0191
    139  CZ3       33.9440   28.0420   23.8580 C.ar  169  TRP169      0.0001
    140  CH2       34.1960   29.3740   23.4940 C.ar  169  TRP169      0.0015
    141  N         37.4630   24.4820   19.6350 N.3   185  GLU185     -0.1245
    142  CA        36.6910   24.2680   18.4340 C.3   185  GLU185      0.1567
    143  C         35.2970   24.8120   18.6550 C.2   185  GLU185      0.2260
    144  O         34.7180   24.7290   19.7330 O.2   185  GLU185     -0.2867
    145  CB        36.6990   22.7960   18.0020 C.3   185  GLU185      0.0388
    146  CG        36.4140   21.7530   19.0780 C.3   185  GLU185      0.1160
    147  CD        34.9530   21.6000   19.4280 C.2   185  GLU185      0.3649
    148  OE1       34.1370   21.4660   18.4780 O.co2 185  GLU185     -0.2457
    149  OE2       34.6430   21.5900   20.6440 O.co2 185  GLU185     -0.2457
    150  N         29.9370   31.2840   17.7540 N.3   190  THR190     -0.1218
    151  CA        30.6360   31.2370   19.0430 C.3   190  THR190      0.1862
    152  C         31.8950   32.1220   19.0140 C.2   190  THR190      0.2287
    153  O         32.1630   32.8770   19.9520 O.2   190  THR190     -0.2866
    154  CB        31.0100   29.7840   19.3860 C.3   190  THR190      0.1770
    155  OG1       29.8020   29.0410   19.6260 O.3   190  THR190     -0.2211
    156  CG2       31.9370   29.7130   20.5990 C.3   190  THR190      0.0375
    157  N         31.6680   35.3440   21.5910 N.3   194  THR194     -0.1218
    158  CA        32.4340   35.3160   22.8240 C.3   194  THR194      0.1862
    159  C         33.8170   35.9400   22.6360 C.2   194  THR194      0.2287
    160  O         34.6420   35.9030   23.5520 O.2   194  THR194     -0.2866
    161  CB        32.6110   33.8940   23.3580 C.3   194  THR194      0.1770
    162  OG1       33.4030   33.1120   22.4610 O.3   194  THR194     -0.2211
    163  CG2       31.2730   33.2060   23.6060 C.3   194  THR194      0.0375
    164  N         21.6410   23.0460   19.8220 N.3   214  CYS214     -0.1235
    165  CA        21.0040   22.7710   21.1040 C.3   214  CYS214      0.1677
    166  C         19.6400   22.1370   20.9270 C.2   214  CYS214      0.2270
    167  O         18.8670   22.4980   20.0260 O.2   214  CYS214     -0.2867
    168  CB        20.8210   24.0410   21.9260 C.3   214  CYS214      0.0956
    169  SG        22.3470   24.7320   22.5790 S.3   214  CYS214     -0.0801
@<TRIPOS>BOND
     1    89    88    2
     2    86    87    1
     3    88    87    1
     4    87    90    1
     5    76    77    2
     6    76    75    1
     7    90    91    1
     8    74    75    1
     9    75    78    1
    10    91    92    1
    11   150   151    1
    12    78    79    1
    13   145   142    1
    14   145   146    1
    15    92    93    1
    16   142   143    1
    17   142   141    1
    18    80    79   ar
    19    80    82   ar
    20   148   147   ar
    21    79    81   ar
    22   143   144    2
    23    82    84   ar
    24   152   151    1
    25   152   153    2
    26   151   154    1
    27    93    94    2
    28   146   147    1
    29    81    83   ar
    30   154   155    1
    31   154   156    1
    32   147   149   ar
    33    84    83   ar
    34    84    85    1
    35   164   165    1
    36   167   166    2
    37    94    95    1
    38    94    96    1
    39   123   121   ar
    40   123   125   ar
    41    27    26    1
    42    27    28    2
    43   166   165    1
    44   121   120   ar
    45   165   168    1
    46   118   117    2
    47    26    29    1
    48    26    25    1
    49   126   125    1
    50   125   124   ar
    51   157   158    1
    52    33    31   ar
    53   116   117    1
    54   116   115    1
    55   116   119    1
    56    29    30    1
    57    30    31    1
    58    59    60    1
    59    59    56    1
    60   168   169    1
    61    17    18   ar
    62    17    15   ar
    63   120   119    1
    64   120   122   ar
    65    31    32   ar
    66   162   161    1
    67    18    16   ar
    68   100    99    2
    69    60    61   ar
    70    60    62   ar
    71    56    57    1
    72    56    55    1
    73   159   158    1
    74   159   160    2
    75   124   122   ar
    76   158   161    1
    77    15    13   ar
    78    57    58    2
    79   161   163    1
    80   140   139   ar
    81   140   138   ar
    82    97    98    1
    83   114   113    1
    84   114   108    1
    85    99    98    1
    86    55    48   am
    87    16    14   ar
    88   139   137   ar
    89    49    48    2
    90    13    14   ar
    91    13    12    1
    92   113   112    1
    93   138   136   ar
    94   106   105    1
    95    48    47    1
    96    98   101    1
    97    22    21    2
    98   108   109    1
    99    12     9    1
   100   137   134   ar
   101   101   102    1
   102   103   102    1
   103   103   104    1
   104   112   109    1
   105    63    64    1
   106   136   134   ar
   107   136   135   ar
   108   105   104    2
   109   105   107    1
   110    47    46    1
   111    47    50    1
   112    21    20    1
   113   134   132   ar
   114    23    20    1
   115    23    24    1
   116   111   110    2
   117   109   110    1
   118    19    20    1
   119    19    10   am
   120     9    10    1
   121     9     8    1
   122    72    70   ar
   123    72    73   ar
   124    70    68   ar
   125   135   133   ar
   126    10    11    2
   127    50    51    1
   128    64    67    1
   129    64    65    1
   130     7     5    1
   131     8     3   am
   132    73    71   ar
   133   132   133   ar
   134   132   131    1
   135    68    67    1
   136    68    69   ar
   137    65    66    2
   138    53    52   ar
   139     3     4    2
   140     3     2    1
   141   131   128    1
   142    42    40   ar
   143    42    44   ar
   144    51    52    1
   145    45    44    1
   146    71    69   ar
   147    52    54   ar
   148     1     2    1
   149     5     2    1
   150     5     6    1
   151   128   127    1
   152   128   129    1
   153    40    39   ar
   154    44    43   ar
   155   130   129    2
   156    39    41   ar
   157    39    38    1
   158    43    41   ar
   159    35    38    1
   160    35    34    1
   161    35    36    1
   162    36    37    2
