@<TRIPOS>MOLECULE
tmp/4n6wA00.pdb
 163 155 0 0 0
SMALL
GASTEIGER

@<TRIPOS>ATOM
      1  N        -35.2150   13.5450   11.6510 N.3    24  TYR24      -0.1241
      2  CA       -33.9050   13.8760   11.1130 C.3    24  TYR24       0.1605
      3  C        -33.5640   12.7570   10.1320 C.2    24  TYR24       0.2264
      4  O        -33.3120   11.6250   10.5500 O.2    24  TYR24      -0.2867
      5  CB       -32.8750   13.9430   12.2460 C.3    24  TYR24       0.0534
      6  CG       -31.4720   14.2710   11.7930 C.ar   24  TYR24      -0.0201
      7  CD1      -30.6090   13.2720   11.3630 C.ar   24  TYR24      -0.0009
      8  CD2      -31.0060   15.5800   11.8040 C.ar   24  TYR24      -0.0009
      9  CE1      -29.3220   13.5650   10.9460 C.ar   24  TYR24       0.0417
     10  CE2      -29.7230   15.8840   11.3940 C.ar   24  TYR24       0.0417
     11  CZ       -28.8850   14.8710   10.9650 C.ar   24  TYR24       0.1957
     12  OH       -27.6040   15.1670   10.5520 O.3    24  TYR24      -0.2866
     13  N        -35.4430   15.8770   15.2220 N.3    31  GLN31      -0.1245
     14  CA       -34.8200   17.2050   15.1350 C.3    31  GLN31       0.1566
     15  C        -34.4940   17.7590   16.5170 C.2    31  GLN31       0.2260
     16  O        -33.5010   18.4780   16.6900 O.2    31  GLN31      -0.2867
     17  CB       -35.7120   18.2030   14.3860 C.3    31  GLN31       0.0367
     18  CG       -35.7670   18.0220   12.8540 C.3    31  GLN31       0.0905
     19  CD       -34.4290   18.2680   12.1790 C.2    31  GLN31       0.2608
     20  OE1      -33.6510   19.1350   12.5950 O.2    31  GLN31      -0.2717
     21  NE2      -34.1570   17.5090   11.1250 N.am   31  GLN31      -0.0878
     22  N        -31.3450   16.2320   17.7500 N.3    34  HIS34      -0.1241
     23  CA       -30.2360   16.8310   17.0010 C.3    34  HIS34       0.1621
     24  C        -29.8220   18.1730   17.6100 C.2    34  HIS34       0.2264
     25  O        -28.6480   18.3840   17.9080 O.2    34  HIS34      -0.2867
     26  CB       -30.6220   16.9950   15.5320 C.3    34  HIS34       0.0745
     27  CG       -29.6170   17.7500   14.7110 C.ar   34  HIS34       0.0817
     28  ND1      -28.2790   17.4180   14.6770 N.ar   34  HIS34      -0.2268
     29  CD2      -29.7630   18.8160   13.8930 C.ar   34  HIS34       0.1154
     30  CE1      -27.6440   18.2460   13.8640 C.ar   34  HIS34       0.1986
     31  NE2      -28.5190   19.1070   13.3770 N.ar   34  HIS34      -0.2212
     32  N        -30.5790   25.0890   13.5870 N.3    59  ASP59      -0.1239
     33  CA       -31.5630   24.5470   12.6410 C.3    59  ASP59       0.1674
     34  C        -32.9720   25.0660   12.9150 C.2    59  ASP59       0.2266
     35  O        -33.9450   24.5130   12.4000 O.2    59  ASP59      -0.2867
     36  CB       -31.5320   23.0040   12.6270 C.3    59  ASP59       0.1410
     37  CG       -30.4930   22.4400   11.6580 C.2    59  ASP59       0.3668
     38  OD1      -30.0900   23.1690   10.7150 O.co2  59  ASP59      -0.2456
     39  OD2      -30.0750   21.2670   11.8380 O.co2  59  ASP59      -0.2456
     40  N        -35.7220   25.3350   10.3490 N.3    62  HIS62      -0.1241
     41  CA       -36.4890   24.1870    9.8620 C.3    62  HIS62       0.1621
     42  C        -37.8680   24.0930   10.5230 C.2    62  HIS62       0.2264
     43  O        -38.7270   23.3390   10.0520 O.2    62  HIS62      -0.2867
     44  CB       -35.7500   22.8690   10.1230 C.3    62  HIS62       0.0745
     45  CG       -34.5960   22.6080    9.2060 C.ar   62  HIS62       0.0817
     46  ND1      -34.6350   22.8690    7.8510 N.ar   62  HIS62      -0.2268
     47  CD2      -33.3760   22.0740    9.4460 C.ar   62  HIS62       0.1154
     48  CE1      -33.4870   22.5190    7.3020 C.ar   62  HIS62       0.1986
     49  NE2      -32.7020   22.0340    8.2500 N.ar   62  HIS62      -0.2212
     50  N        -36.6730   17.1240    4.2450 N.3    68  TYR68      -0.1227
     51  CA       -35.2410   17.3840    4.3520 C.3    68  TYR68       0.1736
     52  C        -35.0070   18.7670    4.9470 C.2    68  TYR68       0.2596
     53  O        -33.8820   19.1160    5.3320 O.2    68  TYR68      -0.2718
     54  CB       -34.5730   17.2690    2.9820 C.3    68  TYR68       0.0548
     55  CG       -34.5000   15.8500    2.4880 C.ar   68  TYR68      -0.0200
     56  CD1      -35.5750   15.2670    1.8240 C.ar   68  TYR68      -0.0009
     57  CD2      -33.3640   15.0820    2.7030 C.ar   68  TYR68      -0.0009
     58  CE1      -35.5110   13.9610    1.3740 C.ar   68  TYR68       0.0417
     59  CE2      -33.2900   13.7770    2.2590 C.ar   68  TYR68       0.0417
     60  CZ       -34.3650   13.2230    1.5930 C.ar   68  TYR68       0.1957
     61  OH       -34.2940   11.9170    1.1530 O.3    68  TYR68      -0.2866
     62  N        -36.0760   19.5530    5.0180 N.am   69  GLY69      -0.1942
     63  CA       -36.0180   20.8220    5.7160 C.3    69  GLY69       0.2014
     64  C        -36.5290   21.9970    4.9150 C.2    69  GLY69       0.2638
     65  O        -37.0550   21.8440    3.8150 O.2    69  GLY69      -0.2714
     66  N        -36.3560   23.1840    5.4790 N.am   70  VAL70      -0.1977
     67  CA       -36.8660   24.4040    4.8890 C.3    70  VAL70       0.1596
     68  C        -35.8090   25.0220    3.9880 C.2    70  VAL70       0.2287
     69  O        -34.6390   25.0790    4.3590 O.2    70  VAL70      -0.2864
     70  CB       -37.2520   25.3850    6.0030 C.3    70  VAL70       0.0276
     71  CG1      -37.5400   26.7640    5.4380 C.3    70  VAL70       0.0022
     72  CG2      -38.4530   24.8410    6.7840 C.3    70  VAL70       0.0022
     73  N        -33.0670   27.5420    5.3040 N.3    73  HIS73      -0.1241
     74  CA       -33.3140   27.5010    6.7540 C.3    73  HIS73       0.1621
     75  C        -32.2870   28.2940    7.5560 C.2    73  HIS73       0.2264
     76  O        -32.6000   28.8300    8.6300 O.2    73  HIS73      -0.2867
     77  CB       -33.3700   26.0530    7.2490 C.3    73  HIS73       0.0745
     78  CG       -32.0300   25.3790    7.3520 C.ar   73  HIS73       0.0817
     79  ND1      -31.2690   25.0470    6.2510 N.ar   73  HIS73      -0.2268
     80  CD2      -31.3440   24.9250    8.4320 C.ar   73  HIS73       0.1154
     81  CE1      -30.1610   24.4440    6.6450 C.ar   73  HIS73       0.1986
     82  NE2      -30.1780   24.3630    7.9670 N.ar   73  HIS73      -0.2212
     83  N        -23.8390   28.3130    8.7370 N.3    97  HIS97      -0.1226
     84  CA       -23.5900   26.8780    8.8860 C.3    97  HIS97       0.1752
     85  C        -23.7880   26.0530    7.6070 C.2    97  HIS97       0.2595
     86  O        -23.2320   24.9530    7.4790 O.2    97  HIS97      -0.2718
     87  CB       -24.3310   26.2900   10.1090 C.3    97  HIS97       0.0759
     88  CG       -25.7140   25.7820    9.8100 C.ar   97  HIS97       0.0818
     89  ND1      -26.8280   26.5950    9.8290 N.ar   97  HIS97      -0.2268
     90  CD2      -26.1630   24.5360    9.5300 C.ar   97  HIS97       0.1154
     91  CE1      -27.9020   25.8760    9.5440 C.ar   97  HIS97       0.1986
     92  NE2      -27.5280   24.6230    9.3560 N.ar   97  HIS97      -0.2212
     93  N        -24.5350   26.5870    6.6380 N.am   98  VAL98      -0.1980
     94  CA       -24.6310   25.9030    5.3520 C.3    98  VAL98       0.1595
     95  C        -23.3490   26.1410    4.5500 C.2    98  VAL98       0.2287
     96  O        -22.7940   25.2150    3.9600 O.2    98  VAL98      -0.2864
     97  CB       -25.8840   26.3390    4.5740 C.3    98  VAL98       0.0276
     98  CG1      -25.8010   25.8920    3.1230 C.3    98  VAL98       0.0022
     99  CG2      -27.1420   25.7710    5.2600 C.3    98  VAL98       0.0022
    100  N        -20.6630   23.9300    5.6770 N.3   101  LYS101     -0.1245
    101  CA       -20.7560   22.5870    5.1140 C.3   101  LYS101      0.1561
    102  C        -20.1140   22.5600    3.7310 C.2   101  LYS101      0.2260
    103  O        -19.3350   21.6480    3.4170 O.2   101  LYS101     -0.2867
    104  CB       -22.2170   22.1200    5.0350 C.3   101  LYS101      0.0271
    105  CG       -22.4260   20.8490    4.1960 C.3   101  LYS101      0.0035
    106  CD       -23.8830   20.3470    4.2470 C.3   101  LYS101      0.0206
    107  CE       -24.8680   21.3890    3.7230 C.3   101  LYS101      0.1093
    108  NZ       -26.3040   20.9000    3.6800 N.3   101  LYS101     -0.1314
    109  N        -29.7610   13.9220    5.1430 N.3   118  ALA118     -0.1231
    110  CA       -30.3580   15.2550    5.0560 C.3   118  ALA118      0.1694
    111  C        -29.3390   16.3030    4.6070 C.2   118  ALA118      0.2592
    112  O        -29.6070   17.0830    3.6960 O.2   118  ALA118     -0.2718
    113  CB       -30.9780   15.6600    6.3830 C.3   118  ALA118      0.0304
    114  N        -28.1760   16.3300    5.2510 N.am  119  SER119     -0.1952
    115  CA       -27.1450   17.3100    4.9050 C.3   119  SER119      0.1924
    116  C        -26.6060   17.1140    3.4930 C.2   119  SER119      0.2314
    117  O        -26.3110   18.0850    2.7930 O.2   119  SER119     -0.2863
    118  CB       -25.9850   17.2310    5.9000 C.3   119  SER119      0.2116
    119  OG       -26.4640   17.2850    7.2290 O.3   119  SER119     -0.2180
    120  N        -29.3630   18.2020    0.4940 N.3   122  THR122     -0.1218
    121  CA       -29.5750   19.6260    0.2620 C.3   122  THR122      0.1862
    122  C        -28.3620   20.3060   -0.3550 C.2   122  THR122      0.2287
    123  O        -28.4940   21.3370   -1.0220 O.2   122  THR122     -0.2866
    124  CB       -29.8840   20.3470    1.5820 C.3   122  THR122      0.1770
    125  OG1      -28.9110   19.9660    2.5710 O.3   122  THR122     -0.2211
    126  CG2      -31.2790   19.9710    2.0830 C.3   122  THR122      0.0375
    127  N        -27.8150   23.8850   -2.6010 N.3   126  GLN126     -0.1245
    128  CA       -27.2080   25.0040   -1.8910 C.3   126  GLN126      0.1566
    129  C        -25.9470   25.5380   -2.5810 C.2   126  GLN126      0.2260
    130  O        -25.3830   26.5530   -2.1600 O.2   126  GLN126     -0.2867
    131  CB       -26.8970   24.5900   -0.4430 C.3   126  GLN126      0.0367
    132  CG       -28.1650   24.5010    0.4040 C.3   126  GLN126      0.0905
    133  CD       -28.0150   23.6210    1.6340 C.2   126  GLN126      0.2608
    134  OE1      -27.0950   22.8060    1.7350 O.2   126  GLN126     -0.2717
    135  NE2      -28.9350   23.7740    2.5710 N.am  126  GLN126     -0.0878
    136  N        -20.3350   23.7890   12.7390 N.3   151  ARG151     -0.1245
    137  CA       -20.5940   22.7230   11.7750 C.3   151  ARG151      0.1563
    138  C        -20.0500   21.3600   12.2140 C.2   151  ARG151      0.2260
    139  O        -20.6800   20.3330   11.9640 O.2   151  ARG151     -0.2867
    140  CB       -20.0800   23.0980   10.3690 C.3   151  ARG151      0.0307
    141  CG       -20.5390   22.1160    9.2780 C.3   151  ARG151      0.0489
    142  CD       -21.9990   22.3360    8.8720 C.3   151  ARG151      0.2205
    143  NE       -22.6830   21.0870    8.5260 N.pl3 151  ARG151     -0.0865
    144  CZ       -23.8990   21.0200    7.9850 C.cat 151  ARG151      0.5346
    145  NH1      -24.5640   22.1300    7.6740 N.pl3 151  ARG151      0.1354
    146  NH2      -24.4520   19.8370    7.7440 N.pl3 151  ARG151      0.1354
    147  N        -22.5900   20.0870   14.5520 N.3   154  ASP154     -0.1225
    148  CA       -23.7190   19.7300   13.6880 C.3   154  ASP154      0.1805
    149  C        -23.5470   18.3020   13.1550 C.2   154  ASP154      0.2597
    150  O        -24.4790   17.4940   13.1990 O.2   154  ASP154     -0.2718
    151  CB       -23.7780   20.7530   12.5300 C.3   154  ASP154      0.1424
    152  CG       -25.0950   20.7380   11.7470 C.2   154  ASP154      0.3668
    153  OD1      -26.0500   20.0040   12.0930 O.co2 154  ASP154     -0.2456
    154  OD2      -25.1760   21.5110   10.7580 O.co2 154  ASP154     -0.2456
    155  N        -22.3540   17.9750   12.6650 N.am  155  GLU155     -0.1979
    156  CA       -22.1180   16.6380   12.1110 C.3   155  GLU155      0.1602
    157  C        -22.0720   15.5650   13.2020 C.2   155  GLU155      0.2287
    158  O        -22.3690   14.3970   12.9460 O.2   155  GLU155     -0.2864
    159  CB       -20.8240   16.6030   11.2830 C.3   155  GLU155      0.0415
    160  CG       -21.0330   16.5350    9.7590 C.3   155  GLU155      0.1163
    161  CD       -21.7230   17.7690    9.1980 C.2   155  GLU155      0.3649
    162  OE1      -22.9580   17.7200    8.9860 O.co2 155  GLU155     -0.2457
    163  OE2      -21.0360   18.7830    8.9550 O.co2 155  GLU155     -0.2457
@<TRIPOS>BOND
     1   127   128    1
     2   129   130    2
     3   129   128    1
     4   128   131    1
     5   123   122    2
     6   131   132    1
     7   122   121    1
     8   121   120    1
     9   121   124    1
    10   132   133    1
    11    61    60    1
    12    58    60   ar
    13    58    56   ar
    14   124   126    1
    15   124   125    1
    16    60    59   ar
    17   133   134    2
    18   133   135   am
    19    56    55   ar
    20    59    57   ar
    21    55    57   ar
    22    55    54    1
    23   117   116    2
    24    54    51    1
    25    98    97    1
    26   103   102    2
    27   116   115    1
    28   108   107    1
    29   112   111    2
    30   107   106    1
    31   102   101    1
    32    65    64    2
    33    96    95    2
    34    68    69    2
    35    68    67    1
    36   105   106    1
    37   105   104    1
    38    50    51    1
    39    51    52    1
    40    95    94    1
    41    97    99    1
    42    97    94    1
    43   111   110    1
    44   111   114   am
    45    67    66    1
    46    67    70    1
    47   115   114    1
    48   115   118    1
    49    64    66   am
    50    64    63    1
    51    52    62   am
    52    52    53    2
    53    62    63    1
    54   104   101    1
    55   110   109    1
    56   110   113    1
    57   101   100    1
    58    73    74    1
    59    94    93    1
    60    71    70    1
    61   118   119    1
    62    70    72    1
    63    79    81   ar
    64    79    78   ar
    65    93    85   am
    66    81    82   ar
    67    74    77    1
    68    74    75    1
    69    77    78    1
    70    48    46   ar
    71    48    49   ar
    72    78    80   ar
    73    86    85    2
    74    75    76    2
    75    85    84    1
    76   145   144    1
    77   146   144    1
    78    46    45   ar
    79    82    80   ar
    80   144   143    2
    81    49    47   ar
    82   143   142    1
    83    83    84    1
    84   142   141    1
    85    84    87    1
    86   163   161   ar
    87   162   161   ar
    88   161   160    1
    89    45    47   ar
    90    45    44    1
    91   141   140    1
    92    92    90   ar
    93    92    91   ar
    94    90    88   ar
    95    91    89   ar
    96   160   159    1
    97    88    89   ar
    98    88    87    1
    99    41    44    1
   100    41    40    1
   101    41    42    1
   102    43    42    2
   103     3     4    2
   104     3     2    1
   105   140   137    1
   106    12    11    1
   107    38    37   ar
   108   154   152   ar
   109     9    11   ar
   110     9     7   ar
   111    11    10   ar
   112     2     1    1
   113     2     5    1
   114    21    19   am
   115   159   156    1
   116     7     6   ar
   117    10     8   ar
   118    37    39   ar
   119    37    36    1
   120   152   153   ar
   121   152   151    1
   122   137   138    1
   123   137   136    1
   124     6     8   ar
   125     6     5    1
   126   139   138    2
   127   156   155    1
   128   156   157    1
   129    19    20    2
   130    19    18    1
   131    35    34    2
   132   151   148    1
   133    36    33    1
   134    33    34    1
   135    33    32    1
   136   155   149   am
   137    18    17    1
   138   158   157    2
   139   149   150    2
   140   149   148    1
   141    31    30   ar
   142    31    29   ar
   143   148   147    1
   144    30    28   ar
   145    29    27   ar
   146    17    14    1
   147    28    27   ar
   148    27    26    1
   149    14    13    1
   150    14    15    1
   151    26    23    1
   152    15    16    2
   153    23    24    1
   154    23    22    1
   155    24    25    2
