@<TRIPOS>MOLECULE
tmp/4n6yA00.pdb
 177 165 0 0 0
SMALL
GASTEIGER

@<TRIPOS>ATOM
      1  N         17.0220   38.2560   -5.2320 N.3    13  LEU13      -0.1231
      2  CA        18.4210   37.9530   -5.4820 C.3    13  LEU13       0.1693
      3  C         18.5530   36.6040   -6.1710 C.2    13  LEU13       0.2592
      4  O         19.4380   36.4250   -7.0090 O.2    13  LEU13      -0.2718
      5  CB        19.2230   37.9260   -4.1710 C.3    13  LEU13       0.0284
      6  CG        19.4110   39.2390   -3.4010 C.3    13  LEU13       0.0019
      7  CD1       20.0670   38.9750   -2.0550 C.3    13  LEU13       0.0001
      8  CD2       20.2280   40.2550   -4.1990 C.3    13  LEU13       0.0001
      9  N         17.7070   35.6570   -5.7970 N.am   14  GLY14      -0.1957
     10  CA        17.7600   34.3230   -6.3640 C.3    14  GLY14       0.1869
     11  C         16.7150   33.3890   -5.8120 C.2    14  GLY14       0.2309
     12  O         16.1130   33.6640   -4.7780 O.2    14  GLY14      -0.2863
     13  N         16.9050   26.3870   -2.2400 N.3    18  PHE18      -0.1241
     14  CA        17.1370   27.0810   -0.9810 C.3    18  PHE18       0.1605
     15  C         15.9250   27.7890   -0.2150 C.2    18  PHE18       0.2264
     16  O         16.0190   27.8040    1.0020 O.2    18  PHE18      -0.2867
     17  CB        18.2740   28.0870   -1.1270 C.3    18  PHE18       0.0534
     18  CG        18.4480   28.7400   -2.4790 C.ar   18  PHE18      -0.0203
     19  CD1       19.2210   28.1360   -3.4670 C.ar   18  PHE18      -0.0042
     20  CD2       17.8890   29.9860   -2.7430 C.ar   18  PHE18      -0.0042
     21  CE1       19.4000   28.7480   -4.7050 C.ar   18  PHE18      -0.0003
     22  CE2       18.0880   30.6090   -3.9700 C.ar   18  PHE18      -0.0003
     23  CZ        18.8350   29.9850   -4.9480 C.ar   18  PHE18      -0.0000
     24  N         15.2400   34.0380   -2.1540 N.3    21  VAL21      -0.1245
     25  CA        16.0240   35.0540   -1.4370 C.3    21  VAL21       0.1561
     26  C         15.8770   36.4410   -2.0580 C.2    21  VAL21       0.2260
     27  O         16.1160   36.6120   -3.2490 O.2    21  VAL21      -0.2867
     28  CB        17.5170   34.6340   -1.2770 C.3    21  VAL21       0.0252
     29  CG1       18.3310   35.7050   -0.5410 C.3    21  VAL21       0.0019
     30  CG2       17.6420   33.2750   -0.5730 C.3    21  VAL21       0.0019
     31  N         19.5670   40.3460    3.5630 N.3    34  ALA34      -0.1245
     32  CA        19.0200   39.3800    2.6260 C.3    34  ALA34       0.1562
     33  C         17.9020   38.6780    3.4030 C.2    34  ALA34       0.2260
     34  O         18.0630   38.3570    4.5750 O.2    34  ALA34      -0.2867
     35  CB        20.0810   38.3900    2.1650 C.3    34  ALA34       0.0290
     36  N         15.4660   35.5040    3.2150 N.3    36  LYS36      -0.1245
     37  CA        15.2410   34.1890    2.6410 C.3    36  LYS36       0.1561
     38  C         13.9530   33.5410    3.1230 C.2    36  LYS36       0.2260
     39  O         13.7420   33.3720    4.3210 O.2    36  LYS36      -0.2867
     40  CB        16.4260   33.2760    2.9400 C.3    36  LYS36       0.0271
     41  CG        16.1960   31.8770    2.4400 C.3    36  LYS36       0.0035
     42  CD        17.4070   31.0700    2.5660 C.3    36  LYS36       0.0206
     43  CE        17.0260   29.8160    3.2660 C.3    36  LYS36       0.1093
     44  NZ        17.8070   28.6990    2.7230 N.3    36  LYS36      -0.1314
     45  N         19.3010   24.3330    8.6730 N.3    58  GLU58      -0.1245
     46  CA        20.0070   25.5330    8.2520 C.3    58  GLU58       0.1567
     47  C         20.0790   26.6070    9.3510 C.2    58  GLU58       0.2260
     48  O         21.0860   27.3080    9.4400 O.2    58  GLU58      -0.2867
     49  CB        19.3380   26.0890    7.0160 C.3    58  GLU58       0.0388
     50  CG        20.1710   27.1180    6.2880 C.3    58  GLU58       0.1160
     51  CD        19.3960   27.7840    5.1820 C.2    58  GLU58       0.3649
     52  OE1       18.1540   27.8310    5.2920 O.co2  58  GLU58      -0.2457
     53  OE2       20.0230   28.2890    4.2270 O.co2  58  GLU58      -0.2457
     54  N         23.6140   27.8110   10.8720 N.3    62  LEU62      -0.1245
     55  CA        23.9250   29.2480   10.8230 C.3    62  LEU62       0.1561
     56  C         24.1800   29.8260   12.2140 C.2    62  LEU62       0.2260
     57  O         25.1840   30.5020   12.3960 O.2    62  LEU62      -0.2867
     58  CB        22.8540   30.0430   10.0660 C.3    62  LEU62       0.0270
     59  CG        22.8330   29.8750    8.5560 C.3    62  LEU62       0.0019
     60  CD1       21.4910   30.3140    7.9930 C.3    62  LEU62       0.0001
     61  CD2       23.9540   30.6750    7.8890 C.3    62  LEU62       0.0001
     62  N         28.3690   34.3690    5.9000 N.3    73  ILE73      -0.1245
     63  CA        27.2460   35.2950    5.9410 C.3    73  ILE73       0.1561
     64  C         26.4480   34.9290    7.2070 C.2    73  ILE73       0.2260
     65  O         25.9790   33.7950    7.3640 O.2    73  ILE73      -0.2867
     66  CB        26.4400   35.3260    4.5970 C.3    73  ILE73       0.0252
     67  CG1       27.1710   36.1750    3.5150 C.3    73  ILE73       0.0019
     68  CG2       24.9590   35.7390    4.7460 C.3    73  ILE73       0.0019
     69  CD1       27.3600   37.6390    3.7690 C.3    73  ILE73       0.0001
     70  N         14.4140   33.7870    6.9790 N.3    87  LEU87      -0.1245
     71  CA        15.7630   34.0280    7.4890 C.3    87  LEU87       0.1561
     72  C         16.2660   35.4040    7.0970 C.2    87  LEU87       0.2260
     73  O         16.2020   35.7710    5.9200 O.2    87  LEU87      -0.2867
     74  CB        16.7740   32.9620    7.0040 C.3    87  LEU87       0.0270
     75  CG        16.4750   31.4450    7.1370 C.3    87  LEU87       0.0019
     76  CD1       17.7690   30.6580    7.1600 C.3    87  LEU87       0.0001
     77  CD2       15.6940   31.0830    8.4100 C.3    87  LEU87       0.0001
     78  N         19.5730   37.5540    6.8350 N.3    89  LEU89      -0.1231
     79  CA        21.0160   37.3900    6.7050 C.3    89  LEU89       0.1693
     80  C         21.7210   38.6920    6.3490 C.2    89  LEU89       0.2592
     81  O         21.0950   39.6120    5.8440 O.2    89  LEU89      -0.2718
     82  CB        21.3000   36.3370    5.6170 C.3    89  LEU89       0.0284
     83  CG        20.6450   34.9880    5.8130 C.3    89  LEU89       0.0019
     84  CD1       19.8930   34.5760    4.5620 C.3    89  LEU89       0.0001
     85  CD2       21.6500   33.9470    6.2590 C.3    89  LEU89       0.0001
     86  N         23.0480   38.7520    6.5910 N.am   90  GLU90      -0.1966
     87  CA        23.8710   39.9070    6.2160 C.3    90  GLU90       0.1733
     88  C         23.8770   40.0030    4.6950 C.2    90  GLU90       0.2616
     89  O         23.7410   38.9930    4.0160 O.2    90  GLU90      -0.2715
     90  CB        25.3380   39.7000    6.6440 C.3    90  GLU90       0.0429
     91  CG        25.6220   39.5740    8.1250 C.3    90  GLU90       0.1163
     92  CD        27.1120   39.5580    8.4230 C.2    90  GLU90       0.3649
     93  OE1       27.7670   38.5280    8.1400 O.co2  90  GLU90      -0.2457
     94  OE2       27.6320   40.5810    8.9210 O.co2  90  GLU90      -0.2457
     95  N         24.0340   41.2040    4.1610 N.am   91  ARG91      -0.1964
     96  CA        24.1990   41.3980    2.7260 C.3    91  ARG91       0.1714
     97  C         25.2650   42.4510    2.4770 C.2    91  ARG91       0.2458
     98  O         25.0570   43.6290    2.7960 O.2    91  ARG91      -0.2730
     99  CB        22.9050   41.7300    1.9730 C.3    91  ARG91       0.0347
    100  CG        23.1640   42.1690    0.5080 C.3    91  ARG91       0.0492
    101  CD        21.9160   42.5130   -0.2760 C.3    91  ARG91       0.2205
    102  NE        21.1210   43.5610    0.3630 N.pl3  91  ARG91      -0.0865
    103  CZ        21.2100   44.8590    0.0900 C.cat  91  ARG91       0.5346
    104  NH1       20.4320   45.7310    0.7230 N.pl3  91  ARG91       0.1354
    105  NH2       22.0680   45.2950   -0.8250 N.pl3  91  ARG91       0.1354
    106  N         26.4180   42.0410    1.9100 N.am   92  PRO92      -0.2727
    107  CA        27.4450   43.0360    1.5660 C.3    92  PRO92       0.1402
    108  C         26.9580   43.9200    0.4030 C.2    92  PRO92       0.2269
    109  O         26.1470   43.4810   -0.4250 O.2    92  PRO92      -0.2865
    110  CB        28.6610   42.1710    1.1760 C.3    92  PRO92       0.0296
    111  CG        28.3080   40.7450    1.5810 C.3    92  PRO92       0.0237
    112  CD        26.8210   40.6800    1.4940 C.3    92  PRO92       0.0939
    113  N         28.6030   43.9920   -3.8640 N.3    95  VAL95      -0.1231
    114  CA        28.8800   42.5650   -3.8040 C.3    95  VAL95       0.1692
    115  C         28.7800   41.9130   -5.1950 C.2    95  VAL95       0.2592
    116  O         28.0750   42.4070   -6.0790 O.2    95  VAL95      -0.2718
    117  CB        27.9410   41.9010   -2.7590 C.3    95  VAL95       0.0266
    118  CG1       26.5120   41.7660   -3.2980 C.3    95  VAL95       0.0020
    119  CG2       28.4900   40.5640   -2.2600 C.3    95  VAL95       0.0020
    120  N         29.5010   40.8110   -5.3730 N.am   96  GLN96      -0.1966
    121  CA        29.4640   39.9820   -6.5600 C.3    96  GLN96       0.1733
    122  C         29.7880   38.5790   -6.1190 C.2    96  GLN96       0.2616
    123  O         30.7250   38.4040   -5.3470 O.2    96  GLN96      -0.2715
    124  CB        30.4540   40.4540   -7.6320 C.3    96  GLN96       0.0408
    125  CG        30.3860   39.5630   -8.8730 C.3    96  GLN96       0.0908
    126  CD        30.7770   40.2020  -10.1620 C.2    96  GLN96       0.2608
    127  OE1       29.9700   40.2660  -11.0950 O.2    96  GLN96      -0.2717
    128  NE2       32.0410   40.5790  -10.2870 N.am   96  GLN96      -0.0878
    129  N         29.0170   37.5730   -6.5730 N.am   97  ASP97      -0.1971
    130  CA        29.3680   36.2030   -6.2260 C.3    97  ASP97       0.1709
    131  C         30.5990   35.7720   -7.0540 C.2    97  ASP97       0.2293
    132  O         30.8670   36.3680   -8.1220 O.2    97  ASP97      -0.2864
    133  CB        28.1650   35.2240   -6.2840 C.3    97  ASP97       0.1436
    134  CG        27.6490   34.6900   -7.6200 C.2    97  ASP97       0.3671
    135  OD1       28.3770   34.7850   -8.6240 O.co2  97  ASP97      -0.2456
    136  OD2       26.5540   34.0830   -7.6310 O.co2  97  ASP97      -0.2456
    137  N         29.2020   29.6080   -6.7760 N.3   140  GLU140     -0.1231
    138  CA        27.8850   30.2360   -6.5600 C.3   140  GLU140      0.1699
    139  C         27.6040   30.6090   -5.0940 C.2   140  GLU140      0.2592
    140  O         26.9070   31.5960   -4.8380 O.2   140  GLU140     -0.2718
    141  CB        26.7720   29.3170   -7.0610 C.3   140  GLU140      0.0402
    142  CG        26.5500   29.3490   -8.5630 C.3   140  GLU140      0.1161
    143  CD        25.6080   28.2870   -9.1030 C.2   140  GLU140      0.3649
    144  OE1       24.4530   28.2150   -8.6270 O.co2 140  GLU140     -0.2457
    145  OE2       26.0200   27.5340  -10.0140 O.co2 140  GLU140     -0.2457
    146  N         28.1490   29.8150   -4.1450 N.am  141  ASN141     -0.1974
    147  CA        27.9880   29.9500   -2.6980 C.3   141  ASN141      0.1688
    148  C         29.0970   30.7570   -2.0220 C.2   141  ASN141      0.2292
    149  O         29.2360   30.6990   -0.7910 O.2   141  ASN141     -0.2864
    150  CB        27.8160   28.5590   -2.0310 C.3   141  ASN141      0.1181
    151  CG        26.5160   27.9210   -2.3870 C.2   141  ASN141      0.2629
    152  OD1       25.5340   28.6000   -2.7300 O.2   141  ASN141     -0.2716
    153  ND2       26.4980   26.6050   -2.4070 N.am  141  ASN141     -0.0877
    154  N         30.4900   34.7860   -1.8330 N.3   143  LEU143     -0.1245
    155  CA        30.2670   36.1900   -2.2080 C.3   143  LEU143      0.1561
    156  C         31.5250   36.9680   -1.9560 C.2   143  LEU143      0.2260
    157  O         32.2120   36.7240   -0.9600 O.2   143  LEU143     -0.2867
    158  CB        29.1400   36.8450   -1.3840 C.3   143  LEU143      0.0270
    159  CG        27.7700   36.1980   -1.3800 C.3   143  LEU143      0.0019
    160  CD1       26.8560   36.9740   -0.4830 C.3   143  LEU143      0.0001
    161  CD2       27.1930   36.0850   -2.8040 C.3   143  LEU143      0.0001
    162  N         27.8680   31.3440    1.7760 N.3   154  ILE154     -0.1231
    163  CA        26.4080   31.3790    1.8490 C.3   154  ILE154      0.1692
    164  C         25.8850   29.9730    1.6310 C.2   154  ILE154      0.2592
    165  O         26.6300   29.0900    1.1840 O.2   154  ILE154     -0.2718
    166  CB        25.7700   32.4040    0.8530 C.3   154  ILE154      0.0266
    167  CG1       26.1480   32.0790   -0.5920 C.3   154  ILE154      0.0019
    168  CG2       26.1400   33.8300    1.2180 C.3   154  ILE154      0.0020
    169  CD1       25.6730   32.9650   -1.6430 C.3   154  ILE154      0.0001
    170  N         24.6060   29.7800    1.9630 N.am  155  ASP155     -0.1974
    171  CA        23.7960   28.5730    1.7860 C.3   155  ASP155      0.1709
    172  C         24.3160   27.3320    2.5280 C.2   155  ASP155      0.2293
    173  O         25.0380   26.5070    1.9550 O.2   155  ASP155     -0.2864
    174  CB        23.5580   28.2720    0.2880 C.3   155  ASP155      0.1436
    175  CG        22.5300   27.1930    0.0070 C.2   155  ASP155      0.3671
    176  OD1       21.7540   26.8420    0.9390 O.co2 155  ASP155     -0.2456
    177  OD2       22.4890   26.7000   -1.1410 O.co2 155  ASP155     -0.2456
@<TRIPOS>BOND
     1   127   126    2
     2   128   126   am
     3   126   125    1
     4   145   143   ar
     5   143   144   ar
     6   143   142    1
     7   125   124    1
     8   135   134   ar
     9   142   141    1
    10   132   131    2
    11   124   121    1
    12   136   134   ar
    13   134   133    1
    14   141   138    1
    15   131   130    1
    16     4     3    2
    17   137   138    1
    18   129   130    1
    19   129   122   am
    20   121   122    1
    21   121   120    1
    22   138   139    1
    23    10    11    1
    24    10     9    1
    25   133   130    1
    26     3     9   am
    27     3     2    1
    28   122   123    2
    29   116   115    2
    30    11    12    2
    31     2     1    1
    32     2     5    1
    33   120   115   am
    34   115   114    1
    35   139   140    2
    36   139   146   am
    37    23    21   ar
    38    23    22   ar
    39    21    19   ar
    40     8     6    1
    41     5     6    1
    42   146   147    1
    43    22    20   ar
    44   113   114    1
    45   114   117    1
    46    19    18   ar
    47     6     7    1
    48   118   117    1
    49    27    26    2
    50   161   159    1
    51   117   119    1
    52    20    18   ar
    53   152   151    2
    54   147   150    1
    55   147   148    1
    56    18    17    1
    57   153   151   am
    58   151   150    1
    59    13    14    1
    60   155   156    1
    61   155   154    1
    62   155   158    1
    63    24    25    1
    64    26    25    1
    65   148   149    2
    66   156   157    2
    67   169   167    1
    68    25    28    1
    69   158   159    1
    70   159   160    1
    71    28    30    1
    72    28    29    1
    73   177   175   ar
    74    17    14    1
    75    14    15    1
    76   105   103    1
    77   167   166    1
    78   109   108    2
    79   101   102    1
    80   101   100    1
    81    15    16    2
    82   175   174    1
    83   175   176   ar
    84   103   102    2
    85   103   104    1
    86   174   171    1
    87   108   107    1
    88   100    99    1
    89   166   168    1
    90   166   163    1
    91   110   107    1
    92   110   111    1
    93   165   164    2
    94   112   111    1
    95   112   106    1
    96   107   106    1
    97   164   163    1
    98   164   170   am
    99   162   163    1
   100   171   170    1
   101   171   172    1
   102   106    97   am
   103   173   172    2
   104    99    96    1
   105    35    32    1
   106    41    42    1
   107    41    40    1
   108    97    96    1
   109    97    98    2
   110    42    43    1
   111    32    33    1
   112    32    31    1
   113    37    40    1
   114    37    38    1
   115    37    36    1
   116    44    43    1
   117    96    95    1
   118    38    39    2
   119    33    34    2
   120    67    69    1
   121    67    66    1
   122    89    88    2
   123    95    88   am
   124    53    51   ar
   125    84    83    1
   126    66    68    1
   127    66    63    1
   128    88    87    1
   129    51    52   ar
   130    51    50    1
   131    82    83    1
   132    82    79    1
   133    83    85    1
   134    81    80    2
   135    62    63    1
   136    73    72    2
   137    63    64    1
   138    87    86    1
   139    87    90    1
   140    50    49    1
   141    80    86   am
   142    80    79    1
   143    90    91    1
   144    79    78    1
   145    70    71    1
   146    74    75    1
   147    74    71    1
   148    49    46    1
   149    72    71    1
   150    75    76    1
   151    75    77    1
   152    64    65    2
   153    61    59    1
   154    60    59    1
   155    91    92    1
   156    93    92   ar
   157    46    45    1
   158    46    47    1
   159    92    94   ar
   160    59    58    1
   161    47    48    2
   162    58    55    1
   163    55    54    1
   164    55    56    1
   165    56    57    2
