@<TRIPOS>MOLECULE
tmp/4n6zA00.pdb
 152 141 0 0 0
SMALL
GASTEIGER

@<TRIPOS>ATOM
      1  N        -24.4590   33.7770   -5.3460 N.3    12  LEU12      -0.1231
      2  CA       -23.5910   34.9170   -5.6740 C.3    12  LEU12       0.1693
      3  C        -22.2960   34.4340   -6.3920 C.2    12  LEU12       0.2592
      4  O        -21.6920   35.1730   -7.1720 O.2    12  LEU12      -0.2718
      5  CB       -23.2510   35.7430   -4.4060 C.3    12  LEU12       0.0284
      6  CG       -24.4260   36.4380   -3.6710 C.3    12  LEU12       0.0019
      7  CD1      -23.9460   37.1150   -2.4000 C.3    12  LEU12       0.0001
      8  CD2      -25.1180   37.4850   -4.5640 C.3    12  LEU12       0.0001
      9  N        -21.9010   33.1950   -6.1260 N.am   13  GLY13      -0.1957
     10  CA       -20.7240   32.5870   -6.7230 C.3    13  GLY13       0.1869
     11  C        -20.3670   31.2690   -6.0880 C.2    13  GLY13       0.2309
     12  O        -20.7790   30.9750   -4.9690 O.2    13  GLY13      -0.2863
     13  N        -13.5770   27.9820   -3.1040 N.3    17  PHE17      -0.1241
     14  CA       -14.0390   28.4460   -1.7860 C.3    17  PHE17       0.1605
     15  C        -15.3620   27.7950   -1.2910 C.2    17  PHE17       0.2264
     16  O        -15.6990   27.9090   -0.1040 O.2    17  PHE17      -0.2867
     17  CB       -14.2000   29.9730   -1.8070 C.3    17  PHE17       0.0534
     18  CG       -15.0680   30.5090   -2.9280 C.ar   17  PHE17      -0.0203
     19  CD1      -16.4550   30.5490   -2.8020 C.ar   17  PHE17      -0.0042
     20  CD2      -14.4970   30.9920   -4.1030 C.ar   17  PHE17      -0.0042
     21  CE1      -17.2470   31.0880   -3.8150 C.ar   17  PHE17      -0.0003
     22  CE2      -15.2940   31.5010   -5.1270 C.ar   17  PHE17      -0.0003
     23  CZ       -16.6600   31.5790   -4.9610 C.ar   17  PHE17      -0.0000
     24  N        -21.5080   30.3750   -2.3040 N.3    20  VAL20      -0.1245
     25  CA       -21.9580   31.5530   -1.5680 C.3    20  VAL20       0.1561
     26  C        -23.3200   32.0390   -2.0980 C.2    20  VAL20       0.2260
     27  O        -23.4700   32.3100   -3.2870 O.2    20  VAL20      -0.2867
     28  CB       -20.8640   32.6610   -1.5210 C.3    20  VAL20       0.0252
     29  CG1      -21.3470   33.8980   -0.7560 C.3    20  VAL20       0.0019
     30  CG2      -19.5690   32.1330   -0.9020 C.3    20  VAL20       0.0019
     31  N        -24.8600   36.8330    3.6920 N.3    33  ALA33      -0.1245
     32  CA       -24.3390   35.9520    2.6570 C.3    33  ALA33       0.1562
     33  C        -24.2160   34.6170    3.3680 C.2    33  ALA33       0.2260
     34  O        -23.8030   34.5770    4.5260 O.2    33  ALA33      -0.2867
     35  CB       -22.9870   36.4360    2.1280 C.3    33  ALA33       0.0290
     36  N        -22.5910   30.9930    3.2230 N.3    35  LYS35      -0.1245
     37  CA       -21.4520   30.2980    2.6290 C.3    35  LYS35       0.1561
     38  C        -21.4090   28.8310    3.0450 C.2    35  LYS35       0.2260
     39  O        -21.3620   28.5210    4.2280 O.2    35  LYS35      -0.2867
     40  CB       -20.1360   31.0320    2.9850 C.3    35  LYS35       0.0271
     41  CG       -18.8700   30.3760    2.4350 C.3    35  LYS35       0.0035
     42  CD       -17.6470   31.2250    2.6940 C.3    35  LYS35       0.0206
     43  CE       -16.4140   30.5900    2.1150 C.3    35  LYS35       0.1093
     44  NZ       -15.2280   31.4940    2.1820 N.3    35  LYS35      -0.1314
     45  N        -11.3550   29.5310    8.4670 N.3    57  GLU57      -0.1245
     46  CA       -12.0790   30.8000    8.2970 C.3    57  GLU57       0.1567
     47  C        -12.9160   31.1800    9.5140 C.2    57  GLU57       0.2260
     48  O        -12.9810   32.3630    9.8480 O.2    57  GLU57      -0.2867
     49  CB       -12.9440   30.8050    7.0280 C.3    57  GLU57       0.0388
     50  CG       -13.6220   32.1480    6.7810 C.3    57  GLU57       0.1160
     51  CD       -14.2600   32.3240    5.4180 C.2    57  GLU57       0.3649
     52  OE1      -14.7270   31.3040    4.8580 O.co2  57  GLU57      -0.2457
     53  OE2      -14.2870   33.4740    4.9110 O.co2  57  GLU57      -0.2457
     54  N        -14.9530   41.5730    6.4140 N.3    72  ILE72      -0.1245
     55  CA       -16.2900   40.9850    6.4410 C.3    72  ILE72       0.1561
     56  C        -16.5390   40.3620    7.8210 C.2    72  ILE72       0.2260
     57  O        -15.6500   39.7350    8.4030 O.2    72  ILE72      -0.2867
     58  CB       -16.5140   39.9860    5.2730 C.3    72  ILE72       0.0252
     59  CG1      -18.0010   39.8800    4.8980 C.3    72  ILE72       0.0019
     60  CG2      -15.8660   38.5890    5.5210 C.3    72  ILE72       0.0019
     61  CD1      -18.5640   41.1880    4.2140 C.3    72  ILE72       0.0001
     62  N        -22.4660   35.3670    6.8780 N.3    88  LEU88      -0.1231
     63  CA       -21.6120   36.5420    6.8310 C.3    88  LEU88       0.1693
     64  C        -22.4360   37.7640    6.5850 C.2    88  LEU88       0.2595
     65  O        -23.5270   37.6730    6.0410 O.2    88  LEU88      -0.2718
     66  CB       -20.5730   36.3950    5.6920 C.3    88  LEU88       0.0284
     67  CG       -19.6840   35.1560    5.7500 C.3    88  LEU88       0.0019
     68  CD1      -19.2800   34.7080    4.3500 C.3    88  LEU88       0.0001
     69  CD2      -18.4660   35.3850    6.6690 C.3    88  LEU88       0.0001
     70  N        -21.8840   38.9220    6.9510 N.am   89  GLU89      -0.1920
     71  CA       -22.4380   40.2420    6.6810 C.3    89  GLU89       0.1949
     72  C        -22.5520   40.4040    5.1500 C.2    89  GLU89       0.2659
     73  O        -21.7310   39.8580    4.4160 O.2    89  GLU89      -0.2711
     74  CB       -21.4410   41.2770    7.2680 C.2    89  GLU89       0.0111
     75  CG       -21.3760   42.6340    6.5830 C.2    89  GLU89       0.0838
     76  CD       -20.2810   43.5690    7.0620 C.2    89  GLU89       0.3877
     77  OE1      -19.2690   43.0810    7.6130 O.co2  89  GLU89      -0.2406
     78  OE2      -20.4350   44.7980    6.8780 O.co2  89  GLU89      -0.2406
     79  N        -23.5460   41.1450    4.6720 N.am   90  ARG90      -0.1961
     80  CA       -23.6520   41.4300    3.2390 C.3    90  ARG90       0.1714
     81  C        -23.9750   42.8890    2.9740 C.2    90  ARG90       0.2458
     82  O        -25.1190   43.2810    3.1680 O.2    90  ARG90      -0.2730
     83  CB       -24.6170   40.4930    2.4880 C.3    90  ARG90       0.0347
     84  CG       -24.8820   40.8950    1.0320 C.3    90  ARG90       0.0492
     85  CD       -25.7070   39.8810    0.2600 C.3    90  ARG90       0.2205
     86  NE       -27.0600   39.6920    0.7990 N.pl3  90  ARG90      -0.0865
     87  CZ       -28.1240   40.4040    0.4380 C.cat  90  ARG90       0.5346
     88  NH1      -29.3080   40.1430    0.9580 N.pl3  90  ARG90       0.1354
     89  NH2      -28.0070   41.3880   -0.4440 N.pl3  90  ARG90       0.1354
     90  N        -22.9880   43.6990    2.5060 N.am   91  PRO91      -0.2727
     91  CA       -23.2910   45.1010    2.1340 C.3    91  PRO91       0.1402
     92  C        -24.2350   45.1390    0.9270 C.2    91  PRO91       0.2269
     93  O        -24.2100   44.2370    0.0780 O.2    91  PRO91      -0.2865
     94  CB       -21.9160   45.6830    1.7510 C.3    91  PRO91       0.0296
     95  CG       -20.9000   44.7160    2.2660 C.3    91  PRO91       0.0237
     96  CD       -21.5740   43.3670    2.2280 C.3    91  PRO91       0.0939
     97  N        -23.5910   46.3620   -3.3670 N.3    94  VAL94      -0.1245
     98  CA       -22.2110   45.8890   -3.3140 C.3    94  VAL94       0.1561
     99  C        -21.7680   45.4000   -4.7000 C.2    94  VAL94       0.2260
    100  O        -22.6000   44.9940   -5.5260 O.2    94  VAL94      -0.2867
    101  CB       -22.0380   44.7850   -2.2180 C.3    94  VAL94       0.0252
    102  CG1      -22.5860   43.4270   -2.6720 C.3    94  VAL94       0.0019
    103  CG2      -20.5900   44.6560   -1.7610 C.3    94  VAL94       0.0019
    104  N        -17.9350   43.3520   -6.1830 N.3    96  ASP96      -0.1239
    105  CA       -16.5510   42.9990   -5.8650 C.3    96  ASP96       0.1674
    106  C        -15.5990   43.8230   -6.7810 C.2    96  ASP96       0.2266
    107  O        -16.0610   44.3800   -7.7800 O.2    96  ASP96      -0.2867
    108  CB       -16.2940   41.4760   -5.8420 C.3    96  ASP96       0.1410
    109  CG       -16.3650   40.7440   -7.1720 C.2    96  ASP96       0.3668
    110  OD1      -15.8730   41.2940   -8.1810 O.co2  96  ASP96      -0.2456
    111  OD2      -16.7880   39.5580   -7.1770 O.co2  96  ASP96      -0.2456
    112  N        -11.0250   39.8660   -6.5210 N.3   139  GLU139     -0.1231
    113  CA       -12.1740   38.9680   -6.2850 C.3   139  GLU139      0.1699
    114  C        -12.5270   38.8310   -4.7850 C.2   139  GLU139      0.2592
    115  O        -13.6780   38.5200   -4.4530 O.2   139  GLU139     -0.2718
    116  CB       -11.8950   37.5850   -6.8670 C.3   139  GLU139      0.0402
    117  CG       -11.9710   37.5530   -8.3920 C.3   139  GLU139      0.1161
    118  CD       -11.5730   36.2430   -9.0490 C.2   139  GLU139      0.3649
    119  OE1      -12.2210   35.8620  -10.0510 O.co2 139  GLU139     -0.2457
    120  OE2      -10.6050   35.6030   -8.5750 O.co2 139  GLU139     -0.2457
    121  N        -11.5500   39.0820   -3.8900 N.am  140  ASN140     -0.1974
    122  CA       -11.7880   38.9890   -2.4400 C.3   140  ASN140      0.1688
    123  C        -11.9360   40.3350   -1.7640 C.2   140  ASN140      0.2292
    124  O        -11.7400   40.4630   -0.5410 O.2   140  ASN140     -0.2864
    125  CB       -10.7260   38.1230   -1.7670 C.3   140  ASN140      0.1181
    126  CG       -10.8900   36.6900   -2.1790 C.2   140  ASN140      0.2629
    127  OD1      -11.9970   36.2590   -2.5170 O.2   140  ASN140     -0.2716
    128  ND2       -9.8070   35.9260   -2.1560 N.am  140  ASN140     -0.0877
    129  N        -14.7530   43.4900   -1.4440 N.3   142  LEU142     -0.1245
    130  CA       -16.1040   43.9740   -1.7060 C.3   142  LEU142      0.1561
    131  C        -16.1220   45.4810   -1.5670 C.2   142  LEU142      0.2260
    132  O        -15.4420   46.0290   -0.6910 O.2   142  LEU142     -0.2867
    133  CB       -17.1060   43.3610   -0.7180 C.3   142  LEU142      0.0270
    134  CG       -17.4270   41.8670   -0.8690 C.3   142  LEU142      0.0019
    135  CD1      -18.5380   41.4860    0.0630 C.3   142  LEU142      0.0001
    136  CD2      -17.7660   41.4900   -2.3470 C.3   142  LEU142      0.0001
    137  N        -12.9010   39.6920    2.0130 N.3   153  ILE153     -0.1231
    138  CA       -13.7180   38.4700    2.1390 C.3   153  ILE153      0.1692
    139  C        -12.8440   37.2540    1.8470 C.2   153  ILE153      0.2592
    140  O        -11.7100   37.3980    1.3750 O.2   153  ILE153     -0.2718
    141  CB       -14.9960   38.4820    1.2290 C.3   153  ILE153      0.0266
    142  CG1      -14.6160   38.6340   -0.2750 C.3   153  ILE153      0.0019
    143  CG2      -15.9880   39.5640    1.6930 C.3   153  ILE153      0.0020
    144  CD1      -15.6510   38.2520   -1.3070 C.3   153  ILE153      0.0001
    145  N        -13.3850   36.0650    2.1230 N.am  154  ASP154     -0.1974
    146  CA       -12.7550   34.7610    1.9080 C.3   154  ASP154      0.1709
    147  C        -11.4310   34.5570    2.6600 C.2   154  ASP154      0.2293
    148  O        -10.3400   34.6280    2.0900 O.2   154  ASP154     -0.2864
    149  CB       -12.5930   34.4240    0.4240 C.3   154  ASP154      0.1436
    150  CG       -12.1960   32.9800    0.1690 C.2   154  ASP154      0.3671
    151  OD1      -12.3220   32.1440    1.1120 O.co2 154  ASP154     -0.2456
    152  OD2      -11.8070   32.6730   -0.9680 O.co2 154  ASP154     -0.2456
@<TRIPOS>BOND
     1   119   118   ar
     2   118   120   ar
     3   118   117    1
     4   117   116    1
     5   110   109   ar
     6   107   106    2
     7   111   109   ar
     8   109   108    1
     9     4     3    2
    10   116   113    1
    11   106   105    1
    12    10     9    1
    13    10    11    1
    14   112   113    1
    15     3     9   am
    16     3     2    1
    17   113   114    1
    18   104   105    1
    19    11    12    2
    20   105   108    1
    21     2     1    1
    22     2     5    1
    23   100    99    2
    24    22    23   ar
    25    22    20   ar
    26    23    21   ar
    27   114   115    2
    28   114   121   am
    29    99    98    1
    30     8     6    1
    31     5     6    1
    32    20    18   ar
    33   121   122    1
    34    21    19   ar
    35     6     7    1
    36    97    98    1
    37    98   101    1
    38    27    26    2
    39    13    14    1
    40    18    19   ar
    41    18    17    1
    42   102   101    1
    43   127   126    2
    44   122   125    1
    45   122   123    1
    46   136   134    1
    47    24    25    1
    48   101   103    1
    49   126   128   am
    50   126   125    1
    51    26    25    1
    52    17    14    1
    53    14    15    1
    54   123   124    2
    55   130   131    1
    56   130   129    1
    57   130   133    1
    58    25    28    1
    59   131   132    2
    60    28    30    1
    61    28    29    1
    62   144   142    1
    63    15    16    2
    64   152   150   ar
    65   134   133    1
    66   134   135    1
    67    89    87    1
    68   142   141    1
    69    93    92    2
    70   150   149    1
    71   150   151   ar
    72    85    86    1
    73    85    84    1
    74   149   146    1
    75    87    86    2
    76    87    88    1
    77    92    91    1
    78    84    83    1
    79   141   143    1
    80   141   138    1
    81   140   139    2
    82    94    91    1
    83    94    95    1
    84   139   145   am
    85   139   138    1
    86   146   145    1
    87   146   147    1
    88   137   138    1
    89   148   147    2
    90    43    44    1
    91    43    42    1
    92    35    32    1
    93    91    90    1
    94    96    95    1
    95    96    90    1
    96    41    42    1
    97    41    40    1
    98    83    80    1
    99    90    81   am
   100    37    40    1
   101    37    38    1
   102    37    36    1
   103    32    33    1
   104    32    31    1
   105    81    82    2
   106    81    80    1
   107    38    39    2
   108    80    79    1
   109    33    34    2
   110    61    59    1
   111    68    67    1
   112    73    72    2
   113    79    72   am
   114    52    51   ar
   115    59    58    1
   116    53    51   ar
   117    72    71    1
   118    58    60    1
   119    58    55    1
   120    51    50    1
   121    66    67    1
   122    66    63    1
   123    67    69    1
   124    65    64    2
   125    54    55    1
   126    55    56    1
   127    75    76    1
   128    75    74    2
   129    64    63    1
   130    64    70   am
   131    71    70    1
   132    71    74    1
   133    50    49    1
   134    63    62    1
   135    78    76   ar
   136    49    46    1
   137    76    77   ar
   138    56    57    2
   139    46    45    1
   140    46    47    1
   141    47    48    2
