@<TRIPOS>MOLECULE
tmp/4n70A00.pdb
 169 158 0 0 0
SMALL
GASTEIGER

@<TRIPOS>ATOM
      1  N        -24.9770   33.8130   -6.2420 N.3    13  LEU13      -0.1231
      2  CA       -24.1540   34.9490   -6.7010 C.3    13  LEU13       0.1693
      3  C        -22.8870   34.4850   -7.3960 C.2    13  LEU13       0.2592
      4  O        -22.4110   35.1420   -8.3000 O.2    13  LEU13      -0.2718
      5  CB       -23.8370   35.9200   -5.5670 C.3    13  LEU13       0.0284
      6  CG       -25.0740   36.5760   -4.9340 C.3    13  LEU13       0.0019
      7  CD1      -24.7890   37.2610   -3.6150 C.3    13  LEU13       0.0001
      8  CD2      -25.6780   37.6020   -5.9020 C.3    13  LEU13       0.0001
      9  N        -22.3260   33.3540   -7.0000 N.am   14  GLY14      -0.1957
     10  CA       -21.1500   32.8490   -7.6910 C.3    14  GLY14       0.1869
     11  C        -20.7140   31.5470   -7.0990 C.2    14  GLY14       0.2309
     12  O        -21.1150   31.2120   -5.9850 O.2    14  GLY14      -0.2863
     13  N        -13.7810   28.2530   -4.2590 N.3    18  PHE18      -0.1241
     14  CA       -14.1260   28.6460   -2.9000 C.3    18  PHE18       0.1605
     15  C        -15.4570   28.0360   -2.3470 C.2    18  PHE18       0.2264
     16  O        -15.7030   28.1410   -1.1600 O.2    18  PHE18      -0.2867
     17  CB       -14.2420   30.1670   -2.8600 C.3    18  PHE18       0.0534
     18  CG       -15.2110   30.7310   -3.8810 C.ar   18  PHE18      -0.0203
     19  CD1      -14.7440   31.2540   -5.0940 C.ar   18  PHE18      -0.0042
     20  CD2      -16.5830   30.7630   -3.6060 C.ar   18  PHE18      -0.0042
     21  CE1      -15.6420   31.7870   -6.0400 C.ar   18  PHE18      -0.0003
     22  CE2      -17.4920   31.2840   -4.5500 C.ar   18  PHE18      -0.0003
     23  CZ       -17.0310   31.8030   -5.7470 C.ar   18  PHE18      -0.0000
     24  N        -21.7270   30.7240   -3.2400 N.3    21  VAL21      -0.1245
     25  CA       -22.2110   31.8220   -2.4270 C.3    21  VAL21       0.1561
     26  C        -23.5830   32.3090   -2.9230 C.2    21  VAL21       0.2260
     27  O        -23.7200   32.5920   -4.1030 O.2    21  VAL21      -0.2867
     28  CB       -21.1840   33.0160   -2.4410 C.3    21  VAL21       0.0252
     29  CG1      -21.7480   34.2030   -1.7010 C.3    21  VAL21       0.0019
     30  CG2      -19.8420   32.5870   -1.7910 C.3    21  VAL21       0.0019
     31  N        -24.9470   37.2880    2.8270 N.3    34  ALA34      -0.1245
     32  CA       -24.4510   36.3890    1.8170 C.3    34  ALA34       0.1562
     33  C        -24.2290   35.0590    2.4990 C.2    34  ALA34       0.2260
     34  O        -23.8120   35.0150    3.6400 O.2    34  ALA34      -0.2867
     35  CB       -23.1260   36.9300    1.1370 C.3    34  ALA34       0.0290
     36  N        -22.4760   31.4050    2.3190 N.3    36  LYS36      -0.1245
     37  CA       -21.4070   30.6830    1.6430 C.3    36  LYS36       0.1561
     38  C        -21.4190   29.2090    2.0720 C.2    36  LYS36       0.2260
     39  O        -21.3560   28.9320    3.2630 O.2    36  LYS36      -0.2867
     40  CB       -20.0420   31.3390    2.0090 C.3    36  LYS36       0.0271
     41  CG       -18.8330   30.6070    1.3700 C.3    36  LYS36       0.0035
     42  CD       -17.4810   31.3610    1.6270 C.3    36  LYS36       0.0206
     43  CE       -16.2520   30.5370    1.3010 C.3    36  LYS36       0.1093
     44  NZ       -15.0290   31.4210    1.1930 N.3    36  LYS36      -0.1314
     45  N        -10.9610   29.3260    7.6840 N.3    58  GLU58      -0.1245
     46  CA       -11.7030   30.5160    7.3400 C.3    58  GLU58       0.1567
     47  C        -12.5800   31.0470    8.4920 C.2    58  GLU58       0.2260
     48  O        -12.7120   32.2620    8.7120 O.2    58  GLU58      -0.2867
     49  CB       -12.5630   30.1500    6.1360 C.3    58  GLU58       0.0388
     50  CG       -13.2600   31.2750    5.5410 C.3    58  GLU58       0.1160
     51  CD       -14.0570   30.8570    4.2470 C.2    58  GLU58       0.3649
     52  OE1      -14.0620   29.6640    3.7560 O.co2  58  GLU58      -0.2457
     53  OE2      -14.7030   31.7720    3.7490 O.co2  58  GLU58      -0.2457
     54  N        -15.0250   41.9550    5.5820 N.3    73  ILE73      -0.1245
     55  CA       -16.3880   41.4260    5.5760 C.3    73  ILE73       0.1561
     56  C        -16.6430   40.7020    6.9400 C.2    73  ILE73       0.2260
     57  O        -15.8110   39.9340    7.4290 O.2    73  ILE73      -0.2867
     58  CB       -16.5210   40.4270    4.4490 C.3    73  ILE73       0.0252
     59  CG1      -18.0070   40.2420    4.0810 C.3    73  ILE73       0.0019
     60  CG2      -15.6680   39.0800    4.8080 C.3    73  ILE73       0.0019
     61  CD1      -18.5770   41.5110    3.3510 C.3    73  ILE73       0.0001
     62  N        -22.4540   35.9400    5.9580 N.3    89  LEU89      -0.1231
     63  CA       -21.6180   37.1200    5.9960 C.3    89  LEU89       0.1693
     64  C        -22.5300   38.3110    5.7980 C.2    89  LEU89       0.2592
     65  O        -23.6040   38.1850    5.1960 O.2    89  LEU89      -0.2718
     66  CB       -20.5850   37.0420    4.8430 C.3    89  LEU89       0.0284
     67  CG       -19.7930   35.7550    5.0650 C.3    89  LEU89       0.0019
     68  CD1      -19.6040   34.9240    3.8130 C.3    89  LEU89       0.0001
     69  CD2      -18.4880   36.1020    5.7330 C.3    89  LEU89       0.0001
     70  N        -22.0870   39.4740    6.2430 N.am   90  GLU90      -0.1966
     71  CA       -22.7940   40.6870    5.9070 C.3    90  GLU90       0.1733
     72  C        -22.7870   40.9160    4.3890 C.2    90  GLU90       0.2616
     73  O        -21.8800   40.4730    3.6870 O.2    90  GLU90      -0.2715
     74  CB       -22.1460   41.8710    6.6500 C.3    90  GLU90       0.0429
     75  CG       -20.8970   42.3250    5.9940 C.3    90  GLU90       0.1163
     76  CD       -20.2890   43.5800    6.6180 C.2    90  GLU90       0.3649
     77  OE1      -19.1110   43.4790    7.0090 O.co2  90  GLU90      -0.2457
     78  OE2      -20.9510   44.6490    6.7030 O.co2  90  GLU90      -0.2457
     79  N        -23.7920   41.6180    3.8790 N.am   91  ARG91      -0.1964
     80  CA       -23.8580   41.9590    2.4560 C.3    91  ARG91       0.1714
     81  C        -24.3070   43.3960    2.2440 C.2    91  ARG91       0.2458
     82  O        -25.4630   43.7250    2.4660 O.2    91  ARG91      -0.2730
     83  CB       -24.8380   41.0540    1.7150 C.3    91  ARG91       0.0347
     84  CG       -25.1770   41.5260    0.3010 C.3    91  ARG91       0.0492
     85  CD       -25.8960   40.4430   -0.4800 C.3    91  ARG91       0.2205
     86  NE       -27.2440   40.1200    0.0280 N.pl3  91  ARG91      -0.0865
     87  CZ       -28.3520   40.8050   -0.2610 C.cat  91  ARG91       0.5346
     88  NH1      -29.5210   40.4030    0.2150 N.pl3  91  ARG91       0.1354
     89  NH2      -28.2990   41.8820   -1.0280 N.pl3  91  ARG91       0.1354
     90  N        -23.3910   44.2520    1.7960 N.am   92  PRO92      -0.2727
     91  CA       -23.7500   45.6200    1.4170 C.3    92  PRO92       0.1402
     92  C        -24.6520   45.5950    0.2100 C.2    92  PRO92       0.2269
     93  O        -24.6430   44.6300   -0.5830 O.2    92  PRO92      -0.2865
     94  CB       -22.3990   46.2550    1.0580 C.3    92  PRO92       0.0296
     95  CG       -21.3580   45.3870    1.7170 C.3    92  PRO92       0.0237
     96  CD       -21.9340   44.0120    1.7300 C.3    92  PRO92       0.0939
     97  N        -23.6780   46.5760   -4.2270 N.3    95  VAL95      -0.1231
     98  CA       -22.3280   46.0860   -4.0400 C.3    95  VAL95       0.1692
     99  C        -21.8440   45.5590   -5.3880 C.2    95  VAL95       0.2592
    100  O        -22.6580   45.1450   -6.2380 O.2    95  VAL95      -0.2718
    101  CB       -22.2980   44.9560   -2.9420 C.3    95  VAL95       0.0266
    102  CG1      -23.1030   43.7580   -3.4110 C.3    95  VAL95       0.0020
    103  CG2      -20.9170   44.5220   -2.6500 C.3    95  VAL95       0.0020
    104  N        -20.5260   45.6050   -5.5830 N.am   96  GLN96      -0.1966
    105  CA       -19.8620   45.0490   -6.7600 C.3    96  GLN96       0.1733
    106  C        -18.4280   44.6600   -6.3990 C.2    96  GLN96       0.2616
    107  O        -17.7490   45.4230   -5.7060 O.2    96  GLN96      -0.2715
    108  CB       -19.8220   46.0560   -7.8970 C.3    96  GLN96       0.0408
    109  CG       -19.2250   45.4910   -9.1940 C.3    96  GLN96       0.0908
    110  CD       -19.3380   46.4830  -10.3250 C.2    96  GLN96       0.2608
    111  OE1      -18.9840   47.6280  -10.1380 O.2    96  GLN96      -0.2717
    112  NE2      -19.8980   46.0670  -11.4840 N.am   96  GLN96      -0.0878
    113  N        -17.9470   43.5100   -6.8740 N.am   97  ASP97      -0.1971
    114  CA       -16.5430   43.1850   -6.6160 C.3    97  ASP97       0.1709
    115  C        -15.6270   44.0690   -7.4700 C.2    97  ASP97       0.2293
    116  O        -16.0810   44.7160   -8.4400 O.2    97  ASP97      -0.2864
    117  CB       -16.2310   41.6930   -6.7190 C.3    97  ASP97       0.1436
    118  CG       -16.1340   41.1570   -8.1580 C.2    97  ASP97       0.3671
    119  OD1      -15.8540   39.9370   -8.2540 O.co2  97  ASP97      -0.2456
    120  OD2      -16.3580   41.8870   -9.1570 O.co2  97  ASP97      -0.2456
    121  N        -15.1990   43.1800  -11.2590 N.3   100  ASP100     -0.1239
    122  CA       -16.2700   43.5600  -12.2120 C.3   100  ASP100      0.1674
    123  C        -16.1820   45.0550  -12.4480 C.2   100  ASP100      0.2266
    124  O        -16.3780   45.5760  -13.5710 O.2   100  ASP100     -0.2867
    125  CB       -17.6660   43.1920  -11.6780 C.3   100  ASP100      0.1410
    126  CG       -17.9490   41.7180  -11.7690 C.2   100  ASP100      0.3668
    127  OD1      -17.1150   40.9780  -12.3210 O.co2 100  ASP100     -0.2456
    128  OD2      -18.9890   41.2810  -11.2370 O.co2 100  ASP100     -0.2456
    129  N        -10.8190   40.1440   -7.3350 N.3   140  GLU140     -0.1231
    130  CA       -11.9810   39.2700   -7.0960 C.3   140  GLU140      0.1699
    131  C        -12.3000   39.0730   -5.6020 C.2   140  GLU140      0.2592
    132  O        -13.4340   38.6620   -5.2400 O.2   140  GLU140     -0.2718
    133  CB       -11.7400   37.9190   -7.7290 C.3   140  GLU140      0.0402
    134  CG       -11.9440   37.9630   -9.2980 C.3   140  GLU140      0.1161
    135  CD       -11.6090   36.6180   -9.9780 C.2   140  GLU140      0.3649
    136  OE1      -12.3460   36.1890  -10.8950 O.co2 140  GLU140     -0.2457
    137  OE2      -10.6340   35.9830   -9.5700 O.co2 140  GLU140     -0.2457
    138  N        -11.3230   39.3770   -4.7390 N.am  141  ASN141     -0.1974
    139  CA       -11.5350   39.1930   -3.2660 C.3   141  ASN141      0.1688
    140  C        -11.6790   40.4890   -2.5460 C.2   141  ASN141      0.2292
    141  O        -11.4060   40.6010   -1.3200 O.2   141  ASN141     -0.2864
    142  CB       -10.4200   38.3250   -2.6950 C.3   141  ASN141      0.1181
    143  CG       -10.5920   36.8770   -3.1030 C.2   141  ASN141      0.2629
    144  OD1      -11.6800   36.5100   -3.4860 O.2   141  ASN141     -0.2716
    145  ND2       -9.5480   36.0540   -3.0150 N.am  141  ASN141     -0.0877
    146  N        -14.5220   43.7720   -2.3160 N.3   143  LEU143     -0.1245
    147  CA       -15.8230   44.2310   -2.7420 C.3   143  LEU143      0.1561
    148  C        -15.9910   45.6810   -2.4120 C.2   143  LEU143      0.2260
    149  O        -15.3230   46.2230   -1.5310 O.2   143  LEU143     -0.2867
    150  CB       -16.9660   43.3400   -2.2100 C.3   143  LEU143      0.0270
    151  CG       -17.4180   43.3060   -0.7510 C.3   143  LEU143      0.0019
    152  CD1      -17.9870   44.6320   -0.3040 C.3   143  LEU143      0.0001
    153  CD2      -18.4830   42.1930   -0.5820 C.3   143  LEU143      0.0001
    154  N        -12.7550   39.9370    1.2580 N.3   154  ILE154     -0.1231
    155  CA       -13.6190   38.7580    1.4020 C.3   154  ILE154      0.1692
    156  C        -12.7720   37.5550    1.0530 C.2   154  ILE154      0.2592
    157  O        -11.6790   37.6870    0.5000 O.2   154  ILE154     -0.2718
    158  CB       -14.8650   38.7790    0.4080 C.3   154  ILE154      0.0266
    159  CG1      -14.3800   39.0680   -1.0160 C.3   154  ILE154      0.0019
    160  CG2      -15.9190   39.8090    0.8820 C.3   154  ILE154      0.0020
    161  CD1      -15.4820   38.8440   -2.1910 C.3   154  ILE154      0.0001
    162  N        -13.3230   36.3790    1.3360 N.am  155  ASP155     -0.1974
    163  CA       -12.6970   35.1040    1.0370 C.3   155  ASP155      0.1709
    164  C        -11.3790   34.8790    1.8240 C.2   155  ASP155      0.2293
    165  O        -10.2620   34.9600    1.2910 O.2   155  ASP155     -0.2864
    166  CB       -12.4730   34.8880   -0.4580 C.3   155  ASP155      0.1436
    167  CG       -12.0280   33.4380   -0.7790 C.2   155  ASP155      0.3671
    168  OD1      -12.0750   32.5600    0.1180 O.co2 155  ASP155     -0.2456
    169  OD2      -11.6170   33.1670   -1.9210 O.co2 155  ASP155     -0.2456
@<TRIPOS>BOND
     1   124   123    2
     2   123   122    1
     3   127   126   ar
     4   122   125    1
     5   122   121    1
     6   126   125    1
     7   126   128   ar
     8   112   110   am
     9   136   135   ar
    10   110   111    2
    11   110   109    1
    12   135   137   ar
    13   135   134    1
    14   134   133    1
    15   109   108    1
    16   120   118   ar
    17   116   115    2
    18     4     3    2
    19   119   118   ar
    20   118   117    1
    21   108   105    1
    22   133   130    1
    23    10    11    1
    24    10     9    1
    25   115   114    1
    26     3     9   am
    27     3     2    1
    28   129   130    1
    29    11    12    2
    30   130   131    1
    31   113   114    1
    32   113   106   am
    33   105   106    1
    34   105   104    1
    35   117   114    1
    36     2     1    1
    37     2     5    1
    38   106   107    2
    39   100    99    2
    40    21    23   ar
    41    21    19   ar
    42     8     6    1
    43    23    22   ar
    44   131   132    2
    45   131   138   am
    46   104    99   am
    47     5     6    1
    48    99    98    1
    49    19    18   ar
    50     6     7    1
    51   138   139    1
    52    22    20   ar
    53    13    14    1
    54    97    98    1
    55    27    26    2
    56    98   101    1
    57    18    20   ar
    58    18    17    1
    59   144   143    2
    60   102   101    1
    61   139   142    1
    62   139   140    1
    63    24    25    1
    64   143   145   am
    65   143   142    1
    66   101   103    1
    67    26    25    1
    68    14    17    1
    69    14    15    1
    70   147   148    1
    71   147   146    1
    72   147   150    1
    73   140   141    2
    74    28    25    1
    75    28    30    1
    76    28    29    1
    77   148   149    2
    78    15    16    2
    79   150   151    1
    80   161   159    1
    81   169   167   ar
    82    89    87    1
    83   159   158    1
    84   167   166    1
    85   167   168   ar
    86   151   153    1
    87   151   152    1
    88    93    92    2
    89    85    86    1
    90    85    84    1
    91   166   163    1
    92    87    86    2
    93    87    88    1
    94    92    91    1
    95    84    83    1
    96   158   160    1
    97   158   155    1
    98   157   156    2
    99   163   162    1
   100   163   164    1
   101   156   162   am
   102   156   155    1
   103    94    91    1
   104    94    95    1
   105    35    32    1
   106    44    43    1
   107   154   155    1
   108   165   164    2
   109    43    42    1
   110    41    42    1
   111    41    40    1
   112    91    90    1
   113    37    40    1
   114    37    38    1
   115    37    36    1
   116    83    80    1
   117    95    96    1
   118    96    90    1
   119    90    81   am
   120    32    33    1
   121    32    31    1
   122    38    39    2
   123    81    80    1
   124    81    82    2
   125    80    79    1
   126    33    34    2
   127    61    59    1
   128    73    72    2
   129    53    51   ar
   130    52    51   ar
   131    68    67    1
   132    79    72   am
   133    59    58    1
   134    51    50    1
   135    72    71    1
   136    58    60    1
   137    58    55    1
   138    66    67    1
   139    66    63    1
   140    67    69    1
   141    65    64    2
   142    50    49    1
   143    55    54    1
   144    55    56    1
   145    64    63    1
   146    64    70   am
   147    71    70    1
   148    71    74    1
   149    62    63    1
   150    75    76    1
   151    75    74    1
   152    49    46    1
   153    76    78   ar
   154    76    77   ar
   155    56    57    2
   156    46    45    1
   157    46    47    1
   158    47    48    2
