@<TRIPOS>MOLECULE
tmp/4n71A00.pdb
 147 137 0 0 0
SMALL
GASTEIGER

@<TRIPOS>ATOM
      1  N         60.7730   51.9280    3.0380 N.3    22  ILE22      -0.1245
      2  CA        61.3490   52.6570    4.1800 C.3    22  ILE22       0.1561
      3  C         62.8360   53.0280    4.0660 C.2    22  ILE22       0.2260
      4  O         63.5450   53.1020    5.0700 O.2    22  ILE22      -0.2867
      5  CB        61.0570   51.9630    5.5450 C.3    22  ILE22       0.0252
      6  CG1       61.7340   50.5930    5.6390 C.3    22  ILE22       0.0019
      7  CG2       59.5560   51.8450    5.7760 C.3    22  ILE22       0.0019
      8  CD1       61.4850   49.8780    6.9510 C.3    22  ILE22       0.0001
      9  N         65.1220   51.3460    2.2320 N.3    24  GLU24      -0.1245
     10  CA        65.9610   50.1800    1.9660 C.3    24  GLU24       0.1567
     11  C         66.1890   49.9890    0.4690 C.2    24  GLU24       0.2260
     12  O         65.9190   50.8890   -0.3240 O.2    24  GLU24      -0.2867
     13  CB        65.3360   48.9160    2.5640 C.3    24  GLU24       0.0388
     14  CG        65.0040   49.0030    4.0470 C.3    24  GLU24       0.1160
     15  CD        66.2080   48.7790    4.9460 C.2    24  GLU24       0.3649
     16  OE1       67.3500   49.0200    4.5030 O.co2  24  GLU24      -0.2457
     17  OE2       66.0080   48.3560    6.1030 O.co2  24  GLU24      -0.2457
     18  N         62.6690   41.7630    2.4270 N.3    31  HIS31      -0.1241
     19  CA        63.4710   41.9320    3.6340 C.3    31  HIS31       0.1621
     20  C         63.0240   40.9440    4.7100 C.2    31  HIS31       0.2264
     21  O         63.8440   40.3430    5.4080 O.2    31  HIS31      -0.2867
     22  CB        63.3520   43.3660    4.1550 C.3    31  HIS31       0.0745
     23  CG        64.1680   43.6350    5.3810 C.ar   31  HIS31       0.0817
     24  ND1       65.5380   43.7650    5.3500 N.ar   31  HIS31      -0.2268
     25  CD2       63.8040   43.8050    6.6760 C.ar   31  HIS31       0.1154
     26  CE1       65.9860   44.0040    6.5700 C.ar   31  HIS31       0.1986
     27  NE2       64.9520   44.0320    7.3930 N.ar   31  HIS31      -0.2212
     28  N         60.2850   43.1540   11.4990 N.3    56  ASP56      -0.1239
     29  CA        59.8810   44.5000   11.1040 C.3    56  ASP56       0.1674
     30  C         58.4000   44.5420   10.7370 C.2    56  ASP56       0.2266
     31  O         57.9990   45.2320    9.8010 O.2    56  ASP56      -0.2867
     32  CB        60.7360   45.0120    9.9410 C.3    56  ASP56       0.1410
     33  CG        62.1280   45.4270   10.3790 C.2    56  ASP56       0.3668
     34  OD1       62.3090   45.7260   11.5790 O.co2  56  ASP56      -0.2456
     35  OD2       63.0390   45.4590    9.5260 O.co2  56  ASP56      -0.2456
     36  N         56.1200   47.9020   11.2290 N.3    59  HIS59      -0.1241
     37  CA        56.2660   48.9940   10.2740 C.3    59  HIS59       0.1621
     38  C         54.9980   49.2230    9.4580 C.2    59  HIS59       0.2264
     39  O         54.8370   50.2730    8.8360 O.2    59  HIS59      -0.2867
     40  CB        57.4390   48.7210    9.3290 C.3    59  HIS59       0.0745
     41  CG        58.7720   49.1120    9.8850 C.ar   59  HIS59       0.0817
     42  ND1       58.9620   50.2550   10.6310 N.ar   59  HIS59      -0.2268
     43  CD2       59.9840   48.5130    9.8000 C.ar   59  HIS59       0.1154
     44  CE1       60.2330   50.3440   10.9810 C.ar   59  HIS59       0.1986
     45  NE2       60.8740   49.2980   10.4900 N.ar   59  HIS59      -0.2212
     46  N         60.0090   58.5280   11.9580 N.3    64  MET64      -0.1245
     47  CA        61.3590   58.0100   12.1480 C.3    64  MET64       0.1570
     48  C         62.2410   58.2760   10.9370 C.2    64  MET64       0.2261
     49  O         62.8990   57.3660   10.4340 O.2    64  MET64      -0.2867
     50  CB        61.3220   56.5050   12.4180 C.3    64  MET64       0.0387
     51  CG        61.6690   56.1110   13.8420 C.3    64  MET64       0.0595
     52  SD        61.9810   54.3420   13.9990 S.3    64  MET64      -0.1393
     53  CE        62.2830   54.2040   15.7580 C.3    64  MET64       0.0692
     54  N         61.8770   56.8610    8.0990 N.3    67  TYR67      -0.1241
     55  CA        62.4800   55.6110    7.6550 C.3    67  TYR67       0.1605
     56  C         61.8710   54.4230    8.3920 C.2    67  TYR67       0.2264
     57  O         62.4370   53.3300    8.3980 O.2    67  TYR67      -0.2867
     58  CB        63.9950   55.6320    7.8660 C.3    67  TYR67       0.0534
     59  CG        64.7510   56.5080    6.8930 C.ar   67  TYR67      -0.0201
     60  CD1       64.8900   57.8700    7.1200 C.ar   67  TYR67      -0.0009
     61  CD2       65.3370   55.9710    5.7550 C.ar   67  TYR67      -0.0009
     62  CE1       65.5830   58.6750    6.2380 C.ar   67  TYR67       0.0417
     63  CE2       66.0340   56.7680    4.8650 C.ar   67  TYR67       0.0417
     64  CZ        66.1540   58.1190    5.1120 C.ar   67  TYR67       0.1957
     65  OH        66.8470   58.9160    4.2290 O.3    67  TYR67      -0.2866
     66  N         58.8750   49.9670   16.2500 N.3    72  HIS72      -0.1241
     67  CA        58.4000   48.9050   15.3670 C.3    72  HIS72       0.1621
     68  C         58.7800   47.5300   15.9080 C.2    72  HIS72       0.2264
     69  O         58.2510   46.5090   15.4680 O.2    72  HIS72      -0.2867
     70  CB        58.9330   49.0920   13.9430 C.3    72  HIS72       0.0745
     71  CG        60.3560   48.6590   13.7620 C.ar   72  HIS72       0.0817
     72  ND1       61.4250   49.4040   14.2140 N.ar   72  HIS72      -0.2268
     73  CD2       60.8840   47.5660   13.1650 C.ar   72  HIS72       0.1154
     74  CE1       62.5500   48.7820   13.9080 C.ar   72  HIS72       0.1986
     75  NE2       62.2520   47.6660   13.2710 N.ar   72  HIS72      -0.2212
     76  N         65.4470   43.2950   18.4950 N.3    96  HIS96      -0.1226
     77  CA        66.2100   43.3900   17.2550 C.3    96  HIS96       0.1752
     78  C         66.7920   44.7890   17.0740 C.2    96  HIS96       0.2595
     79  O         67.8100   44.9670   16.4050 O.2    96  HIS96      -0.2718
     80  CB        65.3520   42.9990   16.0470 C.3    96  HIS96       0.0759
     81  CG        64.6590   44.1560   15.3920 C.ar   96  HIS96       0.0818
     82  ND1       63.4240   44.6120   15.8000 N.ar   96  HIS96      -0.2268
     83  CD2       65.0270   44.9390   14.3520 C.ar   96  HIS96       0.1154
     84  CE1       63.0640   45.6320   15.0410 C.ar   96  HIS96       0.1986
     85  NE2       64.0170   45.8530   14.1560 N.ar   96  HIS96      -0.2212
     86  N         66.1400   45.7800   17.6740 N.am   97  VAL97      -0.1980
     87  CA        66.6350   47.1510   17.6430 C.3    97  VAL97       0.1595
     88  C         67.7820   47.3210   18.6330 C.2    97  VAL97       0.2287
     89  O         68.8180   47.9030   18.3070 O.2    97  VAL97      -0.2864
     90  CB        65.5180   48.1600   17.9660 C.3    97  VAL97       0.0276
     91  CG1       66.1030   49.5330   18.2500 C.3    97  VAL97       0.0022
     92  CG2       64.5210   48.2250   16.8210 C.3    97  VAL97       0.0022
     93  N         71.1090   45.9320   17.4390 N.3   100  LYS100     -0.1245
     94  CA        71.9140   46.8010   16.5880 C.3   100  LYS100      0.1561
     95  C         72.6890   47.8210   17.4130 C.2   100  LYS100      0.2260
     96  O         73.8770   48.0450   17.1810 O.2   100  LYS100     -0.2867
     97  CB        71.0360   47.5200   15.5640 C.3   100  LYS100      0.0271
     98  CG        71.7840   48.5460   14.7290 C.3   100  LYS100      0.0035
     99  CD        70.8520   49.2690   13.7760 C.3   100  LYS100      0.0206
    100  CE        69.7110   49.9350   14.5210 C.3   100  LYS100      0.1093
    101  NZ        68.7820   50.6380   13.5940 N.3   100  LYS100     -0.1314
    102  N         68.9090   53.0990    5.6850 N.3   117  ALA117     -0.1231
    103  CA        67.6750   53.2240    6.4510 C.3   117  ALA117      0.1694
    104  C         67.8960   52.9100    7.9270 C.2   117  ALA117      0.2592
    105  O         67.4580   53.6560    8.8010 O.2   117  ALA117     -0.2718
    106  CB        66.6000   52.3170    5.8710 C.3   117  ALA117      0.0304
    107  N         68.5830   51.8040    8.1950 N.am  118  SER118     -0.1952
    108  CA        68.8140   51.3510    9.5620 C.3   118  SER118      0.1924
    109  C         69.6940   52.3230   10.3440 C.2   118  SER118      0.2314
    110  O         69.5220   52.4940   11.5510 O.2   118  SER118     -0.2863
    111  CB        69.4400   49.9550    9.5610 C.3   118  SER118      0.2116
    112  OG        69.4910   49.4180   10.8700 O.3   118  SER118     -0.2180
    113  N         67.5810   55.4280   11.3190 N.3   121  THR121     -0.1218
    114  CA        66.6460   55.0850   12.3870 C.3   121  THR121      0.1862
    115  C         67.3460   54.9710   13.7370 C.2   121  THR121      0.2287
    116  O         66.7130   55.1010   14.7850 O.2   121  THR121     -0.2866
    117  CB        65.9080   53.7630   12.1000 C.3   121  THR121      0.1770
    118  OG1       66.8630   52.7250   11.8460 O.3   121  THR121     -0.2211
    119  CG2       64.9950   53.9110   10.8960 C.3   121  THR121      0.0375
    120  N         66.2740   55.5290   17.5820 N.3   125  GLN125     -0.1245
    121  CA        66.1670   54.3460   18.4290 C.3   125  GLN125      0.1566
    122  C         67.0090   54.4430   19.6970 C.2   125  GLN125      0.2260
    123  O         66.8440   53.6460   20.6200 O.2   125  GLN125     -0.2867
    124  CB        66.5470   53.0970   17.6340 C.3   125  GLN125      0.0367
    125  CG        65.5420   52.7340   16.5560 C.3   125  GLN125      0.0905
    126  CD        66.1310   51.8390   15.4880 C.2   125  GLN125      0.2608
    127  OE1       67.3160   51.9320   15.1710 O.2   125  GLN125     -0.2717
    128  NE2       65.3050   50.9640   14.9270 N.am  125  GLN125     -0.0878
    129  N         69.7250   39.8910   14.2490 N.3   150  ARG150     -0.1245
    130  CA        70.1270   41.1700   13.6730 C.3   150  ARG150      0.1563
    131  C         71.1090   40.9710   12.5220 C.2   150  ARG150      0.2260
    132  O         71.1170   41.7400   11.5610 O.2   150  ARG150     -0.2867
    133  CB        70.7430   42.0780   14.7390 C.3   150  ARG150      0.0307
    134  CG        71.0030   43.4940   14.2540 C.3   150  ARG150      0.0489
    135  CD        69.7000   44.1880   13.8970 C.3   150  ARG150      0.2205
    136  NE        69.9000   45.3210   12.9980 N.pl3 150  ARG150     -0.0865
    137  CZ        68.9370   46.1620   12.6340 C.cat 150  ARG150      0.5346
    138  NH1       67.7070   46.0040   13.1000 N.pl3 150  ARG150      0.1354
    139  NH2       69.2040   47.1640   11.8080 N.pl3 150  ARG150      0.1354
    140  N         69.1400   40.3630    9.6210 N.3   153  ASP153     -0.1239
    141  CA        68.4150   41.5510    9.1840 C.3   153  ASP153      0.1674
    142  C         69.3170   42.4640    8.3600 C.2   153  ASP153      0.2266
    143  O         68.8460   43.2000    7.4930 O.2   153  ASP153     -0.2867
    144  CB        67.8330   42.3080   10.3820 C.3   153  ASP153      0.1410
    145  CG        66.7980   43.3430    9.9720 C.2   153  ASP153      0.3668
    146  OD1       66.2970   43.2660    8.8310 O.co2 153  ASP153     -0.2456
    147  OD2       66.4730   44.2290   10.7910 O.co2 153  ASP153     -0.2456
@<TRIPOS>BOND
     1    12    11    2
     2    11    10    1
     3    10     9    1
     4    10    13    1
     5    18    19    1
     6    13    14    1
     7     1     2    1
     8    19    22    1
     9    19    20    1
    10    14    15    1
    11     3     2    1
    12     3     4    2
    13    22    23    1
    14     2     5    1
    15    65    64    1
    16    16    15   ar
    17    20    21    2
    18    63    64   ar
    19    63    61   ar
    20    15    17   ar
    21    64    62   ar
    22    24    23   ar
    23    24    26   ar
    24    23    25   ar
    25     5     6    1
    26     5     7    1
    27     6     8    1
    28   102   103    1
    29    61    59   ar
    30   106   103    1
    31    62    60   ar
    32   103   104    1
    33    26    27   ar
    34    25    27   ar
    35    59    60   ar
    36    59    58    1
    37   143   142    2
    38    55    58    1
    39    55    54    1
    40    55    56    1
    41   104   107   am
    42   104   105    2
    43   107   108    1
    44   142   141    1
    45    56    57    2
    46   146   145   ar
    47    39    38    2
    48   141   140    1
    49   141   144    1
    50    40    41    1
    51    40    37    1
    52    38    37    1
    53    35    33   ar
    54   111   108    1
    55   111   112    1
    56   108   109    1
    57    43    41   ar
    58    43    45   ar
    59    31    30    2
    60    41    42   ar
    61    32    33    1
    62    32    29    1
    63   145   144    1
    64   145   147   ar
    65    37    36    1
    66   109   110    2
    67    33    34   ar
    68    49    48    2
    69    45    44   ar
    70    42    44   ar
    71    30    29    1
    72   119   117    1
    73    48    47    1
    74    29    28    1
    75   113   114    1
    76   132   131    2
    77   139   137    1
    78   118   117    1
    79    46    47    1
    80   117   114    1
    81    47    50    1
    82   114   115    1
    83    50    51    1
    84   131   130    1
    85   137   136    2
    86   137   138    1
    87   136   135    1
    88    73    75   ar
    89    73    71   ar
    90    75    74   ar
    91   101   100    1
    92   130   129    1
    93   130   133    1
    94   115   116    2
    95    71    70    1
    96    71    72   ar
    97    99   100    1
    98    99    98    1
    99    51    52    1
   100   135   134    1
   101    74    72   ar
   102    70    67    1
   103    52    53    1
   104    85    83   ar
   105    85    84   ar
   106   134   133    1
   107    83    81   ar
   108    98    97    1
   109   128   126   am
   110    84    82   ar
   111   127   126    2
   112    67    68    1
   113    67    66    1
   114    81    82   ar
   115    81    80    1
   116    69    68    2
   117   126   125    1
   118    97    94    1
   119    80    77    1
   120    79    78    2
   121   125   124    1
   122    94    95    1
   123    94    93    1
   124    92    90    1
   125    78    77    1
   126    78    86   am
   127    96    95    2
   128    77    76    1
   129   120   121    1
   130   124   121    1
   131    87    86    1
   132    87    90    1
   133    87    88    1
   134    90    91    1
   135    89    88    2
   136   121   122    1
   137   122   123    2
