@<TRIPOS>MOLECULE
tmp/4n73A00.pdb
 236 232 0 0 0
SMALL
GASTEIGER

@<TRIPOS>ATOM
      1  N         14.0230   -9.8380  -35.0440 N.3     1  HIS1       -0.1226
      2  CA        14.6470   -9.7860  -33.7390 C.3     1  HIS1        0.1752
      3  C         14.4890  -11.0960  -33.0030 C.2     1  HIS1        0.2596
      4  O         13.8020  -12.0400  -33.4630 O.2     1  HIS1       -0.2718
      5  CB        14.0630   -8.6370  -32.9120 C.3     1  HIS1        0.0759
      6  CG        14.2080   -7.3020  -33.5600 C.ar    1  HIS1        0.0818
      7  ND1       13.2200   -6.7510  -34.3480 N.ar    1  HIS1       -0.2268
      8  CD2       15.2320   -6.4170  -33.5640 C.ar    1  HIS1        0.1154
      9  CE1       13.6200   -5.5770  -34.7950 C.ar    1  HIS1        0.1986
     10  NE2       14.8390   -5.3520  -34.3390 N.ar    1  HIS1       -0.2212
     11  N         15.1450  -11.1300  -31.8520 N.am    2  LEU2       -0.1966
     12  CA        15.1020  -12.2660  -30.9490 C.3     2  LEU2        0.1728
     13  C         14.9570  -11.7430  -29.5260 C.2     2  LEU2        0.2616
     14  O         15.9550  -11.5250  -28.8540 O.2     2  LEU2       -0.2715
     15  CB        16.3670  -13.1050  -31.1060 C.3     2  LEU2        0.0311
     16  CG        16.6150  -14.1960  -30.0530 C.3     2  LEU2        0.0022
     17  CD1       15.3520  -14.9150  -29.6330 C.3     2  LEU2        0.0001
     18  CD2       17.6200  -15.1860  -30.5980 C.3     2  LEU2        0.0001
     19  N         13.7230  -11.5350  -29.0730 N.am    3  VAL3       -0.1963
     20  CA        13.4930  -10.7710  -27.8420 C.3     3  VAL3        0.1727
     21  C         13.4970  -11.6280  -26.5740 C.2     3  VAL3        0.2616
     22  O         12.7870  -11.3650  -25.6090 O.2     3  VAL3       -0.2715
     23  CB        12.1720   -9.9680  -27.9050 C.3     3  VAL3        0.0290
     24  CG1       12.3050   -8.8180  -28.9350 C.3     3  VAL3        0.0023
     25  CG2       10.9630  -10.8300  -28.2180 C.3     3  VAL3        0.0023
     26  N         14.3530  -12.6300  -26.5610 N.am    4  CYS4       -0.1954
     27  CA        14.4820  -13.4950  -25.4050 C.3     4  CYS4        0.1828
     28  C         15.7490  -13.1380  -24.6830 C.2     4  CYS4        0.2467
     29  O         16.8180  -13.1520  -25.3240 O.2     4  CYS4       -0.2730
     30  CB        14.5520  -14.9410  -25.8540 C.3     4  CYS4        0.0996
     31  SG        14.7670  -16.0670  -24.5000 S.3     4  CYS4       -0.0797
     32  N         15.6650  -12.8290  -23.3780 N.am    5  PRO5       -0.2715
     33  CA        16.8820  -12.3900  -22.6850 C.3     5  PRO5        0.1536
     34  C         17.9220  -13.4700  -22.4170 C.2     5  PRO5        0.2598
     35  O         18.9660  -13.1810  -21.8310 O.2     5  PRO5       -0.2715
     36  CB        16.3410  -11.8410  -21.3640 C.3     5  PRO5        0.0310
     37  CG        15.0860  -12.4670  -21.1700 C.3     5  PRO5        0.0237
     38  CD        14.4840  -12.6500  -22.5160 C.3     5  PRO5        0.0939
     39  N         17.6410  -14.7040  -22.8100 N.am    6  MET6       -0.1978
     40  CA        18.6560  -15.7460  -22.7940 C.3     6  MET6        0.1605
     41  C         19.6520  -15.5430  -23.9600 C.2     6  MET6        0.2287
     42  O         20.7410  -16.1430  -23.9960 O.2     6  MET6       -0.2864
     43  CB        17.9850  -17.1350  -22.8800 C.3     6  MET6        0.0413
     44  CG        17.0460  -17.4660  -21.7350 C.3     6  MET6        0.0598
     45  SD        17.8620  -17.5690  -20.1360 S.3     6  MET6       -0.1393
     46  CE        17.4300  -15.9600  -19.4300 C.3     6  MET6        0.0692
     47  N         20.3300  -19.9030  -34.5790 N.3    22  TRP22      -0.1241
     48  CA        20.0000  -20.7790  -33.4570 C.3    22  TRP22       0.1605
     49  C         21.2340  -21.2960  -32.7300 C.2    22  TRP22       0.2264
     50  O         21.2530  -21.4340  -31.5030 O.2    22  TRP22      -0.2867
     51  CB        19.1750  -21.9730  -33.9160 C.3    22  TRP22       0.0550
     52  CG        18.6400  -22.6550  -32.7270 C.ar   22  TRP22       0.0003
     53  CD1       19.1450  -23.7670  -32.1110 C.ar   22  TRP22       0.0946
     54  CD2       17.5240  -22.2350  -31.9560 C.ar   22  TRP22       0.0152
     55  NE1       18.3930  -24.0670  -31.0080 N.ar   22  TRP22      -0.2442
     56  CE2       17.3980  -23.1320  -30.8870 C.ar   22  TRP22       0.0810
     57  CE3       16.6120  -21.1910  -32.0730 C.ar   22  TRP22       0.0012
     58  CZ2       16.3770  -23.0240  -29.9510 C.ar   22  TRP22       0.0191
     59  CZ3       15.6080  -21.0820  -31.1330 C.ar   22  TRP22       0.0001
     60  CH2       15.5050  -21.9890  -30.0830 C.ar   22  TRP22       0.0015
     61  N         22.5610  -18.5310  -30.6710 N.3    25  PHE25      -0.1241
     62  CA        21.6710  -18.4180  -29.5170 C.3    25  PHE25       0.1605
     63  C         22.0180  -19.5100  -28.4900 C.2    25  PHE25       0.2264
     64  O         22.0850  -19.2580  -27.2910 O.2    25  PHE25      -0.2867
     65  CB        20.2240  -18.5090  -30.0050 C.3    25  PHE25       0.0534
     66  CG        19.1660  -18.2870  -28.9460 C.ar   25  PHE25      -0.0203
     67  CD1       19.3920  -17.4860  -27.8260 C.ar   25  PHE25      -0.0042
     68  CD2       17.9210  -18.8840  -29.0980 C.ar   25  PHE25      -0.0042
     69  CE1       18.3840  -17.2910  -26.8670 C.ar   25  PHE25      -0.0003
     70  CE2       16.9080  -18.7120  -28.1460 C.ar   25  PHE25      -0.0003
     71  CZ        17.1360  -17.9240  -27.0220 C.ar   25  PHE25      -0.0000
     72  N         22.3380  -19.7190  -24.3060 N.3    29  PHE29      -0.1241
     73  CA        21.4500  -20.3400  -23.3120 C.3    29  PHE29       0.1605
     74  C         21.9270  -21.7040  -22.7900 C.2    29  PHE29       0.2264
     75  O         21.5140  -22.1030  -21.7030 O.2    29  PHE29      -0.2867
     76  CB        19.9930  -20.4670  -23.8370 C.3    29  PHE29       0.0534
     77  CG        19.7790  -21.4540  -24.9810 C.ar   29  PHE29      -0.0203
     78  CD1       19.9070  -22.8170  -24.7920 C.ar   29  PHE29      -0.0042
     79  CD2       19.3710  -21.0070  -26.2230 C.ar   29  PHE29      -0.0042
     80  CE1       19.6840  -23.7140  -25.8340 C.ar   29  PHE29      -0.0003
     81  CE2       19.1320  -21.9060  -27.2720 C.ar   29  PHE29      -0.0003
     82  CZ        19.2960  -23.2610  -27.0710 C.ar   29  PHE29      -0.0000
     83  N         21.1210  -23.8670  -19.1250 N.3    33  VAL33      -0.1245
     84  CA        20.4570  -25.1630  -19.0840 C.3    33  VAL33       0.1561
     85  C         21.2600  -26.1990  -18.2960 C.2    33  VAL33       0.2260
     86  O         20.7210  -26.9100  -17.4230 O.2    33  VAL33      -0.2867
     87  CB        20.1750  -25.6730  -20.5150 C.3    33  VAL33       0.0252
     88  CG1       19.7010  -27.1570  -20.5160 C.3    33  VAL33       0.0019
     89  CG2       19.1210  -24.8150  -21.1440 C.3    33  VAL33       0.0019
     90  N         12.8330  -27.1930  -16.6970 N.3    62  THR62      -0.1203
     91  CA        14.0200  -26.3770  -16.8170 C.3    62  THR62       0.1994
     92  C         13.5940  -24.9040  -17.0070 C.2    62  THR62       0.2617
     93  O         14.1170  -23.9930  -16.3310 O.2    62  THR62      -0.2717
     94  CB        14.8950  -26.9020  -17.9750 C.3    62  THR62       0.1784
     95  OG1       15.6220  -28.0550  -17.5090 O.3    62  THR62      -0.2211
     96  CG2       15.8840  -25.8780  -18.4260 C.3    62  THR62       0.0376
     97  N         12.6020  -24.6880  -17.8670 N.am   63  PHE63      -0.1975
     98  CA        12.1260  -23.3170  -18.1300 C.3    63  PHE63       0.1639
     99  C         11.6590  -22.6210  -16.8630 C.2    63  PHE63       0.2290
    100  O         11.9530  -21.4220  -16.6260 O.2    63  PHE63      -0.2864
    101  CB        10.9640  -23.2600  -19.1230 C.3    63  PHE63       0.0560
    102  CG        10.3630  -21.8730  -19.1880 C.ar   63  PHE63      -0.0200
    103  CD1       10.9930  -20.8860  -19.9340 C.ar   63  PHE63      -0.0042
    104  CD2        9.2770  -21.5290  -18.4130 C.ar   63  PHE63      -0.0042
    105  CE1       10.5240  -19.5990  -19.9520 C.ar   63  PHE63      -0.0003
    106  CE2        8.7700  -20.2150  -18.4310 C.ar   63  PHE63      -0.0003
    107  CZ         9.3950  -19.2600  -19.2060 C.ar   63  PHE63      -0.0000
    108  N         14.5900  -21.8110  -14.5490 N.3    66  LEU66      -0.1231
    109  CA        15.2750  -20.6350  -15.0930 C.3    66  LEU66       0.1693
    110  C         14.4850  -19.3270  -14.9490 C.2    66  LEU66       0.2591
    111  O         15.0880  -18.2490  -14.7540 O.2    66  LEU66      -0.2718
    112  CB        15.5840  -20.8940  -16.5790 C.3    66  LEU66       0.0284
    113  CG        16.6960  -21.9150  -16.7990 C.3    66  LEU66       0.0019
    114  CD1       17.0140  -22.0630  -18.2710 C.3    66  LEU66       0.0001
    115  CD2       17.9700  -21.5510  -16.0240 C.3    66  LEU66       0.0001
    116  N         13.1610  -19.4000  -15.0970 N.am   67  MET67      -0.1979
    117  CA        12.2800  -18.2110  -14.8980 C.3    67  MET67       0.1605
    118  C         12.3770  -17.6750  -13.4640 C.2    67  MET67       0.2287
    119  O         12.3260  -16.4530  -13.2390 O.2    67  MET67      -0.2864
    120  CB        10.8240  -18.5670  -15.2330 C.3    67  MET67       0.0413
    121  CG         9.8040  -17.4240  -15.1050 C.3    67  MET67       0.0598
    122  SD        10.0460  -16.1860  -16.3950 S.3    67  MET67      -0.1393
    123  CE        10.5690  -14.7820  -15.4320 C.3    67  MET67       0.0692
    124  N         16.1960  -16.3710  -13.0080 N.3    70  PHE70      -0.1241
    125  CA        16.4390  -15.1260  -13.7700 C.3    70  PHE70       0.1605
    126  C         15.3210  -14.0590  -13.6830 C.2    70  PHE70       0.2264
    127  O         15.2970  -13.1180  -14.4790 O.2    70  PHE70      -0.2867
    128  CB        16.6740  -15.4780  -15.2440 C.3    70  PHE70       0.0534
    129  CG        17.9950  -16.1440  -15.5080 C.ar   70  PHE70      -0.0203
    130  CD1       19.1770  -15.5680  -15.0710 C.ar   70  PHE70      -0.0042
    131  CD2       18.0600  -17.3310  -16.2080 C.ar   70  PHE70      -0.0042
    132  CE1       20.3880  -16.1700  -15.3080 C.ar   70  PHE70      -0.0003
    133  CE2       19.2760  -17.9320  -16.4530 C.ar   70  PHE70      -0.0003
    134  CZ        20.4430  -17.3360  -16.0090 C.ar   70  PHE70      -0.0000
    135  N         16.3430  -10.4300  -13.8360 N.3    73  LEU73      -0.1231
    136  CA        16.7280   -9.7820  -15.0940 C.3    73  LEU73       0.1693
    137  C         15.6770   -8.7440  -15.4820 C.2    73  LEU73       0.2592
    138  O         15.9490   -7.8410  -16.2790 O.2    73  LEU73      -0.2718
    139  CB        16.8950  -10.7910  -16.2240 C.3    73  LEU73       0.0284
    140  CG        18.0350  -11.8310  -16.1580 C.3    73  LEU73       0.0019
    141  CD1       17.9810  -12.7340  -17.3750 C.3    73  LEU73       0.0001
    142  CD2       19.4350  -11.2200  -16.0300 C.3    73  LEU73       0.0001
    143  N         14.4910   -8.8850  -14.8880 N.am   74  PHE74      -0.1976
    144  CA        13.3470   -8.0250  -15.1160 C.3    74  PHE74       0.1639
    145  C         13.2890   -7.0050  -13.9870 C.2    74  PHE74       0.2290
    146  O         13.0730   -7.3530  -12.8180 O.2    74  PHE74      -0.2864
    147  CB        12.0520   -8.8490  -15.2000 C.3    74  PHE74       0.0560
    148  CG        12.0560   -9.8830  -16.3050 C.ar   74  PHE74      -0.0200
    149  CD1       11.5120   -9.6040  -17.5460 C.ar   74  PHE74      -0.0042
    150  CD2       12.6130  -11.1310  -16.0940 C.ar   74  PHE74      -0.0042
    151  CE1       11.5540  -10.5530  -18.5560 C.ar   74  PHE74      -0.0003
    152  CE2       12.6610  -12.0770  -17.0910 C.ar   74  PHE74      -0.0003
    153  CZ        12.1310  -11.7930  -18.3270 C.ar   74  PHE74      -0.0000
    154  N         10.2550   -4.3310  -30.9950 N.3    97  MET97      -0.1230
    155  CA        10.8470   -5.4860  -31.6740 C.3    97  MET97       0.1702
    156  C         10.0050   -6.7760  -31.6280 C.2    97  MET97       0.2593
    157  O         10.5150   -7.8500  -31.9680 O.2    97  MET97      -0.2718
    158  CB        12.2130   -5.8140  -31.0750 C.3    97  MET97       0.0401
    159  CG        13.0970   -4.6220  -30.8780 C.3    97  MET97       0.0596
    160  SD        14.7670   -5.0680  -30.4560 S.3    97  MET97      -0.1393
    161  CE        15.0420   -4.1430  -28.9520 C.3    97  MET97       0.0692
    162  N          8.7520   -6.6830  -31.2010 N.am   98  GLY98      -0.1942
    163  CA         7.8650   -7.8390  -31.1520 C.3    98  GLY98       0.2014
    164  C          7.5320   -8.4850  -29.8050 C.2    98  GLY98       0.2639
    165  O          6.8080   -9.4900  -29.7790 O.2    98  GLY98      -0.2714
    166  N          8.0360   -7.9710  -28.6840 N.am   99  ALA99      -0.1963
    167  CA         7.5990   -8.5420  -27.4030 C.3    99  ALA99       0.1728
    168  C          6.1700   -8.0960  -27.2030 C.2    99  ALA99       0.2616
    169  O          5.7270   -7.1610  -27.8570 O.2    99  ALA99      -0.2715
    170  CB         8.4670   -8.1250  -26.2590 C.3    99  ALA99       0.0334
    171  N          5.4510   -8.7660  -26.3130 N.am  100  GLY100     -0.1955
    172  CA         4.0430   -8.4770  -26.1090 C.3   100  GLY100      0.1869
    173  C          3.5340   -8.8820  -24.7410 C.2   100  GLY100      0.2309
    174  O          4.1550   -8.5910  -23.7160 O.2   100  GLY100     -0.2863
    175  N          3.3730  -11.7360  -23.1590 N.3   102  LEU102     -0.1231
    176  CA         4.1620  -12.6380  -22.3270 C.3   102  LEU102      0.1693
    177  C          5.2450  -11.8680  -21.5430 C.2   102  LEU102      0.2591
    178  O          5.4010  -12.0760  -20.3140 O.2   102  LEU102     -0.2718
    179  CB         4.7820  -13.7670  -23.1810 C.3   102  LEU102      0.0284
    180  CG         5.7990  -14.6540  -22.4760 C.3   102  LEU102      0.0019
    181  CD1        5.1920  -15.2700  -21.2090 C.3   102  LEU102      0.0001
    182  CD2        6.2860  -15.7630  -23.4210 C.3   102  LEU102      0.0001
    183  N          5.9600  -10.9490  -22.2080 N.am  103  LEU103     -0.1980
    184  CA         6.9200  -10.0930  -21.4720 C.3   103  LEU103      0.1596
    185  C          6.2470   -9.3720  -20.3040 C.2   103  LEU103      0.2287
    186  O          6.7730   -9.3410  -19.1760 O.2   103  LEU103     -0.2864
    187  CB         7.6080   -9.0730  -22.4040 C.3   103  LEU103      0.0297
    188  CG         8.6360   -8.1420  -21.7440 C.3   103  LEU103      0.0022
    189  CD1        9.7240   -8.8920  -20.9930 C.3   103  LEU103      0.0001
    190  CD2        9.2740   -7.1780  -22.7680 C.3   103  LEU103      0.0001
    191  N          5.6900  -11.6350  -17.4620 N.3   106  MET106     -0.1245
    192  CA         6.9630  -11.9340  -16.8290 C.3   106  MET106      0.1570
    193  C          7.3670  -10.8020  -15.9150 C.2   106  MET106      0.2261
    194  O          7.8820  -11.0530  -14.8400 O.2   106  MET106     -0.2867
    195  CB         8.0420  -12.2060  -17.8620 C.3   106  MET106      0.0387
    196  CG         7.8770  -13.5640  -18.5100 C.3   106  MET106      0.0595
    197  SD         9.2770  -13.9370  -19.5410 S.3   106  MET106     -0.1393
    198  CE         8.8800  -15.6820  -19.9670 C.3   106  MET106      0.0692
    199  N          5.1790  -19.2160  -23.2780 N.3   188  HIS188     -0.1241
    200  CA         6.5210  -19.1430  -23.7980 C.3   188  HIS188      0.1621
    201  C          6.8290  -20.2380  -24.8370 C.2   188  HIS188      0.2264
    202  O          7.5750  -20.0270  -25.8080 O.2   188  HIS188     -0.2867
    203  CB         7.4660  -19.2350  -22.6580 C.3   188  HIS188      0.0745
    204  CG         8.8780  -19.2320  -23.0760 C.ar  188  HIS188      0.0817
    205  ND1        9.5690  -20.3910  -23.3350 N.ar  188  HIS188     -0.2268
    206  CD2        9.7380  -18.2100  -23.2960 C.ar  188  HIS188      0.1154
    207  CE1       10.8060  -20.0850  -23.6800 C.ar  188  HIS188      0.1986
    208  NE2       10.9210  -18.7720  -23.6760 N.ar  188  HIS188     -0.2212
    209  N          5.5900  -19.1480  -28.1470 N.3   191  GLU191     -0.1231
    210  CA         6.4900  -18.1880  -28.7710 C.3   191  GLU191      0.1699
    211  C          7.7090  -18.9000  -29.3320 C.2   191  GLU191      0.2592
    212  O          8.1960  -18.5520  -30.4010 O.2   191  GLU191     -0.2718
    213  CB         6.9100  -17.1260  -27.7650 C.3   191  GLU191      0.0402
    214  CG         5.7330  -16.3620  -27.1940 C.3   191  GLU191      0.1161
    215  CD         5.0610  -15.4770  -28.2470 C.2   191  GLU191      0.3649
    216  OE1        5.7910  -14.8660  -29.0510 O.co2 191  GLU191     -0.2457
    217  OE2        3.8130  -15.3970  -28.2790 O.co2 191  GLU191     -0.2457
    218  N          8.1940  -19.9110  -28.6090 N.am  192  LEU192     -0.1980
    219  CA         9.4470  -20.5600  -28.9640 C.3   192  LEU192      0.1596
    220  C          9.2560  -21.2360  -30.2950 C.2   192  LEU192      0.2287
    221  O         10.0540  -21.0570  -31.2210 O.2   192  LEU192     -0.2864
    222  CB         9.8790  -21.5730  -27.8960 C.3   192  LEU192      0.0297
    223  CG        11.3040  -22.1360  -28.0020 C.3   192  LEU192      0.0022
    224  CD1       11.6850  -22.7310  -26.6570 C.3   192  LEU192      0.0001
    225  CD2       11.4560  -23.1840  -29.0970 C.3   192  LEU192      0.0001
    226  N          8.8230  -19.2300  -33.6010 N.3   195  PHE195     -0.1241
    227  CA         9.9540  -18.3760  -33.9460 C.3   195  PHE195      0.1605
    228  C         10.5350  -18.6280  -35.3510 C.2   195  PHE195      0.2264
    229  O         11.0220  -19.7170  -35.6350 O.2   195  PHE195     -0.2867
    230  CB        11.0580  -18.5470  -32.9270 C.3   195  PHE195      0.0534
    231  CG        12.2930  -17.7560  -33.2400 C.ar  195  PHE195     -0.0203
    232  CD1       13.4590  -18.3950  -33.6220 C.ar  195  PHE195     -0.0042
    233  CD2       12.2880  -16.3680  -33.1540 C.ar  195  PHE195     -0.0042
    234  CE1       14.6050  -17.6760  -33.8950 C.ar  195  PHE195     -0.0003
    235  CE2       13.4410  -15.6350  -33.4390 C.ar  195  PHE195     -0.0003
    236  CZ        14.5960  -16.2900  -33.8160 C.ar  195  PHE195     -0.0000
@<TRIPOS>BOND
     1   229   228    2
     2   228   227    1
     3     1     2    1
     4     9     7   ar
     5     9    10   ar
     6    47    48    1
     7     7     6   ar
     8    10     8   ar
     9   227   226    1
    10   227   230    1
    11    51    48    1
    12    51    52    1
    13   234   236   ar
    14   234   232   ar
    15   236   235   ar
    16     2     3    1
    17     2     5    1
    18   232   231   ar
    19     8     6   ar
    20     6     5    1
    21     4     3    2
    22    48    49    1
    23   235   233   ar
    24   231   233   ar
    25   231   230    1
    26     3    11   am
    27    49    50    2
    28    52    53   ar
    29    52    54   ar
    30    53    55   ar
    31    57    54   ar
    32    57    59   ar
    33   157   156    2
    34    54    56   ar
    35    11    12    1
    36   155   156    1
    37   155   158    1
    38   155   154    1
    39   156   162   am
    40   221   220    2
    41   162   163    1
    42   163   164    1
    43    59    60   ar
    44    15    12    1
    45    15    16    1
    46   158   159    1
    47    55    56   ar
    48    12    13    1
    49    56    58   ar
    50   159   160    1
    51    61    62    1
    52    18    16    1
    53   160   161    1
    54   212   211    2
    55   220   219    1
    56    60    58   ar
    57    16    17    1
    58    65    62    1
    59    65    66    1
    60   164   165    2
    61   164   166   am
    62    13    19   am
    63    13    14    2
    64    62    63    1
    65   211   210    1
    66   211   218   am
    67    68    66   ar
    68    68    70   ar
    69   225   223    1
    70    19    20    1
    71   216   215   ar
    72   219   218    1
    73   219   222    1
    74    66    67   ar
    75    24    23    1
    76   210   209    1
    77   210   213    1
    78   166   167    1
    79    63    64    2
    80   217   215   ar
    81   215   214    1
    82    25    23    1
    83    70    71   ar
    84   223   222    1
    85   223   224    1
    86    23    20    1
    87   169   168    2
    88    20    21    1
    89    67    69   ar
    90   213   214    1
    91   167   168    1
    92   167   170    1
    93    81    82   ar
    94    81    79   ar
    95   168   171   am
    96    82    80   ar
    97    71    69   ar
    98    21    26   am
    99    21    22    2
   100    26    27    1
   101   171   172    1
   102    79    77   ar
   103   172   173    1
   104    30    27    1
   105    30    31    1
   106    80    78   ar
   107   202   201    2
   108    27    28    1
   109    29    28    2
   110    77    78   ar
   111    77    76    1
   112   201   200    1
   113   173   174    2
   114    28    32   am
   115    72    73    1
   116    42    41    2
   117    41    40    1
   118    76    73    1
   119   200   199    1
   120   200   203    1
   121   207   208   ar
   122   207   205   ar
   123   208   206   ar
   124   182   180    1
   125    32    33    1
   126    32    38    1
   127   205   204   ar
   128    73    74    1
   129   206   204   ar
   130   179   180    1
   131   179   176    1
   132   175   176    1
   133   204   203    1
   134    43    40    1
   135    43    44    1
   136    39    40    1
   137    39    34   am
   138    74    75    2
   139   190   188    1
   140    33    34    1
   141    33    36    1
   142    38    37    1
   143   180   181    1
   144    34    35    2
   145   187   188    1
   146   187   184    1
   147   176   177    1
   148   183   177   am
   149   183   184    1
   150   188   189    1
   151    44    45    1
   152   177   178    2
   153   184   185    1
   154    36    37    1
   155    89    87    1
   156    88    87    1
   157    87    84    1
   158   185   186    2
   159    45    46    1
   160   198   197    1
   161   105   103   ar
   162   105   107   ar
   163   103   102   ar
   164   197   196    1
   165   107   106   ar
   166   102   101    1
   167   102   104   ar
   168    83    84    1
   169   101    98    1
   170    84    85    1
   171   151   153   ar
   172   151   149   ar
   173   196   195    1
   174   106   104   ar
   175    96    94    1
   176   153   152   ar
   177    85    86    2
   178   114   113    1
   179    98    97    1
   180    98    99    1
   181    94    95    1
   182    94    91    1
   183    97    92   am
   184   195   192    1
   185   149   148   ar
   186   191   192    1
   187   141   140    1
   188   152   150   ar
   189    92    91    1
   190    92    93    2
   191    99   100    2
   192   192   193    1
   193    91    90    1
   194   113   112    1
   195   113   115    1
   196   112   109    1
   197   133   131   ar
   198   133   134   ar
   199   122   123    1
   200   122   121    1
   201   148   150   ar
   202   148   147    1
   203   138   137    2
   204   139   140    1
   205   139   136    1
   206   131   129   ar
   207   140   142    1
   208   134   132   ar
   209   193   194    2
   210   129   128    1
   211   129   130   ar
   212   137   136    1
   213   137   143   am
   214   132   130   ar
   215   128   125    1
   216   120   121    1
   217   120   117    1
   218   147   144    1
   219   144   143    1
   220   144   145    1
   221   116   110   am
   222   116   117    1
   223   136   135    1
   224   109   110    1
   225   109   108    1
   226   110   111    2
   227   117   118    1
   228   127   126    2
   229   145   146    2
   230   125   126    1
   231   125   124    1
   232   118   119    2
