@<TRIPOS>MOLECULE
tmp/4n7cA01.pdb
 153 147 0 0 0
SMALL
GASTEIGER

@<TRIPOS>ATOM
      1  N         16.8580    2.2720    8.6630 N.3    29  ILE29      -0.1245
      2  CA        17.6050    1.2400    9.4400 C.3    29  ILE29       0.1561
      3  C         17.0380   -0.0970    8.9830 C.2    29  ILE29       0.2260
      4  O         15.8630   -0.4400    9.2530 O.2    29  ILE29      -0.2867
      5  CB        17.5290    1.4540   10.9540 C.3    29  ILE29       0.0252
      6  CG1       18.1090    2.7990   11.2820 C.3    29  ILE29       0.0019
      7  CG2       18.2820    0.3220   11.6250 C.3    29  ILE29       0.0019
      8  CD1       18.0940    3.2720   12.7070 C.3    29  ILE29       0.0001
      9  N         18.5590   -3.3640    9.4620 N.3    31  ALA31      -0.1245
     10  CA        18.8130   -4.6230   10.1850 C.3    31  ALA31       0.1562
     11  C         19.7600   -4.3190   11.3090 C.2    31  ALA31       0.2260
     12  O         20.4980   -3.3410   11.2610 O.2    31  ALA31      -0.2867
     13  CB        19.3710   -5.6370    9.2980 C.3    31  ALA31       0.0290
     14  N         14.8390   -4.0910   19.3320 N.3    37  LEU37      -0.1245
     15  CA        14.6130   -3.0180   18.3510 C.3    37  LEU37       0.1561
     16  C         13.7640   -3.4710   17.1900 C.2    37  LEU37       0.2260
     17  O         13.3590   -2.6310   16.4280 O.2    37  LEU37      -0.2867
     18  CB        15.9430   -2.4950   17.8440 C.3    37  LEU37       0.0270
     19  CG        16.7760   -1.8210   18.8870 C.3    37  LEU37       0.0019
     20  CD1       18.0430   -1.3550   18.2910 C.3    37  LEU37       0.0001
     21  CD2       16.1410   -0.6680   19.5520 C.3    37  LEU37       0.0001
     22  N         10.3560   -1.7290   16.4390 N.3    40  TYR40      -0.1241
     23  CA        10.2410   -0.3500   15.8350 C.3    40  TYR40       0.1605
     24  C         10.5570   -0.5090   14.3820 C.2    40  TYR40       0.2264
     25  O         11.7120   -0.6250   14.0410 O.2    40  TYR40      -0.2867
     26  CB        11.1870    0.5300   16.5260 C.3    40  TYR40       0.0534
     27  CG        11.1670    0.4700   18.0190 C.ar   40  TYR40      -0.0201
     28  CD1       10.1130    0.9570   18.7730 C.ar   40  TYR40      -0.0009
     29  CD2       12.1730   -0.1200   18.6770 C.ar   40  TYR40      -0.0009
     30  CE1       10.0910    0.8690   20.1330 C.ar   40  TYR40       0.0417
     31  CE2       12.1400   -0.2610   20.0540 C.ar   40  TYR40       0.0417
     32  CZ        11.0800    0.2190   20.7800 C.ar   40  TYR40       0.1957
     33  OH        11.1620    0.0480   22.1520 O.3    40  TYR40      -0.2866
     34  N         12.5420    2.2860   10.6620 N.3    43  TRP43      -0.1241
     35  CA        13.0100    3.5210   11.3130 C.3    43  TRP43       0.1605
     36  C         13.8010    4.3500   10.4020 C.2    43  TRP43       0.2264
     37  O         14.7760    3.8760    9.7900 O.2    43  TRP43      -0.2867
     38  CB        13.8740    3.0850   12.4750 C.3    43  TRP43       0.0550
     39  CG        14.2870    4.1960   13.3840 C.ar   43  TRP43       0.0003
     40  CD1       15.0860    5.1940   13.0910 C.ar   43  TRP43       0.0946
     41  CD2       14.0050    4.2810   14.7720 C.ar   43  TRP43       0.0152
     42  NE1       15.3180    6.0170   14.2020 N.ar   43  TRP43      -0.2442
     43  CE2       14.6350    5.4800   15.2520 C.ar   43  TRP43       0.0810
     44  CE3       13.2430    3.5230   15.6620 C.ar   43  TRP43       0.0012
     45  CZ2       14.5060    5.9140   16.5650 C.ar   43  TRP43       0.0191
     46  CZ3       13.1550    3.8870   16.9610 C.ar   43  TRP43       0.0001
     47  CH2       13.7690    5.1170   17.4250 C.ar   43  TRP43       0.0015
     48  N         16.0000    7.8510   10.3750 N.3    45  ASP45      -0.1239
     49  CA        16.6590    8.9770   11.0050 C.3    45  ASP45       0.1674
     50  C         16.9380   10.0860    9.9890 C.2    45  ASP45       0.2266
     51  O         17.4930    9.8000    8.9230 O.2    45  ASP45      -0.2867
     52  CB        18.0260    8.6000   11.6030 C.3    45  ASP45       0.1410
     53  CG        17.9380    8.0510   13.0200 C.2    45  ASP45       0.3668
     54  OD1       16.9080    8.2040   13.7420 O.co2  45  ASP45      -0.2456
     55  OD2       18.9830    7.4960   13.4270 O.co2  45  ASP45      -0.2456
     56  N         19.1220   13.4390   10.0760 N.3    47  PHE47      -0.1241
     57  CA        20.1380   14.3380   10.6710 C.3    47  PHE47       0.1605
     58  C         20.1420   15.5810    9.7880 C.2    47  PHE47       0.2264
     59  O         20.2990   15.5030    8.5770 O.2    47  PHE47      -0.2867
     60  CB        21.5230   13.6940   10.6370 C.3    47  PHE47       0.0534
     61  CG        21.6740   12.4510   11.4750 C.ar   47  PHE47      -0.0203
     62  CD1       22.2260   12.4740   12.7190 C.ar   47  PHE47      -0.0042
     63  CD2       21.3590   11.2370   10.9040 C.ar   47  PHE47      -0.0042
     64  CE1       22.3470   11.3510   13.4650 C.ar   47  PHE47      -0.0003
     65  CE2       21.5070   10.0710   11.6470 C.ar   47  PHE47      -0.0003
     66  CZ        22.0050   10.1460   12.9500 C.ar   47  PHE47      -0.0000
     67  N         28.9250   10.0160   18.1090 N.3    79  PHE79      -0.1241
     68  CA        27.8990   10.9550   18.2840 C.3    79  PHE79       0.1605
     69  C         27.0010   10.6000   19.4470 C.2    79  PHE79       0.2264
     70  O         26.7350    9.4440   19.6650 O.2    79  PHE79      -0.2867
     71  CB        27.1090   11.2540   17.0030 C.3    79  PHE79       0.0534
     72  CG        26.2710   10.1160   16.4630 C.ar   79  PHE79      -0.0203
     73  CD1       26.8320    9.1790   15.6660 C.ar   79  PHE79      -0.0042
     74  CD2       24.8950   10.0380   16.6910 C.ar   79  PHE79      -0.0042
     75  CE1       26.0910    8.1600   15.0830 C.ar   79  PHE79      -0.0003
     76  CE2       24.1330    9.0730   16.0650 C.ar   79  PHE79      -0.0003
     77  CZ        24.7090    8.1130   15.3180 C.ar   79  PHE79      -0.0000
     78  N         23.0470   11.1910   20.9410 N.3    81  ILE81      -0.1245
     79  CA        21.7200   11.7310   20.7230 C.3    81  ILE81       0.1561
     80  C         21.0760   11.8970   22.0650 C.2    81  ILE81       0.2260
     81  O         21.1040   11.0150   22.9590 O.2    81  ILE81      -0.2867
     82  CB        20.7840   10.8220   19.9110 C.3    81  ILE81       0.0252
     83  CG1       21.4490   10.3910   18.5990 C.3    81  ILE81       0.0019
     84  CG2       19.4350   11.5160   19.7480 C.3    81  ILE81       0.0019
     85  CD1       20.6030    9.2290   17.9480 C.3    81  ILE81       0.0001
     86  N         17.4770   12.6720   23.0270 N.3    83  TYR83      -0.1241
     87  CA        16.0560   12.8170   22.6450 C.3    83  TYR83       0.1605
     88  C         15.2240   13.5430   23.7050 C.2    83  TYR83       0.2264
     89  O         15.5230   13.5600   24.8770 O.2    83  TYR83      -0.2867
     90  CB        15.4260   11.4990   22.3220 C.3    83  TYR83       0.0534
     91  CG        15.9090   10.8230   21.0370 C.ar   83  TYR83      -0.0201
     92  CD1       16.7080    9.7300   21.0590 C.ar   83  TYR83      -0.0009
     93  CD2       15.3740   11.1860   19.8330 C.ar   83  TYR83      -0.0009
     94  CE1       17.0940    9.1020   19.8700 C.ar   83  TYR83       0.0417
     95  CE2       15.7600   10.5690   18.6160 C.ar   83  TYR83       0.0417
     96  CZ        16.5650    9.4780   18.6400 C.ar   83  TYR83       0.1957
     97  OH        16.8290    8.8160   17.4550 O.3    83  TYR83      -0.2866
     98  N         16.1620    5.7280   23.7480 N.3    90  PHE90      -0.1241
     99  CA        17.0680    5.7870   22.6320 C.3    90  PHE90       0.1605
    100  C         18.2150    6.7670   22.7720 C.2    90  PHE90       0.2264
    101  O         19.1140    6.7930   21.8850 O.2    90  PHE90      -0.2867
    102  CB        16.3050    6.0750   21.3370 C.3    90  PHE90       0.0534
    103  CG        15.2620    5.0580   21.0200 C.ar   90  PHE90      -0.0203
    104  CD1       15.6160    3.8850   20.3760 C.ar   90  PHE90      -0.0042
    105  CD2       14.0020    5.2550   21.4230 C.ar   90  PHE90      -0.0042
    106  CE1       14.6090    2.9170   20.1220 C.ar   90  PHE90      -0.0003
    107  CE2       12.9800    4.3430   21.1580 C.ar   90  PHE90      -0.0003
    108  CZ        13.3200    3.1710   20.5050 C.ar   90  PHE90      -0.0000
    109  N         26.6400    6.8270   20.2930 N.3    94  TYR94      -0.1241
    110  CA        26.6960    6.0440   19.1040 C.3    94  TYR94       0.1605
    111  C         27.9900    6.2700   18.4160 C.2    94  TYR94       0.2264
    112  O         28.6700    7.2490   18.6910 O.2    94  TYR94      -0.2867
    113  CB        25.5050    6.3670   18.1460 C.3    94  TYR94       0.0534
    114  CG        24.1470    6.0330   18.6890 C.ar   94  TYR94      -0.0201
    115  CD1       23.5370    4.8090   18.4150 C.ar   94  TYR94      -0.0009
    116  CD2       23.4730    6.9140   19.4930 C.ar   94  TYR94      -0.0009
    117  CE1       22.2750    4.5430   18.9360 C.ar   94  TYR94       0.0417
    118  CE2       22.2220    6.6520   19.9830 C.ar   94  TYR94       0.0417
    119  CZ        21.6210    5.4340   19.6870 C.ar   94  TYR94       0.1957
    120  OH        20.3380    5.1320   20.1860 O.3    94  TYR94      -0.2866
    121  N         21.9210    2.2720   23.4060 N.3   111  PRO111     -0.2116
    122  CA        20.6340    2.6430   24.0400 C.3   111  PRO111      0.1372
    123  C         19.9950    1.5540   24.9100 C.2   111  PRO111      0.2244
    124  O         20.0630    0.3570   24.5760 O.2   111  PRO111     -0.2868
    125  CB        19.7380    2.8880   22.8770 C.3   111  PRO111      0.0268
    126  CG        20.2030    1.9690   21.7960 C.3   111  PRO111      0.0207
    127  CD        21.6950    2.0060   21.9490 C.3   111  PRO111      0.0892
    128  N         23.8390   -2.2950   20.3910 N.3   118  VAL118     -0.1245
    129  CA        23.3700   -2.6700   19.0570 C.3   118  VAL118      0.1561
    130  C         24.4150   -2.2950   18.0080 C.2   118  VAL118      0.2260
    131  O         25.0600   -1.2770   18.1240 O.2   118  VAL118     -0.2867
    132  CB        22.0200   -2.0450   18.6910 C.3   118  VAL118      0.0252
    133  CG1       22.0060   -0.5150   18.6850 C.3   118  VAL118      0.0019
    134  CG2       21.4350   -2.5420   17.3360 C.3   118  VAL118      0.0019
    135  N         23.9020   -1.7790   13.8500 N.3   120  TYR120     -0.1241
    136  CA        22.8840   -1.7400   12.8360 C.3   120  TYR120      0.1605
    137  C         23.3580   -1.2300   11.5160 C.2   120  TYR120      0.2264
    138  O         24.4030   -0.5120   11.4430 O.2   120  TYR120     -0.2867
    139  CB        21.7300   -0.9050   13.3090 C.3   120  TYR120      0.0534
    140  CG        21.9240    0.5870   13.5440 C.ar  120  TYR120     -0.0201
    141  CD1       22.2050    1.0340   14.8100 C.ar  120  TYR120     -0.0009
    142  CD2       21.6310    1.5150   12.5790 C.ar  120  TYR120     -0.0009
    143  CE1       22.2800    2.3800   15.1350 C.ar  120  TYR120      0.0417
    144  CE2       21.6960    2.8520   12.8360 C.ar  120  TYR120      0.0417
    145  CZ        21.9750    3.3000   14.1110 C.ar  120  TYR120      0.1957
    146  OH        22.0860    4.6600   14.4100 O.3   120  TYR120     -0.2866
    147  N         14.8660   -5.2320   10.3470 N.3   172  THR172     -0.1218
    148  CA        14.0180   -4.2830   11.1000 C.3   172  THR172      0.1862
    149  C         13.1360   -3.4500   10.1630 C.2   172  THR172      0.2287
    150  O         12.6940   -2.3220   10.4920 O.2   172  THR172     -0.2866
    151  CB        14.8660   -3.3870   12.0550 C.3   172  THR172      0.1770
    152  OG1       16.0190   -2.8590   11.4040 O.3   172  THR172     -0.2211
    153  CG2       15.3650   -4.2280   13.2460 C.3   172  THR172      0.0375
@<TRIPOS>BOND
     1    59    58    2
     2     1     2    1
     3    51    50    2
     4     3     4    2
     5     3     2    1
     6    13    10    1
     7     2     5    1
     8     9    10    1
     9    58    57    1
    10    37    36    2
    11    50    49    1
    12    56    57    1
    13   149   150    2
    14   149   148    1
    15    10    11    1
    16   147   148    1
    17    48    49    1
    18    36    35    1
    19    60    57    1
    20    60    61    1
    21    34    35    1
    22    63    61   ar
    23    63    65   ar
    24     5     6    1
    25     5     7    1
    26    49    52    1
    27   148   151    1
    28    12    11    2
    29     6     8    1
    30    35    38    1
    31   152   151    1
    32   138   137    2
    33    61    62   ar
    34   137   136    1
    35    52    53    1
    36    65    66   ar
    37   151   153    1
    38    38    39    1
    39   142   144   ar
    40   142   140   ar
    41    62    64   ar
    42   144   145   ar
    43   136   139    1
    44   136   135    1
    45    66    64   ar
    46    53    55   ar
    47    53    54   ar
    48    40    39   ar
    49    40    42   ar
    50   139   140    1
    51    39    41   ar
    52   140   141   ar
    53    25    24    2
    54   145   146    1
    55   145   143   ar
    56    42    43   ar
    57    24    23    1
    58    41    43   ar
    59    41    44   ar
    60   141   143   ar
    61    75    77   ar
    62    75    73   ar
    63    43    45   ar
    64    77    76   ar
    65    44    46   ar
    66    73    72   ar
    67    23    22    1
    68    23    26    1
    69    76    74   ar
    70    17    16    2
    71    72    74   ar
    72    72    71    1
    73    26    27    1
    74    45    47   ar
    75    46    47   ar
    76    71    68    1
    77    16    15    1
    78   134   132    1
    79    97    96    1
    80    18    15    1
    81    18    19    1
    82    85    83    1
    83   130   131    2
    84   130   129    1
    85    27    29   ar
    86    27    28   ar
    87    67    68    1
    88   113   114    1
    89   113   110    1
    90    68    69    1
    91    20    19    1
    92    15    14    1
    93   115   114   ar
    94   115   117   ar
    95   111   112    2
    96   111   110    1
    97    83    82    1
    98    95    96   ar
    99    95    93   ar
   100    96    94   ar
   101    29    31   ar
   102   133   132    1
   103   114   116   ar
   104   132   129    1
   105    28    30   ar
   106    19    21    1
   107   117   119   ar
   108   129   128    1
   109   110   109    1
   110    69    70    2
   111   116   118   ar
   112   119   118   ar
   113   119   120    1
   114    84    82    1
   115    93    91   ar
   116    94    92   ar
   117    82    79    1
   118    31    32   ar
   119   106   104   ar
   120   106   108   ar
   121    30    32   ar
   122   104   103   ar
   123   108   107   ar
   124    79    78    1
   125    79    80    1
   126    32    33    1
   127   103   102    1
   128   103   105   ar
   129    91    92   ar
   130    91    90    1
   131   107   105   ar
   132   102    99    1
   133   126   127    1
   134   126   125    1
   135   101   100    2
   136   127   121    1
   137    80    81    2
   138    90    87    1
   139    99   100    1
   140    99    98    1
   141    87    86    1
   142    87    88    1
   143   125   122    1
   144   121   122    1
   145    88    89    2
   146   122   123    1
   147   124   123    2
