@<TRIPOS>MOLECULE
tmp/4n7eA01.pdb
 105 99 0 0 0
SMALL
GASTEIGER

@<TRIPOS>ATOM
      1  N         -4.3400   27.7960   32.4330 N.3    34  SER34      -0.1217
      2  CA        -3.1040   27.2930   33.0160 C.3    34  SER34       0.1889
      3  C         -2.9790   27.7570   34.4630 C.2    34  SER34       0.2288
      4  O         -1.8820   27.7860   35.0210 O.2    34  SER34      -0.2866
      5  CB        -1.8930   27.8320   32.2520 C.3    34  SER34       0.2089
      6  OG        -1.8410   27.3010   30.9400 O.3    34  SER34      -0.2183
      7  N         -7.2420   26.6550   43.6690 N.3    55  GLU55      -0.1231
      8  CA        -6.1230   26.8340   42.7470 C.3    55  GLU55       0.1699
      9  C         -5.6080   25.5250   42.1700 C.2    55  GLU55       0.2592
     10  O         -4.6590   25.5140   41.3980 O.2    55  GLU55      -0.2718
     11  CB        -4.9740   27.5470   43.4450 C.3    55  GLU55       0.0402
     12  CG        -5.2590   28.9780   43.7970 C.3    55  GLU55       0.1161
     13  CD        -4.1240   29.6320   44.5870 C.2    55  GLU55       0.3649
     14  OE1       -3.1970   28.9230   45.0630 O.co2  55  GLU55      -0.2457
     15  OE2       -4.1620   30.8760   44.7310 O.co2  55  GLU55      -0.2457
     16  N         -6.1800   24.4190   42.6160 N.am   56  ASP56      -0.1960
     17  CA        -5.7060   23.0920   42.2340 C.3    56  ASP56       0.1840
     18  C         -6.5070   22.3620   41.1460 C.2    56  ASP56       0.2622
     19  O         -6.3620   21.1470   41.0290 O.2    56  ASP56      -0.2715
     20  CB        -5.5860   22.1950   43.4700 C.3    56  ASP56       0.1450
     21  CG        -6.7520   22.3420   44.4170 C.2    56  ASP56       0.3671
     22  OD1       -7.9110   22.4320   43.9350 O.co2  56  ASP56      -0.2456
     23  OD2       -6.4940   22.3690   45.6450 O.co2  56  ASP56      -0.2456
     24  N         -7.4060   23.0640   40.4480 N.am   57  TYR57      -0.1974
     25  CA        -8.2830   22.4530   39.4200 C.3    57  TYR57       0.1639
     26  C         -9.5590   21.8340   40.0110 C.2    57  TYR57       0.2290
     27  O        -10.2290   21.0600   39.3480 O.2    57  TYR57      -0.2864
     28  CB        -7.5360   21.4270   38.5460 C.3    57  TYR57       0.0560
     29  CG        -6.7520   22.0900   37.4340 C.ar   57  TYR57      -0.0198
     30  CD1       -5.4980   22.6420   37.6760 C.ar   57  TYR57      -0.0009
     31  CD2       -7.2840   22.1960   36.1440 C.ar   57  TYR57      -0.0009
     32  CE1       -4.7870   23.2650   36.6690 C.ar   57  TYR57       0.0417
     33  CE2       -6.5810   22.8260   35.1290 C.ar   57  TYR57       0.0417
     34  CZ        -5.3330   23.3590   35.4020 C.ar   57  TYR57       0.1957
     35  OH        -4.6230   23.9790   34.4030 O.3    57  TYR57      -0.2866
     36  N         -9.5590   20.2320   43.2430 N.3    59  LYS59      -0.1245
     37  CA        -9.2520   19.2070   44.2190 C.3    59  LYS59       0.1561
     38  C         -9.5470   19.7160   45.6290 C.2    59  LYS59       0.2260
     39  O        -10.1830   19.0320   46.4280 O.2    59  LYS59      -0.2867
     40  CB        -7.7940   18.7650   44.0860 C.3    59  LYS59       0.0271
     41  CG        -7.4630   18.1690   42.7260 C.3    59  LYS59       0.0035
     42  CD        -5.9770   17.9110   42.5740 C.3    59  LYS59       0.0206
     43  CE        -5.6800   17.2280   41.2570 C.3    59  LYS59       0.1093
     44  NZ        -4.2330   17.2840   40.9070 N.3    59  LYS59      -0.1314
     45  N         -7.4930   20.3730   27.6130 N.3   486  ARG486     -0.1231
     46  CA        -6.0970   20.0530   27.7570 C.3   486  ARG486      0.1694
     47  C         -5.6540   19.4760   29.1030 C.2   486  ARG486      0.2593
     48  O         -4.4690   19.1560   29.2780 O.2   486  ARG486     -0.2718
     49  CB        -5.2880   21.2970   27.4530 C.3   486  ARG486      0.0321
     50  CG        -5.1870   21.5170   25.9930 C.3   486  ARG486      0.0489
     51  CD        -4.4310   22.7380   25.5920 C.3   486  ARG486      0.2205
     52  NE        -4.5760   22.8510   24.1480 N.pl3 486  ARG486     -0.0865
     53  CZ        -3.6620   22.4960   23.2430 C.cat 486  ARG486      0.5346
     54  NH1       -2.4610   22.0310   23.6260 N.pl3 486  ARG486      0.1354
     55  NH2       -3.9420   22.6370   21.9410 N.pl3 486  ARG486      0.1354
     56  N         -6.5420   19.3800   30.0870 N.am  487  SER487     -0.1938
     57  CA        -6.0140   19.0020   31.3790 C.3   487  SER487      0.2055
     58  C         -6.2990   17.5410   31.5670 C.2   487  SER487      0.2643
     59  O         -6.9540   16.9270   30.7310 O.2   487  SER487     -0.2714
     60  CB        -6.6120   19.8360   32.5050 C.3   487  SER487      0.2130
     61  OG        -7.9020   19.3950   32.8610 O.3   487  SER487     -0.2179
     62  N         -5.7360   16.9660   32.6180 N.am  488  MET488     -0.1962
     63  CA        -6.0030   15.5910   32.9870 C.3   488  MET488      0.1736
     64  C         -6.8480   15.5310   34.2320 C.2   488  MET488      0.2616
     65  O         -7.0570   14.4710   34.8090 O.2   488  MET488     -0.2715
     66  CB        -4.7010   14.8430   33.1260 C.3   488  MET488      0.0427
     67  CG        -3.8990   15.0100   31.8630 C.3   488  MET488      0.0599
     68  SD        -2.7980   13.6480   31.5730 S.3   488  MET488     -0.1393
     69  CE        -3.9940   12.3350   31.5260 C.3   488  MET488      0.0692
     70  N         -7.2670   16.7060   34.6770 N.am  489  ASN489     -0.1972
     71  CA        -8.1430   16.8250   35.8270 C.3   489  ASN489      0.1688
     72  C         -9.6360   16.9110   35.4280 C.2   489  ASN489      0.2292
     73  O        -10.0130   17.7220   34.5770 O.2   489  ASN489     -0.2864
     74  CB        -7.7420   18.0510   36.6530 C.3   489  ASN489      0.1181
     75  CG        -6.3440   17.9370   37.2540 C.2   489  ASN489      0.2629
     76  OD1       -6.0930   17.0700   38.0800 O.2   489  ASN489     -0.2716
     77  ND2       -5.4350   18.8340   36.8480 N.am  489  ASN489     -0.0877
     78  N         -7.3800   13.3000   39.2230 N.3   508  ASP508     -0.1239
     79  CA        -6.2380   13.5980   38.3710 C.3   508  ASP508      0.1674
     80  C         -5.8270   12.3050   37.6880 C.2   508  ASP508      0.2266
     81  O         -5.5960   11.2870   38.3380 O.2   508  ASP508     -0.2867
     82  CB        -5.0760   14.1930   39.1760 C.3   508  ASP508      0.1410
     83  CG        -4.0820   14.9830   38.3090 C.2   508  ASP508      0.3668
     84  OD1       -3.9870   14.7290   37.0830 O.co2 508  ASP508     -0.2456
     85  OD2       -3.3870   15.8680   38.8680 O.co2 508  ASP508     -0.2456
     86  N          0.2930   10.6040   27.2500 N.3   557  GLN557     -0.1245
     87  CA        -0.1690   11.9820   27.3720 C.3   557  GLN557      0.1566
     88  C          0.3930   12.9130   26.2950 C.2   557  GLN557      0.2260
     89  O          1.6160   13.0120   26.1260 O.2   557  GLN557     -0.2867
     90  CB         0.1910   12.5210   28.7580 C.3   557  GLN557      0.0367
     91  CG        -0.0370   14.0110   28.9590 C.3   557  GLN557      0.0905
     92  CD         0.3820   14.4920   30.3510 C.2   557  GLN557      0.2608
     93  OE1        0.8990   13.7170   31.1720 O.2   557  GLN557     -0.2717
     94  NE2        0.1440   15.7770   30.6260 N.am  557  GLN557     -0.0878
     95  N         -0.0110   19.4860   28.0190 N.3   560  ARG560     -0.1245
     96  CA        -0.6480   20.7960   27.9110 C.3   560  ARG560      0.1563
     97  C         -0.1060   21.6340   26.7520 C.2   560  ARG560      0.2260
     98  O         -0.7740   22.5360   26.2760 O.2   560  ARG560     -0.2867
     99  CB        -0.4990   21.5880   29.2150 C.3   560  ARG560      0.0307
    100  CG        -1.1940   20.9900   30.4160 C.3   560  ARG560      0.0489
    101  CD        -1.3880   22.0240   31.5190 C.3   560  ARG560      0.2205
    102  NE        -2.2560   23.1280   31.1100 N.pl3 560  ARG560     -0.0865
    103  CZ        -3.5890   23.1220   31.2010 C.cat 560  ARG560      0.5346
    104  NH1       -4.2300   22.0720   31.6960 N.pl3 560  ARG560      0.1354
    105  NH2       -4.2910   24.1700   30.7950 N.pl3 560  ARG560      0.1354
@<TRIPOS>BOND
     1    55    53    1
     2    53    54    1
     3    53    52    2
     4    52    51    1
     5    51    50    1
     6    50    49    1
     7    89    88    2
     8    98    97    2
     9    88    87    1
    10    97    96    1
    11    86    87    1
    12    87    90    1
    13    49    46    1
    14    45    46    1
    15    46    47    1
    16    96    95    1
    17    96    99    1
    18    90    91    1
    19    91    92    1
    20    47    48    2
    21    47    56   am
    22    99   100    1
    23    56    57    1
    24    92    94   am
    25    92    93    2
    26   100   101    1
    27    59    58    2
    28   105   103    1
    29     6     5    1
    30   102   103    2
    31   102   101    1
    32   103   104    1
    33    57    58    1
    34    57    60    1
    35    69    68    1
    36    58    62   am
    37    68    67    1
    38    67    66    1
    39     5     2    1
    40     1     2    1
    41    60    61    1
    42    62    63    1
    43    63    66    1
    44    63    64    1
    45     2     3    1
    46    64    70   am
    47    64    65    2
    48    35    34    1
    49     3     4    2
    50    73    72    2
    51    70    71    1
    52    33    34   ar
    53    33    31   ar
    54    34    32   ar
    55    72    71    1
    56    71    74    1
    57    31    29   ar
    58    74    75    1
    59    32    30   ar
    60    77    75   am
    61    84    83   ar
    62    75    76    2
    63    29    30   ar
    64    29    28    1
    65    80    81    2
    66    80    79    1
    67    83    85   ar
    68    83    82    1
    69    79    82    1
    70    79    78    1
    71    28    25    1
    72    27    26    2
    73    25    26    1
    74    25    24    1
    75    24    18   am
    76    44    43    1
    77    19    18    2
    78    18    17    1
    79    43    42    1
    80    10     9    2
    81     9    16   am
    82     9     8    1
    83    17    16    1
    84    17    20    1
    85    42    41    1
    86    41    40    1
    87     8    11    1
    88     8     7    1
    89    36    37    1
    90    11    12    1
    91    20    21    1
    92    12    13    1
    93    22    21   ar
    94    40    37    1
    95    37    38    1
    96    21    23   ar
    97    13    15   ar
    98    13    14   ar
    99    38    39    2
