@<TRIPOS>MOLECULE
tmp/4n7eA03.pdb
 149 147 0 0 0
SMALL
GASTEIGER

@<TRIPOS>ATOM
      1  N        -34.2410   47.7080   13.3190 N.3   211  TYR211     -0.1227
      2  CA       -34.8740   46.6790   14.1120 C.3   211  TYR211      0.1736
      3  C        -33.8690   46.0450   15.0630 C.2   211  TYR211      0.2596
      4  O        -34.0940   45.9570   16.2620 O.2   211  TYR211     -0.2718
      5  CB       -35.4960   45.6360   13.1980 C.3   211  TYR211      0.0548
      6  CG       -36.3290   44.5880   13.8850 C.ar  211  TYR211     -0.0200
      7  CD1      -35.7510   43.4100   14.3350 C.ar  211  TYR211     -0.0009
      8  CD2      -37.7000   44.7520   14.0470 C.ar  211  TYR211     -0.0009
      9  CE1      -36.5060   42.4260   14.9400 C.ar  211  TYR211      0.0417
     10  CE2      -38.4680   43.7710   14.6550 C.ar  211  TYR211      0.0417
     11  CZ       -37.8580   42.6100   15.1000 C.ar  211  TYR211      0.1957
     12  OH       -38.5810   41.6130   15.7060 O.3   211  TYR211     -0.2866
     13  N        -32.7250   45.6420   14.5400 N.am  212  SER212     -0.1938
     14  CA       -31.7830   44.9370   15.3780 C.3   212  SER212      0.2055
     15  C        -30.4020   44.9230   14.7380 C.2   212  SER212      0.2643
     16  O        -30.2450   45.3420   13.5890 O.2   212  SER212     -0.2714
     17  CB       -32.2880   43.5140   15.6150 C.3   212  SER212      0.2130
     18  OG       -31.5010   42.8550   16.5820 O.3   212  SER212     -0.2179
     19  N        -29.4090   44.4130   15.4620 N.am  213  PHE213     -0.1959
     20  CA       -28.0710   44.3030   14.8970 C.3   213  PHE213      0.1771
     21  C        -27.2250   43.2440   15.6030 C.2   213  PHE213      0.2620
     22  O        -27.5760   42.7660   16.6820 O.2   213  PHE213     -0.2715
     23  CB       -27.3620   45.6650   14.9190 C.3   213  PHE213      0.0574
     24  CG       -26.7190   46.0070   16.2270 C.ar  213  PHE213     -0.0200
     25  CD1      -27.4490   46.6040   17.2290 C.ar  213  PHE213     -0.0042
     26  CD2      -25.3740   45.7530   16.4420 C.ar  213  PHE213     -0.0042
     27  CE1      -26.8580   46.9250   18.4500 C.ar  213  PHE213     -0.0003
     28  CE2      -24.7740   46.0720   17.6470 C.ar  213  PHE213     -0.0003
     29  CZ       -25.5170   46.6580   18.6570 C.ar  213  PHE213     -0.0000
     30  N        -26.1220   42.8610   14.9660 N.am  214  GLY214     -0.1954
     31  CA       -25.2440   41.8480   15.5140 C.3   214  GLY214      0.1869
     32  C        -23.9240   41.7810   14.7760 C.2   214  GLY214      0.2309
     33  O        -23.8140   42.2700   13.6460 O.2   214  GLY214     -0.2863
     34  N        -23.9790   43.3330   11.0090 N.3   221  PHE221     -0.1227
     35  CA       -25.2950   43.0980   10.4310 C.3   221  PHE221      0.1736
     36  C        -26.3350   44.0040   11.0910 C.2   221  PHE221      0.2595
     37  O        -26.3060   44.1930   12.3070 O.2   221  PHE221     -0.2718
     38  CB       -25.7070   41.6280   10.5950 C.3   221  PHE221      0.0547
     39  CG       -24.8840   40.6660    9.7990 C.ar  221  PHE221     -0.0202
     40  CD1      -24.9960   40.6150    8.4160 C.ar  221  PHE221     -0.0042
     41  CD2      -24.0100   39.7900   10.4300 C.ar  221  PHE221     -0.0042
     42  CE1      -24.2330   39.7220    7.6630 C.ar  221  PHE221     -0.0003
     43  CE2      -23.2460   38.8850    9.6830 C.ar  221  PHE221     -0.0003
     44  CZ       -23.3600   38.8540    8.2990 C.ar  221  PHE221     -0.0000
     45  N        -27.2520   44.5610   10.3000 N.am  222  ALA222     -0.1966
     46  CA       -28.3670   45.3350   10.8510 C.3   222  ALA222      0.1728
     47  C        -29.6380   45.0520   10.0660 C.2   222  ALA222      0.2616
     48  O        -29.6140   45.0990    8.8340 O.2   222  ALA222     -0.2715
     49  CB       -28.0480   46.8310   10.8320 C.3   222  ALA222      0.0334
     50  N        -30.7430   44.7550   10.7540 N.am  223  SER223     -0.1950
     51  CA       -32.0210   44.5920   10.0570 C.3   223  SER223      0.1924
     52  C        -32.7550   45.9210   10.0670 C.2   223  SER223      0.2314
     53  O        -32.8790   46.5640   11.1120 O.2   223  SER223     -0.2863
     54  CB       -32.8920   43.4800   10.6720 C.3   223  SER223      0.2116
     55  OG       -33.0750   43.6160   12.0710 O.3   223  SER223     -0.2180
     56  N        -38.7150   43.9190    7.1790 N.3   232  ARG232     -0.1245
     57  CA       -37.3470   44.3740    7.3380 C.3   232  ARG232      0.1563
     58  C        -36.3920   43.4910    6.5430 C.2   232  ARG232      0.2260
     59  O        -36.7410   42.3840    6.1250 O.2   232  ARG232     -0.2867
     60  CB       -36.9620   44.3910    8.8250 C.3   232  ARG232      0.0307
     61  CG       -37.0050   43.0260    9.4980 C.3   232  ARG232      0.0489
     62  CD       -37.0080   43.1550   11.0070 C.3   232  ARG232      0.2205
     63  NE       -36.7730   41.8700   11.6600 N.pl3 232  ARG232     -0.0865
     64  CZ       -37.7250   41.0030   11.9930 C.cat 232  ARG232      0.5346
     65  NH1      -39.0030   41.2690   11.7630 N.pl3 232  ARG232      0.1354
     66  NH2      -37.3940   39.8630   12.5700 N.pl3 232  ARG232      0.1354
     67  N        -31.8920   42.4740    5.9830 N.3   234  ILE234     -0.1245
     68  CA       -30.4920   42.6070    6.3740 C.3   234  ILE234      0.1561
     69  C        -29.6400   43.5310    5.4820 C.2   234  ILE234      0.2260
     70  O        -29.6440   43.4230    4.2530 O.2   234  ILE234     -0.2867
     71  CB       -29.8090   41.2280    6.4090 C.3   234  ILE234      0.0252
     72  CG1      -30.5150   40.3070    7.4100 C.3   234  ILE234      0.0019
     73  CG2      -28.3500   41.3760    6.7720 C.3   234  ILE234      0.0019
     74  CD1      -30.4000   40.7700    8.8290 C.3   234  ILE234      0.0001
     75  N        -37.7220   36.0050   11.8690 N.3   257  PHE257     -0.1227
     76  CA       -36.4560   36.5060   12.4070 C.3   257  PHE257      0.1736
     77  C        -35.3060   36.0440   11.5510 C.2   257  PHE257      0.2595
     78  O        -35.4460   35.0950   10.7750 O.2   257  PHE257     -0.2718
     79  CB       -36.2320   36.0270   13.8350 C.3   257  PHE257      0.0547
     80  CG       -36.1960   34.5380   13.9550 C.ar  257  PHE257     -0.0202
     81  CD1      -37.3660   33.8170   14.1600 C.ar  257  PHE257     -0.0042
     82  CD2      -35.0040   33.8480   13.8320 C.ar  257  PHE257     -0.0042
     83  CE1      -37.3450   32.4320   14.2500 C.ar  257  PHE257     -0.0003
     84  CE2      -34.9790   32.4640   13.9220 C.ar  257  PHE257     -0.0003
     85  CZ       -36.1630   31.7570   14.1290 C.ar  257  PHE257     -0.0000
     86  N        -34.1710   36.7180   11.6960 N.am  258  TYR258     -0.1962
     87  CA       -32.9000   36.2220   11.1900 C.3   258  TYR258      0.1771
     88  C        -32.1020   35.6870   12.3700 C.2   258  TYR258      0.2620
     89  O        -32.2030   36.1860   13.4840 O.2   258  TYR258     -0.2715
     90  CB       -32.1190   37.3160   10.5050 C.3   258  TYR258      0.0574
     91  CG       -32.8270   37.9560    9.3770 C.ar  258  TYR258     -0.0198
     92  CD1      -32.9130   37.3220    8.1460 C.ar  258  TYR258     -0.0009
     93  CD2      -33.3920   39.2050    9.5140 C.ar  258  TYR258     -0.0009
     94  CE1      -33.5530   37.9040    7.0900 C.ar  258  TYR258      0.0417
     95  CE2      -34.0320   39.8090    8.4550 C.ar  258  TYR258      0.0417
     96  CZ       -34.1090   39.1520    7.2460 C.ar  258  TYR258      0.1957
     97  OH       -34.7590   39.7480    6.1890 O.3   258  TYR258     -0.2866
     98  N        -31.3000   34.6760   12.1390 N.am  259  SER259     -0.1936
     99  CA       -30.4270   34.2320   13.1880 C.3   259  SER259      0.2055
    100  C        -29.0820   34.0120   12.5320 C.2   259  SER259      0.2642
    101  O        -29.0060   33.3960   11.4700 O.2   259  SER259     -0.2714
    102  CB       -30.9830   32.9660   13.8290 C.3   259  SER259      0.2130
    103  OG       -30.5310   32.7960   15.1530 O.3   259  SER259     -0.2179
    104  N        -28.0200   34.5490   13.1250 N.am  260  ILE260     -0.1977
    105  CA       -26.6660   34.2520   12.6380 C.3   260  ILE260      0.1596
    106  C        -26.2740   32.9430   13.2720 C.2   260  ILE260      0.2287
    107  O        -26.0640   32.8640   14.4760 O.2   260  ILE260     -0.2864
    108  CB       -25.6680   35.3250   13.0480 C.3   260  ILE260      0.0276
    109  CG1      -26.0090   36.6390   12.3580 C.3   260  ILE260      0.0022
    110  CG2      -24.2070   34.8750   12.7480 C.3   260  ILE260      0.0022
    111  CD1      -25.3450   37.8040   13.0130 C.3   260  ILE260      0.0001
    112  N        -26.4490   32.1290    7.6180 N.3   270  MET270     -0.1245
    113  CA       -27.6050   32.8750    8.0700 C.3   270  MET270      0.1570
    114  C        -28.8940   32.0450    8.0240 C.2   270  MET270      0.2261
    115  O        -29.2280   31.4230    7.0120 O.2   270  MET270     -0.2867
    116  CB       -27.7490   34.1360    7.2470 C.3   270  MET270      0.0387
    117  CG       -28.8810   35.0220    7.7050 C.3   270  MET270      0.0595
    118  SD       -28.4410   36.0280    9.1250 S.3   270  MET270     -0.1393
    119  CE       -27.3180   37.2310    8.4000 C.3   270  MET270      0.0692
    120  N        -35.6420   25.4710   13.3770 N.3   302  TYR302     -0.1227
    121  CA       -35.3210   26.4400   14.3950 C.3   302  TYR302      0.1736
    122  C        -36.6480   26.8920   14.9140 C.2   302  TYR302      0.2596
    123  O        -37.4330   27.3830   14.1430 O.2   302  TYR302     -0.2718
    124  CB       -34.6100   27.6150   13.7610 C.3   302  TYR302      0.0548
    125  CG       -33.8270   28.4650   14.7110 C.ar  302  TYR302     -0.0200
    126  CD1      -34.3910   28.9520   15.8570 C.ar  302  TYR302     -0.0009
    127  CD2      -32.5270   28.7860   14.4540 C.ar  302  TYR302     -0.0009
    128  CE1      -33.6740   29.7330   16.7200 C.ar  302  TYR302      0.0417
    129  CE2      -31.8050   29.5620   15.3140 C.ar  302  TYR302      0.0417
    130  CZ       -32.3790   30.0270   16.4370 C.ar  302  TYR302      0.1957
    131  OH       -31.6540   30.7990   17.2860 O.3   302  TYR302     -0.2866
    132  N        -36.8980   26.7900   16.2090 N.am  303  THR303     -0.1939
    133  CA       -38.2210   27.1090   16.7400 C.3   303  THR303      0.2028
    134  C        -38.4190   28.5890   17.0460 C.2   303  THR303      0.2642
    135  O        -37.5270   29.2570   17.5810 O.2   303  THR303     -0.2714
    136  CB       -38.5470   26.3230   18.0230 C.3   303  THR303      0.1808
    137  OG1      -37.8290   26.8770   19.1340 O.3   303  THR303     -0.2208
    138  CG2      -38.2180   24.8660   17.8490 C.3   303  THR303      0.0379
    139  N        -39.6110   29.0750   16.6990 N.am  304  THR304     -0.1950
    140  CA       -40.0210   30.4500   16.9400 C.3   304  THR304      0.1897
    141  C        -40.2150   30.6740   18.4380 C.2   304  THR304      0.2313
    142  O        -40.1140   31.7970   18.9280 O.2   304  THR304     -0.2863
    143  CB       -41.3260   30.7810   16.1750 C.3   304  THR304      0.1794
    144  OG1      -41.2280   30.3050   14.8250 O.3   304  THR304     -0.2208
    145  CG2      -41.5760   32.2780   16.1560 C.3   304  THR304      0.0378
    146  N        -36.3820   29.4660   20.8400 N.3   307  GLY307     -0.1225
    147  CA       -35.1620   29.5990   20.0500 C.3   307  GLY307      0.1811
    148  C        -34.1990   28.4210   20.0430 C.2   307  GLY307      0.2280
    149  O        -32.9990   28.6000   20.2160 O.2   307  GLY307     -0.2866
@<TRIPOS>BOND
     1    70    69    2
     2    69    68    1
     3    67    68    1
     4    59    58    2
     5    97    96    1
     6    68    71    1
     7    71    73    1
     8    71    72    1
     9    58    57    1
    10   115   114    2
    11    94    96   ar
    12    94    92   ar
    13    56    57    1
    14    96    95   ar
    15   116   117    1
    16   116   113    1
    17    57    60    1
    18    72    74    1
    19   112   113    1
    20    42    44   ar
    21    42    40   ar
    22   117   118    1
    23   114   113    1
    24    92    91   ar
    25    44    43   ar
    26   119   118    1
    27    40    39   ar
    28    95    93   ar
    29    60    61    1
    30    48    47    2
    31    91    93   ar
    32    91    90    1
    33    61    62    1
    34    43    41   ar
    35    39    41   ar
    36    39    38    1
    37    51    52    1
    38    51    54    1
    39    51    50    1
    40    47    50   am
    41    47    46    1
    42    52    53    2
    43    45    46    1
    44    45    36   am
    45    35    38    1
    46    35    34    1
    47    35    36    1
    48    90    87    1
    49    54    55    1
    50    78    77    2
    51    49    46    1
    52    62    63    1
    53    36    37    2
    54    87    86    1
    55    87    88    1
    56   101   100    2
    57    77    86   am
    58    77    76    1
    59    63    64    2
    60    65    64    1
    61    75    76    1
    62    64    66    1
    63    98    88   am
    64    98    99    1
    65   109   111    1
    66   109   108    1
    67    88    89    2
    68    76    79    1
    69   100   104   am
    70   100    99    1
    71   105   108    1
    72   105   104    1
    73   105   106    1
    74   110   108    1
    75    99   102    1
    76     5     6    1
    77     5     2    1
    78   106   107    2
    79     1     2    1
    80   120   121    1
    81    16    15    2
    82    33    32    2
    83   124   121    1
    84   124   125    1
    85   102   103    1
    86    82    84   ar
    87    82    80   ar
    88    79    80    1
    89     6     8   ar
    90     6     7   ar
    91    84    85   ar
    92    80    81   ar
    93     8    10   ar
    94     2     3    1
    95    85    83   ar
    96   123   122    2
    97    81    83   ar
    98     7     9   ar
    99   121   122    1
   100   127   125   ar
   101   127   129   ar
   102    13     3   am
   103    13    14    1
   104    10    11   ar
   105   125   126   ar
   106    15    14    1
   107    15    19   am
   108    32    31    1
   109   144   143    1
   110    20    23    1
   111    20    19    1
   112    20    21    1
   113   122   132   am
   114    23    24    1
   115     9    11   ar
   116    30    31    1
   117    30    21   am
   118     3     4    2
   119    11    12    1
   120   129   130   ar
   121    14    17    1
   122    21    22    2
   123    17    18    1
   124   126   128   ar
   125   145   143    1
   126   143   140    1
   127   132   133    1
   128    24    26   ar
   129    24    25   ar
   130   130   128   ar
   131   130   131    1
   132    26    28   ar
   133   139   140    1
   134   139   134   am
   135   133   134    1
   136   133   136    1
   137   140   141    1
   138   134   135    2
   139    25    27   ar
   140    28    29   ar
   141   138   136    1
   142   136   137    1
   143   141   142    2
   144    27    29   ar
   145   148   147    1
   146   148   149    2
   147   147   146    1
