@<TRIPOS>MOLECULE
tmp/4n7gA02.pdb
 83 77 0 0 0
SMALL
GASTEIGER

@<TRIPOS>ATOM
      1  N         48.0480  -19.5530   19.2170 N.3   106  ILE106     -0.1231
      2  CA        48.5120  -20.8750   18.8190 C.3   106  ILE106      0.1678
      3  C         47.6310  -21.3670   17.6280 C.2   106  ILE106      0.2434
      4  O         48.1540  -21.8280   16.7060 O.2   106  ILE106     -0.2733
      5  CB        48.4060  -21.8650   19.9740 C.3   106  ILE106      0.0265
      6  CG1       49.4700  -21.4920   21.0170 C.3   106  ILE106      0.0019
      7  CG2       48.6160  -23.3260   19.4740 C.3   106  ILE106      0.0020
      8  CD1       49.3050  -22.3200   22.3430 C.3   106  ILE106      0.0001
      9  N         46.3290  -21.1100   17.6560 N.am  107  PRO107     -0.2729
     10  CA        45.4730  -21.4210   16.5020 C.3   107  PRO107      0.1401
     11  C         45.9440  -20.8010   15.1710 C.2   107  PRO107      0.2269
     12  O         45.9550  -21.4950   14.1540 O.2   107  PRO107     -0.2865
     13  CB        44.1220  -20.8250   16.9070 C.3   107  PRO107      0.0296
     14  CG        44.1300  -20.8660   18.3970 C.3   107  PRO107      0.0237
     15  CD        45.5530  -20.6140   18.8060 C.3   107  PRO107      0.0939
     16  N         48.8980  -19.6580   14.3340 N.3   109  ALA109     -0.1231
     17  CA        50.3120  -19.5690   14.0400 C.3   109  ALA109      0.1694
     18  C         50.5810  -20.3040   12.6760 C.2   109  ALA109      0.2593
     19  O         50.2590  -21.4800   12.5450 O.2   109  ALA109     -0.2718
     20  CB        51.1020  -20.2570   15.1450 C.3   109  ALA109      0.0304
     21  N         51.2160  -19.6430   11.7020 N.am  110  SER110     -0.1938
     22  CA        51.2310  -20.1920   10.3510 C.3   110  SER110      0.2055
     23  C         52.6850  -20.6120   10.0370 C.2   110  SER110      0.2643
     24  O         52.9400  -21.1910    9.0380 O.2   110  SER110     -0.2714
     25  CB        50.6820  -19.1310    9.3670 C.3   110  SER110      0.2130
     26  OG        51.7050  -18.1380    9.2310 O.3   110  SER110     -0.2179
     27  N         53.6340  -20.3320   10.9200 N.am  111  GLN111     -0.1963
     28  CA        54.9950  -20.7950   10.7590 C.3   111  GLN111      0.1733
     29  C         55.5520  -21.4160   12.0470 C.2   111  GLN111      0.2616
     30  O         55.0410  -21.1510   13.1660 O.2   111  GLN111     -0.2715
     31  CB        55.9050  -19.6580   10.3890 C.3   111  GLN111      0.0408
     32  CG        55.3750  -18.8810    9.2300 C.3   111  GLN111      0.0908
     33  CD        56.4200  -17.9510    8.7160 C.2   111  GLN111      0.2608
     34  OE1       56.3960  -16.7620    9.0170 O.2   111  GLN111     -0.2717
     35  NE2       57.3840  -18.4990    7.9600 N.am  111  GLN111     -0.0878
     36  N         56.6350  -22.1710   11.8910 N.am  112  ALA112     -0.1977
     37  CA        57.1100  -23.1060   12.9580 C.3   112  ALA112      0.1597
     38  C         57.6350  -22.2150   14.1440 C.2   112  ALA112      0.2287
     39  O         57.3860  -22.4830   15.2960 O.2   112  ALA112     -0.2864
     40  CB        58.2500  -23.9800   12.4110 C.3   112  ALA112      0.0319
     41  N         54.8360  -21.0230   16.1340 N.3   115  LYS115     -0.1245
     42  CA        54.3810  -22.0940   16.9550 C.3   115  LYS115      0.1561
     43  C         55.2670  -22.3310   18.1690 C.2   115  LYS115      0.2260
     44  O         54.7610  -22.5320   19.2560 O.2   115  LYS115     -0.2867
     45  CB        54.3180  -23.3810   16.1520 C.3   115  LYS115      0.0271
     46  CG        53.1980  -23.3230   15.0860 C.3   115  LYS115      0.0035
     47  CD        53.1630  -24.6190   14.2300 C.3   115  LYS115      0.0206
     48  CE        52.0460  -24.6030   13.1330 C.3   115  LYS115      0.1093
     49  NZ        52.0000  -25.9200   12.4740 N.3   115  LYS115     -0.1314
     50  N         54.0290  -21.8120   21.9870 N.3   119  LEU119     -0.1245
     51  CA        53.9850  -22.9390   22.8980 C.3   119  LEU119      0.1561
     52  C         54.9520  -22.7280   24.0630 C.2   119  LEU119      0.2260
     53  O         54.6240  -23.1660   25.1340 O.2   119  LEU119     -0.2867
     54  CB        54.2890  -24.2770   22.1870 C.3   119  LEU119      0.0270
     55  CG        53.1640  -24.6500   21.1760 C.3   119  LEU119      0.0019
     56  CD1       53.5590  -25.7330   20.1380 C.3   119  LEU119      0.0001
     57  CD2       51.9860  -25.1310   21.9510 C.3   119  LEU119      0.0001
     58  N         56.1220  -30.1220   23.7560 N.3   151  GLU151     -0.1245
     59  CA        55.6670  -29.8730   22.4440 C.3   151  GLU151      0.1567
     60  C         56.4120  -28.7750   21.7100 C.2   151  GLU151      0.2260
     61  O         56.8190  -29.0030   20.5520 O.2   151  GLU151     -0.2867
     62  CB        54.1990  -29.6750   22.4260 C.3   151  GLU151      0.0388
     63  CG        53.6950  -29.6520   20.9780 C.3   151  GLU151      0.1160
     64  CD        52.1840  -29.6330   20.8390 C.2   151  GLU151      0.3649
     65  OE1       51.7130  -29.3470   19.6920 O.co2 151  GLU151     -0.2457
     66  OE2       51.4800  -29.8910   21.8690 O.co2 151  GLU151     -0.2457
     67  N         59.0710  -29.4410   18.3750 N.3   155  ILE155     -0.1245
     68  CA        58.9350  -28.7280   17.1080 C.3   155  ILE155      0.1561
     69  C         60.1740  -28.0020   16.8940 C.2   155  ILE155      0.2260
     70  O         60.6660  -27.9830   15.7590 O.2   155  ILE155     -0.2867
     71  CB        57.7120  -27.7990   17.0410 C.3   155  ILE155      0.0252
     72  CG1       56.4350  -28.6310   17.1540 C.3   155  ILE155      0.0019
     73  CG2       57.7600  -26.9180   15.7570 C.3   155  ILE155      0.0019
     74  CD1       55.1730  -27.7190   17.4270 C.3   155  ILE155      0.0001
     75  N         62.4980  -28.0590   13.5190 N.3   159  GLU159     -0.1245
     76  CA        62.3420  -26.9320   12.6100 C.3   159  GLU159      0.1567
     77  C         63.2100  -25.7870   12.7450 C.2   159  GLU159      0.2260
     78  O         63.0890  -24.9070   11.9350 O.2   159  GLU159     -0.2867
     79  CB        60.9600  -26.3650   12.6290 C.3   159  GLU159      0.0388
     80  CG        59.8830  -27.4040   12.9020 C.3   159  GLU159      0.1160
     81  CD        59.3480  -28.0360   11.6480 C.2   159  GLU159      0.3649
     82  OE1       59.8610  -27.6740   10.5670 O.co2 159  GLU159     -0.2457
     83  OE2       58.4180  -28.8660   11.7570 O.co2 159  GLU159     -0.2457
@<TRIPOS>BOND
     1    35    33   am
     2    33    34    2
     3    33    32    1
     4    24    23    2
     5    32    31    1
     6    26    25    1
     7    25    22    1
     8    23    22    1
     9    23    27   am
    10    22    21    1
    11    31    28    1
    12    82    81   ar
    13    28    27    1
    14    28    29    1
    15    81    83   ar
    16    81    80    1
    17    21    18   am
    18    36    29   am
    19    36    37    1
    20    78    77    2
    21    29    30    2
    22    40    37    1
    23    49    48    1
    24    19    18    2
    25    76    79    1
    26    76    77    1
    27    76    75    1
    28    79    80    1
    29    18    17    1
    30    37    38    1
    31    48    47    1
    32    17    16    1
    33    17    20    1
    34    38    39    2
    35    12    11    2
    36    47    46    1
    37    46    45    1
    38    11    10    1
    39    73    71    1
    40    70    69    2
    41    41    42    1
    42    45    42    1
    43    10    13    1
    44    10     9    1
    45     4     3    2
    46    69    68    1
    47    13    14    1
    48    42    43    1
    49    71    68    1
    50    71    72    1
    51    68    67    1
    52    72    74    1
    53     3     9   am
    54     3     2    1
    55     9    15    1
    56    43    44    2
    57    14    15    1
    58     2     1    1
    59     2     5    1
    60     7     5    1
    61    65    64   ar
    62     5     6    1
    63    56    55    1
    64    61    60    2
    65    64    63    1
    66    64    66   ar
    67    63    62    1
    68     6     8    1
    69    55    57    1
    70    55    54    1
    71    60    59    1
    72    50    51    1
    73    54    51    1
    74    62    59    1
    75    59    58    1
    76    51    52    1
    77    52    53    2
