@<TRIPOS>MOLECULE
tmp/4n7gA03.pdb
 100 91 0 0 0
SMALL
GASTEIGER

@<TRIPOS>ATOM
      1  N         45.8490  -16.3940   33.4010 N.3    95  ASN95      -0.1240
      2  CA        44.6560  -16.8450   32.7010 C.3    95  ASN95       0.1653
      3  C         44.3480  -16.1250   31.4140 C.2    95  ASN95       0.2266
      4  O         43.8760  -16.7010   30.4320 O.2    95  ASN95      -0.2867
      5  CB        43.3990  -16.8360   33.6020 C.3    95  ASN95       0.1155
      6  CG        43.5010  -17.8850   34.7050 C.2    95  ASN95       0.2627
      7  OD1       44.3510  -18.7520   34.6390 O.2    95  ASN95      -0.2716
      8  ND2       42.7000  -17.7600   35.7480 N.am   95  ASN95      -0.0877
      9  N         46.9720  -17.2240   28.8150 N.3    98  LEU98      -0.1231
     10  CA        46.7280  -18.6050   28.4280 C.3    98  LEU98       0.1693
     11  C         45.4930  -18.6250   27.5510 C.2    98  LEU98       0.2592
     12  O         45.4590  -19.3830   26.5810 O.2    98  LEU98      -0.2718
     13  CB        46.6200  -19.5380   29.6200 C.3    98  LEU98       0.0284
     14  CG        47.9610  -19.7050   30.3530 C.3    98  LEU98       0.0019
     15  CD1       47.7280  -20.4680   31.6820 C.3    98  LEU98       0.0001
     16  CD2       49.0200  -20.3700   29.4540 C.3    98  LEU98       0.0001
     17  N         44.5110  -17.7550   27.8040 N.am   99  SER99      -0.1952
     18  CA        43.3040  -17.7840   26.9650 C.3    99  SER99       0.1924
     19  C         43.6030  -17.1910   25.6060 C.2    99  SER99       0.2314
     20  O         43.0420  -17.6360   24.6220 O.2    99  SER99      -0.2863
     21  CB        42.0930  -16.9730   27.5350 C.3    99  SER99       0.2116
     22  OG        41.7220  -17.5460   28.7250 O.3    99  SER99      -0.2180
     23  N         45.3540  -19.8700   23.5940 N.3   102  GLU102     -0.1245
     24  CA        44.4170  -20.8970   23.1170 C.3   102  GLU102      0.1567
     25  C         43.4090  -20.4340   22.1050 C.2   102  GLU102      0.2260
     26  O         43.1110  -21.1830   21.2050 O.2   102  GLU102     -0.2867
     27  CB        43.5900  -21.5440   24.2460 C.3   102  GLU102      0.0388
     28  CG        44.3670  -22.5080   25.1100 C.3   102  GLU102      0.1160
     29  CD        45.0570  -23.6390   24.3360 C.2   102  GLU102      0.3649
     30  OE1       44.3520  -24.4990   23.7790 O.co2 102  GLU102     -0.2457
     31  OE2       46.3100  -23.7040   24.3380 O.co2 102  GLU102     -0.2457
     32  N         48.0480  -19.5530   19.2170 N.3   106  ILE106     -0.1245
     33  CA        48.5120  -20.8750   18.8190 C.3   106  ILE106      0.1561
     34  C         47.6310  -21.3670   17.6280 C.2   106  ILE106      0.2260
     35  O         48.1540  -21.8280   16.7060 O.2   106  ILE106     -0.2867
     36  CB        48.4060  -21.8650   19.9740 C.3   106  ILE106      0.0252
     37  CG1       49.4700  -21.4920   21.0170 C.3   106  ILE106      0.0019
     38  CG2       48.6160  -23.3260   19.4740 C.3   106  ILE106      0.0019
     39  CD1       49.3050  -22.3200   22.3430 C.3   106  ILE106      0.0001
     40  N         54.0290  -21.8120   21.9870 N.3   119  LEU119     -0.1245
     41  CA        53.9850  -22.9390   22.8980 C.3   119  LEU119      0.1561
     42  C         54.9520  -22.7280   24.0630 C.2   119  LEU119      0.2260
     43  O         54.6240  -23.1660   25.1340 O.2   119  LEU119     -0.2867
     44  CB        54.2890  -24.2770   22.1870 C.3   119  LEU119      0.0270
     45  CG        53.1640  -24.6500   21.1760 C.3   119  LEU119      0.0019
     46  CD1       53.5590  -25.7330   20.1380 C.3   119  LEU119      0.0001
     47  CD2       51.9860  -25.1310   21.9510 C.3   119  LEU119      0.0001
     48  N         53.1650  -20.5900   26.4680 N.3   122  LYS122     -0.1245
     49  CA        52.2060  -21.3980   27.1770 C.3   122  LYS122      0.1561
     50  C         52.8660  -22.1960   28.3200 C.2   122  LYS122      0.2260
     51  O         52.3670  -22.2170   29.4390 O.2   122  LYS122     -0.2867
     52  CB        51.4740  -22.3250   26.2280 C.3   122  LYS122      0.0271
     53  CG        50.3750  -23.1660   26.8990 C.3   122  LYS122      0.0035
     54  CD        49.6600  -23.9800   25.8030 C.3   122  LYS122      0.0206
     55  CE        48.6970  -24.9350   26.5120 C.3   122  LYS122      0.1093
     56  NZ        47.8970  -25.7110   25.5600 N.3   122  LYS122     -0.1314
     57  N         51.9270  -21.3090   32.3510 N.3   126  TYR126     -0.1241
     58  CA        51.5880  -22.3450   33.2560 C.3   126  TYR126      0.1605
     59  C         52.6570  -22.4820   34.2750 C.2   126  TYR126      0.2264
     60  O         52.3260  -22.6750   35.4160 O.2   126  TYR126     -0.2867
     61  CB        51.3050  -23.7350   32.6150 C.3   126  TYR126      0.0534
     62  CG        49.9000  -23.8320   32.0840 C.ar  126  TYR126     -0.0201
     63  CD1       48.8290  -24.0390   32.9220 C.ar  126  TYR126     -0.0009
     64  CD2       49.6610  -23.7470   30.7140 C.ar  126  TYR126     -0.0009
     65  CE1       47.5190  -24.1820   32.4360 C.ar  126  TYR126      0.0417
     66  CE2       48.4040  -23.9450   30.2120 C.ar  126  TYR126      0.0417
     67  CZ        47.3260  -24.1700   31.0940 C.ar  126  TYR126      0.1957
     68  OH        46.0500  -24.2900   30.5970 O.3   126  TYR126     -0.2866
     69  N         50.4770  -29.2860   32.5900 N.3   144  GLN144     -0.1245
     70  CA        50.1350  -28.3920   31.4940 C.3   144  GLN144      0.1566
     71  C         51.3520  -27.6030   31.0310 C.2   144  GLN144      0.2260
     72  O         51.5000  -27.3180   29.8420 O.2   144  GLN144     -0.2867
     73  CB        49.0170  -27.4350   31.9120 C.3   144  GLN144      0.0367
     74  CG        47.7360  -28.1300   32.3450 C.3   144  GLN144      0.0905
     75  CD        46.7590  -28.3170   31.2000 C.2   144  GLN144      0.2608
     76  OE1       45.9640  -29.2560   31.1940 O.2   144  GLN144     -0.2717
     77  NE2       46.8150  -27.4190   30.2220 N.am  144  GLN144     -0.0878
     78  N         53.9310  -30.2200   29.2270 N.3   147  GLN147     -0.1231
     79  CA        53.5490  -30.6730   27.9410 C.3   147  GLN147      0.1698
     80  C         53.7050  -29.5520   26.9030 C.2   147  GLN147      0.2592
     81  O         54.0390  -29.8410   25.7290 O.2   147  GLN147     -0.2718
     82  CB        52.0770  -31.0160   27.9820 C.3   147  GLN147      0.0381
     83  CG        51.7120  -32.4110   28.5090 C.3   147  GLN147      0.0905
     84  CD        50.1670  -32.6840   28.4590 C.2   147  GLN147      0.2608
     85  OE1       49.5460  -32.9600   29.5030 O.2   147  GLN147     -0.2717
     86  NE2       49.5450  -32.5770   27.2490 N.am  147  GLN147     -0.0878
     87  N         53.4290  -28.2870   27.2910 N.am  148  ALA148     -0.1980
     88  CA        53.4490  -27.1830   26.3260 C.3   148  ALA148      0.1597
     89  C         54.8790  -27.0360   26.0120 C.2   148  ALA148      0.2287
     90  O         55.2250  -26.9310   24.8630 O.2   148  ALA148     -0.2864
     91  CB        52.8980  -25.8750   26.9370 C.3   148  ALA148      0.0319
     92  N         56.1220  -30.1220   23.7560 N.3   151  GLU151     -0.1245
     93  CA        55.6670  -29.8730   22.4440 C.3   151  GLU151      0.1567
     94  C         56.4120  -28.7750   21.7100 C.2   151  GLU151      0.2260
     95  O         56.8190  -29.0030   20.5520 O.2   151  GLU151     -0.2867
     96  CB        54.1990  -29.6750   22.4260 C.3   151  GLU151      0.0388
     97  CG        53.6950  -29.6520   20.9780 C.3   151  GLU151      0.1160
     98  CD        52.1840  -29.6330   20.8390 C.2   151  GLU151      0.3649
     99  OE1       51.7130  -29.3470   19.6920 O.co2 151  GLU151     -0.2457
    100  OE2       51.4800  -29.8910   21.8690 O.co2 151  GLU151     -0.2457
@<TRIPOS>BOND
     1    35    34    2
     2    34    33    1
     3    33    32    1
     4    33    36    1
     5    38    36    1
     6    99    98   ar
     7    36    37    1
     8    46    45    1
     9    95    94    2
    10    98    97    1
    11    98   100   ar
    12    97    96    1
    13    37    39    1
    14    45    47    1
    15    45    44    1
    16    26    25    2
    17    94    93    1
    18    40    41    1
    19    25    24    1
    20    44    41    1
    21    96    93    1
    22    93    92    1
    23    41    42    1
    24    24    23    1
    25    24    27    1
    26    30    29   ar
    27    42    43    2
    28    27    28    1
    29    29    31   ar
    30    29    28    1
    31    20    19    2
    32    90    89    2
    33    56    55    1
    34    19    18    1
    35    81    80    2
    36    54    55    1
    37    54    53    1
    38    89    88    1
    39    52    53    1
    40    52    49    1
    41    88    91    1
    42    88    87    1
    43    48    49    1
    44    12    11    2
    45    80    87   am
    46    80    79    1
    47    18    21    1
    48    18    17    1
    49    49    50    1
    50    86    84   am
    51    21    22    1
    52    11    17   am
    53    11    10    1
    54    79    82    1
    55    79    78    1
    56    82    83    1
    57    50    51    2
    58    10     9    1
    59    10    13    1
    60    84    83    1
    61    84    85    2
    62    16    14    1
    63    13    14    1
    64    72    71    2
    65    66    64   ar
    66    66    67   ar
    67    77    75   am
    68    14    15    1
    69     4     3    2
    70    68    67    1
    71    64    62   ar
    72    71    70    1
    73    67    65   ar
    74    76    75    2
    75    75    74    1
    76     3     2    1
    77    70    73    1
    78    70    69    1
    79    73    74    1
    80    62    61    1
    81    62    63   ar
    82    57    58    1
    83    65    63   ar
    84    61    58    1
    85     2     1    1
    86     2     5    1
    87    58    59    1
    88     5     6    1
    89    59    60    2
    90     7     6    2
    91     6     8   am
