@<TRIPOS>MOLECULE
tmp/4n7qA01.pdb
 100 97 0 0 0
SMALL
GASTEIGER

@<TRIPOS>ATOM
      1  N         37.0190  -26.8380  -10.3200 N.3    16  LYS16      -0.1245
      2  CA        38.1880  -27.7070  -10.2290 C.3    16  LYS16       0.1561
      3  C         38.5170  -27.8810   -8.7510 C.2    16  LYS16       0.2260
      4  O         38.7460  -26.9000   -8.0460 O.2    16  LYS16      -0.2867
      5  CB        39.3700  -27.0660  -10.9470 C.3    16  LYS16       0.0271
      6  CG        40.7140  -27.7410  -10.7140 C.3    16  LYS16       0.0035
      7  CD        40.7750  -29.1310  -11.3120 C.3    16  LYS16       0.0206
      8  CE        42.2080  -29.6460  -11.3070 C.3    16  LYS16       0.1093
      9  NZ        43.1400  -28.6710  -11.9470 N.3    16  LYS16      -0.1314
     10  N         37.5610  -24.4040   -7.3050 N.3    29  VAL29      -0.1231
     11  CA        37.9120  -23.2200   -8.0780 C.3    29  VAL29       0.1678
     12  C         37.0370  -23.1880   -9.3240 C.2    29  VAL29       0.2434
     13  O         37.0180  -24.1480  -10.0910 O.2    29  VAL29      -0.2733
     14  CB        39.4040  -23.2570   -8.4420 C.3    29  VAL29       0.0265
     15  CG1       39.8280  -22.0050   -9.1950 C.3    29  VAL29       0.0020
     16  CG2       40.2350  -23.4390   -7.1590 C.3    29  VAL29       0.0020
     17  N         36.2980  -22.0830   -9.5190 N.am   30  PRO30      -0.2718
     18  CA        35.2910  -22.0360  -10.5860 C.3    30  PRO30       0.1535
     19  C         35.8800  -21.8740  -11.9870 C.2    30  PRO30       0.2598
     20  O         36.9510  -21.2720  -12.1730 O.2    30  PRO30      -0.2715
     21  CB        34.4470  -20.8060  -10.2210 C.3    30  PRO30       0.0310
     22  CG        35.4160  -19.8940   -9.5080 C.3    30  PRO30       0.0237
     23  CD        36.3280  -20.8420   -8.7180 C.3    30  PRO30       0.0939
     24  N         35.1880  -22.4520  -12.9640 N.am   31  PHE31      -0.1974
     25  CA        35.4580  -22.1770  -14.3710 C.3    31  PHE31       0.1639
     26  C         34.1980  -22.4080  -15.1950 C.2    31  PHE31       0.2290
     27  O         33.2320  -22.9900  -14.7050 O.2    31  PHE31      -0.2864
     28  CB        36.6710  -22.9800  -14.8930 C.3    31  PHE31       0.0560
     29  CG        36.4710  -24.4770  -14.9500 C.ar   31  PHE31      -0.0200
     30  CD1       36.6890  -25.2680  -13.8230 C.ar   31  PHE31      -0.0042
     31  CD2       36.1430  -25.0970  -16.1480 C.ar   31  PHE31      -0.0042
     32  CE1       36.5280  -26.6500  -13.8780 C.ar   31  PHE31      -0.0003
     33  CE2       35.9840  -26.4780  -16.2190 C.ar   31  PHE31      -0.0003
     34  CZ        36.1800  -27.2570  -15.0870 C.ar   31  PHE31      -0.0000
     35  N         32.7080  -24.1590  -18.6690 N.3    33  ARG33      -0.1245
     36  CA        33.0120  -25.1180  -19.7270 C.3    33  ARG33       0.1563
     37  C         32.0580  -24.9280  -20.8960 C.2    33  ARG33       0.2260
     38  O         30.8390  -25.0160  -20.7270 O.2    33  ARG33      -0.2867
     39  CB        32.9470  -26.5600  -19.2150 C.3    33  ARG33       0.0307
     40  CG        33.1320  -27.5960  -20.3300 C.3    33  ARG33       0.0489
     41  CD        33.4500  -28.9680  -19.7430 C.3    33  ARG33       0.2205
     42  NE        34.7900  -28.9810  -19.1640 N.pl3  33  ARG33      -0.0865
     43  CZ        35.2450  -29.9220  -18.3420 C.cat  33  ARG33       0.5346
     44  NH1       34.4580  -30.9270  -17.9800 N.pl3  33  ARG33       0.1354
     45  NH2       36.4820  -29.8490  -17.8750 N.pl3  33  ARG33       0.1354
     46  N         37.4890  -24.7770  -21.7610 N.3    44  ASP44      -0.1225
     47  CA        37.3430  -24.2860  -20.3890 C.3    44  ASP44       0.1805
     48  C         37.8440  -22.8550  -20.2720 C.2    44  ASP44       0.2598
     49  O         38.9790  -22.5500  -20.6410 O.2    44  ASP44      -0.2718
     50  CB        38.1170  -25.1900  -19.4300 C.3    44  ASP44       0.1424
     51  CG        37.5080  -26.5660  -19.3140 C.2    44  ASP44       0.3668
     52  OD1       36.3000  -26.6940  -19.5890 O.co2  44  ASP44      -0.2456
     53  OD2       38.2350  -27.5140  -18.9440 O.co2  44  ASP44      -0.2456
     54  N         36.9920  -21.9770  -19.7580 N.am   45  ASN45      -0.1960
     55  CA        37.3660  -20.5760  -19.6330 C.3    45  ASN45       0.1819
     56  C         37.2720  -20.0850  -18.2030 C.2    45  ASN45       0.2621
     57  O         36.7070  -20.7520  -17.3420 O.2    45  ASN45      -0.2715
     58  CB        36.4810  -19.7050  -20.5150 C.3    45  ASN45       0.1195
     59  CG        37.2270  -18.5170  -21.0800 C.2    45  ASN45       0.2630
     60  OD1       38.1870  -18.0200  -20.4780 O.2    45  ASN45      -0.2716
     61  ND2       36.8000  -18.0600  -22.2470 N.am   45  ASN45      -0.0877
     62  N         37.8070  -18.8890  -17.9730 N.am   46  TYR46      -0.1974
     63  CA        37.7750  -18.2540  -16.6580 C.3    46  TYR46       0.1639
     64  C         36.3170  -17.8860  -16.3590 C.2    46  TYR46       0.2290
     65  O         35.5360  -17.6520  -17.2810 O.2    46  TYR46      -0.2864
     66  CB        38.6520  -17.0050  -16.7270 C.3    46  TYR46       0.0560
     67  CG        39.1430  -16.4580  -15.3980 C.ar   46  TYR46      -0.0198
     68  CD1       38.3450  -15.6160  -14.6380 C.ar   46  TYR46      -0.0009
     69  CD2       40.4320  -16.7320  -14.9450 C.ar   46  TYR46      -0.0009
     70  CE1       38.7990  -15.0920  -13.4310 C.ar   46  TYR46       0.0417
     71  CE2       40.8980  -16.2090  -13.7250 C.ar   46  TYR46       0.0417
     72  CZ        40.0770  -15.3850  -12.9910 C.ar   46  TYR46       0.1957
     73  OH        40.5300  -14.8640  -11.8050 O.3    46  TYR46      -0.2866
     74  N         45.5550  -22.1900   -9.1870 N.3    99  THR99      -0.1203
     75  CA        44.6950  -23.1110   -9.9280 C.3    99  THR99       0.1994
     76  C         43.8990  -22.3550  -11.0000 C.2    99  THR99       0.2617
     77  O         43.7890  -22.7810  -12.1570 O.2    99  THR99      -0.2717
     78  CB        43.7410  -23.8340   -8.9500 C.3    99  THR99       0.1784
     79  OG1       44.5180  -24.5150   -7.9490 O.3    99  THR99      -0.2211
     80  CG2       42.8660  -24.8410   -9.6900 C.3    99  THR99       0.0376
     81  N         43.3730  -21.2030  -10.6090 N.am  100  ARG100     -0.1979
     82  CA        42.5390  -20.3770  -11.4800 C.3   100  ARG100      0.1597
     83  C         43.3200  -19.8120  -12.6640 C.2   100  ARG100      0.2287
     84  O         42.7450  -19.5380  -13.7320 O.2   100  ARG100     -0.2864
     85  CB        41.9350  -19.2350  -10.6500 C.3   100  ARG100      0.0334
     86  CG        40.5640  -18.7750  -11.1200 C.3   100  ARG100      0.0492
     87  CD        39.9280  -17.8330  -10.0980 C.3   100  ARG100      0.2205
     88  NE        38.6020  -17.4170  -10.5490 N.pl3 100  ARG100     -0.0865
     89  CZ        37.8320  -16.5500   -9.9050 C.cat 100  ARG100      0.5346
     90  NH1       36.6430  -16.2310  -10.3950 N.pl3 100  ARG100      0.1354
     91  NH2       38.2540  -16.0170   -8.7650 N.pl3 100  ARG100      0.1354
     92  N         46.1100  -21.4180  -13.8140 N.3   102  LYS102     -0.1245
     93  CA        46.8640  -22.5480  -14.3720 C.3   102  LYS102      0.1561
     94  C         48.3740  -22.3450  -14.2340 C.2   102  LYS102      0.2260
     95  O         49.1300  -22.6230  -15.1710 O.2   102  LYS102     -0.2867
     96  CB        46.4970  -22.7890  -15.8460 C.3   102  LYS102      0.0271
     97  CG        45.0030  -22.9720  -16.0860 C.3   102  LYS102      0.0035
     98  CD        44.7100  -23.3600  -17.5280 C.3   102  LYS102      0.0206
     99  CE        45.1970  -24.7710  -17.8350 C.3   102  LYS102      0.1093
    100  NZ        44.2980  -25.8210  -17.2810 N.3   102  LYS102     -0.1314
@<TRIPOS>BOND
     1    61    59   am
     2    46    47    1
     3    59    58    1
     4    59    60    2
     5    37    38    2
     6    37    36    1
     7    49    48    2
     8    58    55    1
     9    47    48    1
    10    47    50    1
    11    40    41    1
    12    40    39    1
    13    48    54   am
    14    54    55    1
    15    41    42    1
    16    36    39    1
    17    36    35    1
    18    55    56    1
    19    52    51   ar
    20    50    51    1
    21    51    53   ar
    22    42    43    2
    23    43    44    1
    24    43    45    1
    25    56    62   am
    26    56    57    2
    27    62    63    1
    28    99    98    1
    29    99   100    1
    30    98    97    1
    31    65    64    2
    32    66    63    1
    33    66    67    1
    34    63    64    1
    35    33    31   ar
    36    33    34   ar
    37    31    29   ar
    38    97    96    1
    39    96    93    1
    40    67    69   ar
    41    67    68   ar
    42    26    27    2
    43    26    25    1
    44    95    94    2
    45    34    32   ar
    46    29    28    1
    47    29    30   ar
    48    69    71   ar
    49    28    25    1
    50    68    70   ar
    51    93    94    1
    52    93    92    1
    53    25    24    1
    54    32    30   ar
    55    84    83    2
    56    71    72   ar
    57    70    72   ar
    58    72    73    1
    59    24    19   am
    60    83    82    1
    61    20    19    2
    62    77    76    2
    63    19    18    1
    64     9     8    1
    65    82    85    1
    66    82    81    1
    67     7     8    1
    68     7     6    1
    69    86    85    1
    70    86    87    1
    71    76    81   am
    72    76    75    1
    73     5     6    1
    74     5     2    1
    75    18    21    1
    76    18    17    1
    77    88    87    1
    78    88    89    2
    79    90    89    1
    80     1     2    1
    81     2     3    1
    82    21    22    1
    83    13    12    2
    84    75    74    1
    85    75    78    1
    86    89    91    1
    87    80    78    1
    88    17    12   am
    89    17    23    1
    90    22    23    1
    91    12    11    1
    92    15    14    1
    93    78    79    1
    94     3     4    2
    95    14    11    1
    96    14    16    1
    97    11    10    1
