@<TRIPOS>MOLECULE
tmp/4n7uA00.pdb
 107 101 0 0 0
SMALL
GASTEIGER

@<TRIPOS>ATOM
      1  N         15.2680    2.6040  154.3850 N.3    55  HIS55      -0.1241
      2  CA        15.8620    3.3520  153.2850 C.3    55  HIS55       0.1621
      3  C         16.0840    4.7990  153.7070 C.2    55  HIS55       0.2264
      4  O         15.2410    5.3930  154.3800 O.2    55  HIS55      -0.2867
      5  CB        14.9800    3.2830  152.0350 C.3    55  HIS55       0.0745
      6  CG        15.2960    2.1320  151.1300 C.ar   55  HIS55       0.0817
      7  ND1       16.5440    1.9380  150.5770 N.ar   55  HIS55      -0.2268
      8  CD2       14.5200    1.1230  150.6660 C.ar   55  HIS55       0.1154
      9  CE1       16.5250    0.8560  149.8190 C.ar   55  HIS55       0.1986
     10  NE2       15.3080    0.3430  149.8560 N.ar   55  HIS55      -0.2212
     11  N         20.2490    9.9780  144.7420 N.3    82  HIS82      -0.1241
     12  CA        19.2580    9.3950  143.8470 C.3    82  HIS82       0.1621
     13  C         17.9420   10.1390  144.0220 C.2    82  HIS82       0.2264
     14  O         17.5040   10.3930  145.1450 O.2    82  HIS82      -0.2867
     15  CB        19.0760    7.8960  144.1110 C.3    82  HIS82       0.0745
     16  CG        20.2630    7.0640  143.7240 C.ar   82  HIS82       0.0817
     17  ND1       21.3320    6.8620  144.5670 N.ar   82  HIS82      -0.2268
     18  CD2       20.5450    6.3920  142.5840 C.ar   82  HIS82       0.1154
     19  CE1       22.2250    6.0940  143.9630 C.ar   82  HIS82       0.1986
     20  NE2       21.7740    5.7980  142.7610 N.ar   82  HIS82      -0.2212
     21  N         13.1710   -3.3460  154.1800 N.3    95  TRP95      -0.1241
     22  CA        13.8210   -3.2010  152.8800 C.3    95  TRP95       0.1605
     23  C         13.1140   -3.9320  151.7520 C.2    95  TRP95       0.2264
     24  O         12.7170   -5.0860  151.8920 O.2    95  TRP95      -0.2867
     25  CB        15.2640   -3.7060  152.9500 C.3    95  TRP95       0.0550
     26  CG        16.0450   -3.5750  151.6550 C.ar   95  TRP95       0.0003
     27  CD1       16.7470   -2.4830  151.2260 C.ar   95  TRP95       0.0946
     28  CD2       16.2140   -4.5800  150.6430 C.ar   95  TRP95       0.0152
     29  NE1       17.3340   -2.7440  150.0090 N.ar   95  TRP95      -0.2442
     30  CE2       17.0220   -4.0240  149.6300 C.ar   95  TRP95       0.0810
     31  CE3       15.7550   -5.8920  150.4930 C.ar   95  TRP95       0.0012
     32  CZ2       17.3810   -4.7380  148.4840 C.ar   95  TRP95       0.0191
     33  CZ3       16.1140   -6.6000  149.3580 C.ar   95  TRP95       0.0001
     34  CH2       16.9170   -6.0220  148.3680 C.ar   95  TRP95       0.0015
     35  N         14.0170   -3.6820  147.2670 N.3    97  LYS97      -0.1231
     36  CA        14.8780   -2.9930  146.3170 C.3    97  LYS97       0.1693
     37  C         14.1310   -1.8600  145.6330 C.2    97  LYS97       0.2591
     38  O         12.9860   -2.0270  145.2130 O.2    97  LYS97      -0.2718
     39  CB        15.4200   -3.9640  145.2740 C.3    97  LYS97       0.0285
     40  CG        16.5000   -3.3700  144.3960 C.3    97  LYS97       0.0035
     41  CD        17.0980   -4.4310  143.5040 C.3    97  LYS97       0.0206
     42  CE        18.6010   -4.2760  143.4220 C.3    97  LYS97       0.1093
     43  NZ        19.2510   -5.5380  142.9800 N.3    97  LYS97      -0.1314
     44  N         14.7780   -0.7040  145.5320 N.am   98  MET98      -0.1979
     45  CA        14.1810    0.4370  144.8490 C.3    98  MET98       0.1605
     46  C         14.2530    0.2490  143.3350 C.2    98  MET98       0.2287
     47  O         15.2450    0.5970  142.6940 O.2    98  MET98      -0.2864
     48  CB        14.8430    1.7450  145.2950 C.3    98  MET98       0.0413
     49  CG        14.5300    2.1090  146.7460 C.3    98  MET98       0.0598
     50  SD        15.4190    3.5500  147.3540 S.3    98  MET98      -0.1393
     51  CE        15.1020    4.7100  146.0310 C.3    98  MET98       0.0692
     52  N         26.5100    7.2440  142.1430 N.3   110  THR110     -0.1218
     53  CA        27.2670    6.5960  143.1920 C.3   110  THR110      0.1862
     54  C         28.7730    6.7240  142.9010 C.2   110  THR110      0.2287
     55  O         29.1520    6.8070  141.7950 O.2   110  THR110     -0.2866
     56  CB        26.8280    5.1210  143.2710 C.3   110  THR110      0.1770
     57  OG1       25.3980    5.0430  143.2630 O.3   110  THR110     -0.2211
     58  CG2       27.3350    4.4780  144.5420 C.3   110  THR110      0.0375
     59  N         23.5840    5.9360  137.1360 N.3   116  ARG116     -0.1245
     60  CA        22.7640    4.7700  136.8620 C.3   116  ARG116      0.1563
     61  C         21.2800    4.9990  137.0860 C.2   116  ARG116      0.2260
     62  O         20.8770    5.8770  137.7530 O.2   116  ARG116     -0.2867
     63  CB        23.2680    3.5530  137.6260 C.3   116  ARG116      0.0307
     64  CG        22.7940    3.5020  138.9940 C.3   116  ARG116      0.0489
     65  CD        23.9080    3.6340  140.0430 C.3   116  ARG116      0.2205
     66  NE        23.9550    2.3800  140.6970 N.pl3 116  ARG116     -0.0865
     67  CZ        23.5180    2.0980  141.9000 C.cat 116  ARG116      0.5346
     68  NH1       23.5120    0.8520  142.2750 N.pl3 116  ARG116      0.1354
     69  NH2       23.1280    3.0300  142.7130 N.pl3 116  ARG116      0.1354
     70  N         18.0250    3.2390  138.7220 N.3   118  LEU118     -0.1245
     71  CA        17.7690    2.2020  139.7140 C.3   118  LEU118      0.1561
     72  C         16.7390    1.2110  139.1930 C.2   118  LEU118      0.2260
     73  O         15.5760    1.2370  139.5880 O.2   118  LEU118     -0.2867
     74  CB        17.3440    2.8040  141.0530 C.3   118  LEU118      0.0270
     75  CG        18.4630    3.6070  141.7130 C.3   118  LEU118      0.0019
     76  CD1       18.1730    3.8680  143.1810 C.3   118  LEU118      0.0001
     77  CD2       19.7910    2.8840  141.5430 C.3   118  LEU118      0.0001
     78  N         20.2440   -2.7940  137.2400 N.3   122  ARG122     -0.1245
     79  CA        20.6680   -1.3970  137.1200 C.3   122  ARG122      0.1563
     80  C         21.3250   -1.1490  135.7640 C.2   122  ARG122      0.2260
     81  O         22.0520   -2.0020  135.2530 O.2   122  ARG122     -0.2867
     82  CB        21.6480   -1.0190  138.2410 C.3   122  ARG122      0.0307
     83  CG        21.0150   -0.4160  139.4960 C.3   122  ARG122      0.0489
     84  CD        20.3320   -1.4560  140.3760 C.3   122  ARG122      0.2205
     85  NE        19.9180   -0.8680  141.6480 N.pl3 122  ARG122     -0.0865
     86  CZ        18.6560   -0.6290  141.9880 C.cat 122  ARG122      0.5346
     87  NH1       17.6760   -0.9530  141.1590 N.pl3 122  ARG122      0.1354
     88  NH2       18.3730   -0.0790  143.1610 N.pl3 122  ARG122      0.1354
     89  N         16.9640   10.4060  147.9270 N.3   173  ARG173     -0.1245
     90  CA        17.7450    9.4690  148.7240 C.3   173  ARG173      0.1563
     91  C         19.2170    9.8640  148.7540 C.2   173  ARG173      0.2260
     92  O         19.8190   10.1170  147.7100 O.2   173  ARG173     -0.2867
     93  CB        17.6010    8.0490  148.1650 C.3   173  ARG173      0.0307
     94  CG        18.1860    6.9580  149.0590 C.3   173  ARG173      0.0489
     95  CD        18.1900    5.5920  148.3780 C.3   173  ARG173      0.2205
     96  NE        19.3970    5.3670  147.5840 N.pl3 173  ARG173     -0.0865
     97  CZ        19.6710    4.2360  146.9400 C.cat 173  ARG173      0.5346
     98  NH1       18.8230    3.2190  146.9890 N.pl3 173  ARG173      0.1354
     99  NH2       20.7960    4.1230  146.2480 N.pl3 173  ARG173      0.1354
    100  N         22.8970    8.5100  150.7880 N.3   175  LEU175     -0.1245
    101  CA        23.4980    7.5000  151.6500 C.3   175  LEU175      0.1561
    102  C         24.7270    8.0320  152.3640 C.2   175  LEU175      0.2260
    103  O         25.0220    7.6340  153.4890 O.2   175  LEU175     -0.2867
    104  CB        23.8960    6.2630  150.8420 C.3   175  LEU175      0.0270
    105  CG        22.8180    5.5540  150.0260 C.3   175  LEU175      0.0019
    106  CD1       23.2250    4.1200  149.7230 C.3   175  LEU175      0.0001
    107  CD2       21.4790    5.5930  150.7320 C.3   175  LEU175      0.0001
@<TRIPOS>BOND
     1    81    80    2
     2    80    79    1
     3    60    61    1
     4    60    59    1
     5    60    63    1
     6    61    62    2
     7    79    78    1
     8    79    82    1
     9    63    64    1
    10    82    83    1
    11    70    71    1
    12    64    65    1
    13    72    73    2
    14    72    71    1
    15    83    84    1
    16    71    74    1
    17    65    66    1
    18    84    85    1
    19    66    67    2
    20    74    75    1
    21    87    86    1
    22    77    75    1
    23    85    86    2
    24    75    76    1
    25    55    54    2
    26    67    68    1
    27    67    69    1
    28    86    88    1
    29    52    53    1
    30    18    20   ar
    31    18    16   ar
    32    47    46    2
    33    20    19   ar
    34    54    53    1
    35    43    42    1
    36    53    56    1
    37    57    56    1
    38    56    58    1
    39    46    45    1
    40    42    41    1
    41    41    40    1
    42    16    15    1
    43    16    17   ar
    44    12    13    1
    45    12    15    1
    46    12    11    1
    47    19    17   ar
    48    13    14    2
    49    40    39    1
    50    45    48    1
    51    45    44    1
    52    38    37    2
    53    39    36    1
    54    48    49    1
    55    44    37   am
    56    37    36    1
    57    51    50    1
    58    99    97    1
    59    36    35    1
    60    49    50    1
    61    97    98    1
    62    97    96    2
    63    96    95    1
    64    92    91    2
    65    89    90    1
    66    93    90    1
    67    93    94    1
    68    34    32   ar
    69    34    33   ar
    70    95    94    1
    71    32    30   ar
    72    90    91    1
    73    33    31   ar
    74    30    29   ar
    75    30    28   ar
    76   106   105    1
    77     9    10   ar
    78     9     7   ar
    79    10     8   ar
    80    29    27   ar
    81   105   107    1
    82   105   104    1
    83    31    28   ar
    84     7     6   ar
    85    28    26   ar
    86     8     6   ar
    87   100   101    1
    88   104   101    1
    89     6     5    1
    90    27    26   ar
    91   101   102    1
    92    26    25    1
    93    23    24    2
    94    23    22    1
    95     5     2    1
    96   102   103    2
    97    22    25    1
    98    22    21    1
    99     2     3    1
   100     2     1    1
   101     3     4    2
