@<TRIPOS>MOLECULE
tmp/4n82A00.pdb
 153 150 0 0 0
SMALL
GASTEIGER

@<TRIPOS>ATOM
      1  N        -23.5820   30.7170   29.4930 N.3     9  SER9       -0.1202
      2  CA       -24.1900   30.4650   28.1990 C.3     9  SER9        0.2020
      3  C        -23.2480   31.0130   27.1390 C.2     9  SER9        0.2619
      4  O        -22.9420   32.2080   27.1270 O.2     9  SER9       -0.2717
      5  CB       -25.5570   31.1470   28.1160 C.3     9  SER9        0.2103
      6  OG       -26.2540   30.7430   26.9570 O.3     9  SER9       -0.2182
      7  N        -22.7640   30.1300   26.2720 N.am   10  LEU10      -0.1965
      8  CA       -21.7980   30.5230   25.2530 C.3    10  LEU10       0.1728
      9  C        -22.4660   30.8260   23.9090 C.2    10  LEU10       0.2617
     10  O        -22.0150   31.7060   23.1650 O.2    10  LEU10      -0.2715
     11  CB       -20.7110   29.4540   25.1130 C.3    10  LEU10       0.0311
     12  CG       -19.8810   29.1870   26.3800 C.3    10  LEU10       0.0022
     13  CD1      -18.8810   28.0800   26.1330 C.3    10  LEU10       0.0001
     14  CD2      -19.1580   30.4380   26.8650 C.3    10  LEU10       0.0001
     15  N        -23.5370   30.1020   23.5960 N.am   11  SER11      -0.1936
     16  CA       -24.2570   30.3460   22.3430 C.3    11  SER11       0.2055
     17  C        -25.7160   30.7640   22.5680 C.2    11  SER11       0.2644
     18  O        -26.4760   30.9040   21.6110 O.2    11  SER11      -0.2714
     19  CB       -24.1410   29.1480   21.3960 C.3    11  SER11       0.2130
     20  OG       -24.9790   28.0820   21.7920 O.3    11  SER11      -0.2179
     21  N        -26.0950   30.9680   23.8310 N.am   12  GLY12      -0.1939
     22  CA       -27.4100   31.5240   24.1570 C.3    12  GLY12       0.2014
     23  C        -28.5170   30.5520   24.5450 C.2    12  GLY12       0.2639
     24  O        -29.5990   30.9880   24.9260 O.2    12  GLY12      -0.2714
     25  N        -28.2620   29.2450   24.4630 N.am   13  ASN13      -0.1958
     26  CA       -29.2970   28.2450   24.7960 C.3    13  ASN13       0.1819
     27  C        -29.7060   28.2540   26.2690 C.2    13  ASN13       0.2621
     28  O        -30.9020   28.2870   26.5890 O.2    13  ASN13      -0.2715
     29  CB       -28.8580   26.8290   24.3980 C.3    13  ASN13       0.1195
     30  CG       -28.8760   26.6040   22.8980 C.2    13  ASN13       0.2630
     31  OD1      -29.4660   27.3800   22.1450 O.2    13  ASN13      -0.2716
     32  ND2      -28.2420   25.5240   22.4580 N.am   13  ASN13      -0.0877
     33  N        -28.7090   28.2230   27.1520 N.am   14  THR14      -0.1951
     34  CA       -28.9330   28.2230   28.5980 C.3    14  THR14       0.1897
     35  C        -29.4710   29.5840   29.0410 C.2    14  THR14       0.2313
     36  O        -30.3170   29.6620   29.9310 O.2    14  THR14      -0.2863
     37  CB       -27.6310   27.8920   29.3580 C.3    14  THR14       0.1794
     38  OG1      -27.0790   26.6660   28.8440 O.3    14  THR14      -0.2208
     39  CG2      -27.8800   27.7450   30.8510 C.3    14  THR14       0.0378
     40  N        -24.1400   24.2540   30.5730 N.3    61  PRO61      -0.2102
     41  CA       -24.1510   23.5870   29.2810 C.3    61  PRO61       0.1504
     42  C        -22.8940   22.7270   29.1470 C.2    61  PRO61       0.2576
     43  O        -21.9180   22.9370   29.8750 O.2    61  PRO61      -0.2718
     44  CB       -24.1130   24.7520   28.2920 C.3    61  PRO61       0.0282
     45  CG       -23.3290   25.7990   29.0110 C.3    61  PRO61       0.0208
     46  CD       -23.7750   25.6770   30.4490 C.3    61  PRO61       0.0893
     47  N        -22.9240   21.7800   28.2180 N.am   62  THR62      -0.1939
     48  CA       -21.8670   20.7850   28.0860 C.3    62  THR62       0.2028
     49  C        -20.9380   21.0900   26.9250 C.2    62  THR62       0.2642
     50  O        -21.3690   21.1130   25.7740 O.2    62  THR62      -0.2714
     51  CB       -22.4790   19.3890   27.8730 C.3    62  THR62       0.1808
     52  OG1      -23.5680   19.2200   28.7820 O.3    62  THR62      -0.2208
     53  CG2      -21.4490   18.2960   28.1160 C.3    62  THR62       0.0379
     54  N        -19.6630   21.3160   27.2380 N.am   63  TYR63      -0.1959
     55  CA       -18.6300   21.4800   26.2180 C.3    63  TYR63       0.1771
     56  C        -17.4170   20.6420   26.5970 C.2    63  TYR63       0.2619
     57  O        -16.7850   20.8800   27.6270 O.2    63  TYR63      -0.2715
     58  CB       -18.2290   22.9510   26.0590 C.3    63  TYR63       0.0574
     59  CG       -19.3130   23.8240   25.4620 C.ar   63  TYR63      -0.0198
     60  CD1      -19.4490   23.9520   24.0860 C.ar   63  TYR63      -0.0009
     61  CD2      -20.2090   24.5200   26.2800 C.ar   63  TYR63      -0.0009
     62  CE1      -20.4430   24.7520   23.5330 C.ar   63  TYR63       0.0417
     63  CE2      -21.2050   25.3200   25.7340 C.ar   63  TYR63       0.0417
     64  CZ       -21.3150   25.4310   24.3590 C.ar   63  TYR63       0.1957
     65  OH       -22.2950   26.2240   23.8000 O.3    63  TYR63      -0.2866
     66  N        -17.1110   19.6560   25.7610 N.am   64  LEU64      -0.1977
     67  CA       -16.0160   18.7260   26.0220 C.3    64  LEU64       0.1596
     68  C        -15.0210   18.7350   24.8670 C.2    64  LEU64       0.2287
     69  O        -15.4090   18.9530   23.7200 O.2    64  LEU64      -0.2864
     70  CB       -16.5630   17.3150   26.2650 C.3    64  LEU64       0.0297
     71  CG       -17.5470   17.1180   27.4290 C.3    64  LEU64       0.0022
     72  CD1      -18.1320   15.7140   27.3900 C.3    64  LEU64       0.0001
     73  CD2      -16.9040   17.3950   28.7840 C.3    64  LEU64       0.0001
     74  N        -14.2160   21.9600   28.5820 N.3    77  ILE77      -0.1231
     75  CA       -13.6590   23.1960   28.0270 C.3    77  ILE77       0.1692
     76  C        -14.7020   24.3160   28.1080 C.2    77  ILE77       0.2591
     77  O        -15.9030   24.0430   28.2570 O.2    77  ILE77      -0.2718
     78  CB       -13.1690   23.0260   26.5610 C.3    77  ILE77       0.0266
     79  CG1      -14.3250   22.6220   25.6300 C.3    77  ILE77       0.0019
     80  CG2      -12.0090   22.0360   26.4880 C.3    77  ILE77       0.0020
     81  CD1      -14.0100   22.7270   24.1500 C.3    77  ILE77       0.0001
     82  N        -14.2290   25.5650   28.0440 N.am   78  LEU78      -0.1980
     83  CA       -15.0740   26.7700   27.9080 C.3    78  LEU78       0.1596
     84  C        -15.9730   27.1470   29.0990 C.2    78  LEU78       0.2287
     85  O        -16.3550   28.3140   29.2420 O.2    78  LEU78      -0.2864
     86  CB       -15.9120   26.6960   26.6190 C.3    78  LEU78       0.0297
     87  CG       -15.1830   26.4240   25.2960 C.3    78  LEU78       0.0022
     88  CD1      -16.1800   26.1640   24.1700 C.3    78  LEU78       0.0001
     89  CD2      -14.2450   27.5700   24.9380 C.3    78  LEU78       0.0001
     90  N        -27.3400   21.2720   30.4150 N.3   101  SER101     -0.1202
     91  CA       -27.8820   21.5500   29.0840 C.3   101  SER101      0.2020
     92  C        -26.9630   20.8570   28.0800 C.2   101  SER101      0.2619
     93  O        -25.7410   20.9120   28.2170 O.2   101  SER101     -0.2717
     94  CB       -27.9140   23.0670   28.8270 C.3   101  SER101      0.2103
     95  OG       -28.3620   23.3810   27.5020 O.3   101  SER101     -0.2182
     96  N        -27.5350   20.1850   27.0870 N.am  102  GLY102     -0.1942
     97  CA       -26.7130   19.4760   26.1150 C.3   102  GLY102      0.2014
     98  C        -27.4370   19.1130   24.8380 C.2   102  GLY102      0.2638
     99  O        -28.4840   19.6740   24.5220 O.2   102  GLY102     -0.2714
    100  N        -26.8600   18.1600   24.1170 N.am  103  ASN103     -0.1972
    101  CA       -27.3580   17.7080   22.8270 C.3   103  ASN103      0.1688
    102  C        -27.3220   16.1780   22.8200 C.2   103  ASN103      0.2292
    103  O        -26.2530   15.5750   22.9790 O.2   103  ASN103     -0.2864
    104  CB       -26.4790   18.3120   21.7160 C.3   103  ASN103      0.1181
    105  CG       -26.9320   17.9440   20.3120 C.2   103  ASN103      0.2629
    106  OD1      -27.5210   16.8900   20.0790 O.2   103  ASN103     -0.2716
    107  ND2      -26.6250   18.8130   19.3540 N.am  103  ASN103     -0.0877
    108  N        -24.7770   13.6670   21.2620 N.3   106  PHE106     -0.1241
    109  CA       -23.5060   13.3430   21.9070 C.3   106  PHE106      0.1605
    110  C        -23.5690   12.0460   22.7180 C.2   106  PHE106      0.2264
    111  O        -22.5990   11.6870   23.3910 O.2   106  PHE106     -0.2867
    112  CB       -22.9980   14.5160   22.7590 C.3   106  PHE106      0.0534
    113  CG       -22.4620   15.6620   21.9450 C.ar  106  PHE106     -0.0203
    114  CD1      -21.1010   15.7560   21.6560 C.ar  106  PHE106     -0.0042
    115  CD2      -23.3210   16.6350   21.4440 C.ar  106  PHE106     -0.0042
    116  CE1      -20.6090   16.8100   20.8980 C.ar  106  PHE106     -0.0003
    117  CE2      -22.8360   17.6920   20.6810 C.ar  106  PHE106     -0.0003
    118  CZ       -21.4790   17.7780   20.4070 C.ar  106  PHE106     -0.0000
    119  N        -22.0270   11.0890   26.1620 N.3   109  GLN109     -0.1231
    120  CA       -21.4650   12.3370   26.6850 C.3   109  GLN109      0.1698
    121  C        -22.5370   13.4060   26.9140 C.2   109  GLN109      0.2592
    122  O        -22.2250   14.5500   27.2610 O.2   109  GLN109     -0.2718
    123  CB       -20.3500   12.8640   25.7750 C.3   109  GLN109      0.0381
    124  CG       -19.0350   12.1040   25.9160 C.3   109  GLN109      0.0905
    125  CD       -19.1270   10.6900   25.3830 C.2   109  GLN109      0.2608
    126  OE1      -19.5810   10.4720   24.2630 O.2   109  GLN109     -0.2717
    127  NE2      -18.6990    9.7210   26.1850 N.am  109  GLN109     -0.0878
    128  N        -23.8020   13.0270   26.7320 N.am  110  TYR110     -0.1962
    129  CA       -24.9300   13.9390   26.9710 C.3   110  TYR110      0.1771
    130  C        -24.9220   14.4810   28.3990 C.2   110  TYR110      0.2619
    131  O        -25.0040   13.7070   29.3630 O.2   110  TYR110     -0.2715
    132  CB       -26.2700   13.2480   26.6850 C.3   110  TYR110      0.0574
    133  CG       -27.4880   14.1290   26.9180 C.ar  110  TYR110     -0.0198
    134  CD1      -27.7130   15.2650   26.1370 C.ar  110  TYR110     -0.0009
    135  CD2      -28.4230   13.8180   27.9080 C.ar  110  TYR110     -0.0009
    136  CE1      -28.8270   16.0660   26.3350 C.ar  110  TYR110      0.0417
    137  CE2      -29.5440   14.6200   28.1150 C.ar  110  TYR110      0.0417
    138  CZ       -29.7400   15.7390   27.3210 C.ar  110  TYR110      0.1957
    139  OH       -30.8470   16.5410   27.5140 O.3   110  TYR110     -0.2866
    140  N        -24.8180   15.8070   28.5150 N.am  111  CYS111     -0.1968
    141  CA       -24.7640   16.5190   29.8050 C.3   111  CYS111      0.1712
    142  C        -23.7380   15.9520   30.7860 C.2   111  CYS111      0.2296
    143  O        -23.9860   15.9010   31.9960 O.2   111  CYS111     -0.2864
    144  CB       -26.1480   16.5870   30.4630 C.3   111  CYS111      0.0983
    145  SG       -27.3420   17.5430   29.5130 S.3   111  CYS111     -0.0798
    146  N        -30.5360   21.6120   24.5830 N.3   131  MET131     -0.1245
    147  CA       -30.3850   22.9240   23.9460 C.3   131  MET131      0.1570
    148  C        -31.1630   24.0260   24.6780 C.2   131  MET131      0.2261
    149  O        -30.8690   24.2880   25.8350 O.2   131  MET131     -0.2867
    150  CB       -30.7130   22.8420   22.4480 C.3   131  MET131      0.0387
    151  CG       -29.8070   21.8650   21.7060 C.3   131  MET131      0.0595
    152  SD       -30.2320   21.6670   19.9720 S.3   131  MET131     -0.1393
    153  CE       -29.7450   23.2740   19.3390 C.3   131  MET131      0.0692
@<TRIPOS>BOND
     1   153   152    1
     2   107   105   am
     3   152   151    1
     4   106   105    2
     5   105   104    1
     6   118   117   ar
     7   118   116   ar
     8   117   115   ar
     9   116   114   ar
    10   108   109    1
    11    19    20    1
    12    19    16    1
    13   115   113   ar
    14    18    17    2
    15   114   113   ar
    16   151   150    1
    17   104   101    1
    18   109   110    1
    19   109   112    1
    20   113   112    1
    21    31    30    2
    22    16    17    1
    23    16    15    1
    24   150   147    1
    25    32    30   am
    26    17    21   am
    27   110   111    2
    28   102   101    1
    29   102   103    2
    30   101   100    1
    31    30    29    1
    32    10     9    2
    33    62    60   ar
    34    62    64   ar
    35    15     9   am
    36    69    68    2
    37    65    64    1
    38    21    22    1
    39     9     8    1
    40   147   146    1
    41   147   148    1
    42    60    59   ar
    43   100    98   am
    44    81    79    1
    45    22    23    1
    46    88    87    1
    47   126   125    2
    48    64    63   ar
    49    29    26    1
    50    25    23   am
    51    25    26    1
    52    99    98    2
    53    23    24    2
    54   148   149    2
    55    26    27    1
    56    98    97    1
    57    68    67    1
    58    89    87    1
    59    11     8    1
    60    11    12    1
    61     8     7    1
    62    87    86    1
    63   125   124    1
    64   125   127   am
    65    59    58    1
    66    59    61   ar
    67    79    78    1
    68    63    61   ar
    69    66    67    1
    70    66    56   am
    71    50    49    2
    72   123   124    1
    73   123   120    1
    74    67    70    1
    75    58    55    1
    76    97    96    1
    77    13    12    1
    78   134   136   ar
    79   134   133   ar
    80   119   120    1
    81    55    56    1
    82    55    54    1
    83    70    71    1
    84    27    28    2
    85    27    33   am
    86     7     3   am
    87   136   138   ar
    88    12    14    1
    89    80    78    1
    90    78    75    1
    91    56    57    2
    92    86    83    1
    93   132   133    1
    94   132   129    1
    95   120   121    1
    96   128   121   am
    97   128   129    1
    98   121   122    2
    99   133   135   ar
   100    49    54   am
   101    49    48    1
   102     6     5    1
   103   129   130    1
   104    96    92   am
   105     4     3    2
   106     3     2    1
   107    33    34    1
   108   138   139    1
   109   138   137   ar
   110    72    71    1
   111    71    73    1
   112    95    94    1
   113    51    48    1
   114    51    53    1
   115    51    52    1
   116   135   137   ar
   117    83    82    1
   118    83    84    1
   119    75    76    1
   120    75    74    1
   121    82    76   am
   122    92    93    2
   123    92    91    1
   124    48    47    1
   125    76    77    2
   126     5     2    1
   127     2     1    1
   128    47    42   am
   129    44    45    1
   130    44    41    1
   131   130   140   am
   132   130   131    2
   133   140   141    1
   134    34    35    1
   135    34    37    1
   136    94    91    1
   137    38    37    1
   138    45    46    1
   139    35    36    2
   140    91    90    1
   141    84    85    2
   142    42    41    1
   143    42    43    2
   144    41    40    1
   145    37    39    1
   146   145   144    1
   147   141   144    1
   148   141   142    1
   149    46    40    1
   150   142   143    2
