@<TRIPOS>MOLECULE
tmp/4n84A00.pdb
 240 226 0 0 0
SMALL
GASTEIGER

@<TRIPOS>ATOM
      1  N         34.0900    1.0750   19.1800 N.3    42  ARG42      -0.1231
      2  CA        35.1630    0.8130   18.2340 C.3    42  ARG42       0.1694
      3  C         34.7290   -0.2490   17.2340 C.2    42  ARG42       0.2592
      4  O         34.9430   -0.0990   16.0310 O.2    42  ARG42      -0.2718
      5  CB        36.4270    0.3620   18.9680 C.3    42  ARG42       0.0321
      6  CG        37.4590   -0.3050   18.0730 C.3    42  ARG42       0.0489
      7  CD        38.4920   -1.0630   18.8920 C.3    42  ARG42       0.2205
      8  NE        38.1040   -2.4530   19.1090 N.pl3  42  ARG42      -0.0865
      9  CZ        38.7980   -3.3160   19.8440 C.cat  42  ARG42       0.5346
     10  NH1       39.9210   -2.9330   20.4370 N.pl3  42  ARG42       0.1354
     11  NH2       38.3700   -4.5630   19.9880 N.pl3  42  ARG42       0.1354
     12  N         34.1150   -1.3210   17.7280 N.am   43  ASN43      -0.1974
     13  CA        33.6220   -2.3590   16.8370 C.3    43  ASN43       0.1688
     14  C         32.5530   -1.8560   15.8610 C.2    43  ASN43       0.2292
     15  O         32.5360   -2.2670   14.7180 O.2    43  ASN43      -0.2864
     16  CB        33.0510   -3.5470   17.5950 C.3    43  ASN43       0.1181
     17  CG        34.1000   -4.2280   18.4560 C.2    43  ASN43       0.2629
     18  OD1       35.3140   -3.9970   18.3380 O.2    43  ASN43      -0.2716
     19  ND2       33.6320   -5.0020   19.3790 N.am   43  ASN43      -0.0877
     20  N         34.4460    0.2310   13.1220 N.3    46  SER46      -0.1202
     21  CA        35.0360   -0.7440   12.2580 C.3    46  SER46       0.2020
     22  C         34.0430   -1.4520   11.3060 C.2    46  SER46       0.2618
     23  O         34.2120   -1.4190   10.1020 O.2    46  SER46      -0.2717
     24  CB        35.6820   -1.7810   13.1190 C.3    46  SER46       0.2103
     25  OG        36.9000   -1.2510   13.5400 O.3    46  SER46      -0.2182
     26  N         32.9810   -2.0070   11.8500 N.am   47  VAL47      -0.1979
     27  CA        32.0000   -2.6090   11.0380 C.3    47  VAL47       0.1595
     28  C         31.5640   -1.6430    9.9350 C.2    47  VAL47       0.2287
     29  O         31.5580   -2.0330    8.7380 O.2    47  VAL47      -0.2864
     30  CB        30.7640   -3.1090   11.8150 C.3    47  VAL47       0.0276
     31  CG1       29.7040   -3.5860   10.8240 C.3    47  VAL47       0.0022
     32  CG2       31.1620   -4.2640   12.7380 C.3    47  VAL47       0.0022
     33  N         34.3770   -0.8660    7.2670 N.3    50  LYS50      -0.1231
     34  CA        34.7150   -2.0440    6.5230 C.3    50  LYS50       0.1693
     35  C         33.6660   -2.2330    5.4470 C.2    50  LYS50       0.2592
     36  O         34.0050   -2.4690    4.3170 O.2    50  LYS50      -0.2718
     37  CB        34.8650   -3.2750    7.4270 C.3    50  LYS50       0.0285
     38  CG        34.2140   -4.5890    7.0090 C.3    50  LYS50       0.0035
     39  CD        35.1910   -5.5500    6.3610 C.3    50  LYS50       0.0206
     40  CE        34.6150   -6.9750    6.1860 C.3    50  LYS50       0.1093
     41  NZ        34.8390   -7.7680    7.4150 N.3    50  LYS50      -0.1314
     42  N         32.3960   -2.0520    5.7620 N.am   51  ASN51      -0.1974
     43  CA        31.4120   -2.1660    4.7210 C.3    51  ASN51       0.1688
     44  C         31.3610   -0.9970    3.7440 C.2    51  ASN51       0.2292
     45  O         30.9870   -1.1590    2.6080 O.2    51  ASN51      -0.2864
     46  CB        30.0530   -2.3340    5.3350 C.3    51  ASN51       0.1181
     47  CG        29.8720   -3.7120    5.9560 C.2    51  ASN51       0.2629
     48  OD1       29.5140   -4.6510    5.2610 O.2    51  ASN51      -0.2716
     49  ND2       30.1430   -3.8450    7.2700 N.am   51  ASN51      -0.0877
     50  N         33.8760    1.2340    2.8750 N.3    53  VAL53      -0.1245
     51  CA        34.9610    1.1140    1.9650 C.3    53  VAL53       0.1561
     52  C         34.9040   -0.1780    1.1250 C.2    53  VAL53       0.2260
     53  O         35.4310   -0.1750    0.0070 O.2    53  VAL53      -0.2867
     54  CB        36.2750    1.1410    2.7430 C.3    53  VAL53       0.0252
     55  CG1       36.5140   -0.2350    3.4140 C.3    53  VAL53       0.0019
     56  CG2       37.4570    1.5780    1.8770 C.3    53  VAL53       0.0019
     57  N         35.9610   -0.8010   -2.9320 N.3    57  ARG57      -0.1245
     58  CA        37.0540   -1.6090   -3.4110 C.3    57  ARG57       0.1563
     59  C         36.5150   -2.6880   -4.3630 C.2    57  ARG57       0.2260
     60  O         37.1660   -3.0730   -5.3780 O.2    57  ARG57      -0.2867
     61  CB        37.6800   -2.3510   -2.2580 C.3    57  ARG57       0.0307
     62  CG        38.4750   -1.4290   -1.3750 C.3    57  ARG57       0.0489
     63  CD        39.0350   -2.2350   -0.2250 C.3    57  ARG57       0.2205
     64  NE        40.2040   -2.9800   -0.6620 N.pl3  57  ARG57      -0.0865
     65  CZ        40.6440   -4.1230   -0.1290 C.cat  57  ARG57       0.5346
     66  NH1       39.9900   -4.7570    0.8240 N.pl3  57  ARG57       0.1354
     67  NH2       41.7580   -4.6460   -0.5820 N.pl3  57  ARG57       0.1354
     68  N         45.5350   -3.6200   23.4820 N.3   114  GLU114     -0.1245
     69  CA        44.7310   -4.3100   22.5070 C.3   114  GLU114      0.1567
     70  C         44.1600   -3.2840   21.5180 C.2   114  GLU114      0.2260
     71  O         44.1010   -3.5190   20.3300 O.2   114  GLU114     -0.2867
     72  CB        43.6710   -5.1680   23.2110 C.3   114  GLU114      0.0388
     73  CG        42.2450   -4.9730   22.6430 C.3   114  GLU114      0.1160
     74  CD        41.1820   -5.9150   23.2100 C.2   114  GLU114      0.3649
     75  OE1       40.0010   -5.8240   22.7600 O.co2 114  GLU114     -0.2457
     76  OE2       41.5360   -6.7810   24.0650 O.co2 114  GLU114     -0.2457
     77  N         44.8770   -2.6180   17.5760 N.3   118  PHE118     -0.1241
     78  CA        43.7730   -2.7050   16.6520 C.3   118  PHE118      0.1605
     79  C         43.7730   -1.4600   15.7480 C.2   118  PHE118      0.2264
     80  O         43.7130   -1.5760   14.5280 O.2   118  PHE118     -0.2867
     81  CB        42.4960   -2.8570   17.4700 C.3   118  PHE118      0.0534
     82  CG        41.2500   -2.8460   16.6530 C.ar  118  PHE118     -0.0203
     83  CD1       40.7020   -1.6570   16.2230 C.ar  118  PHE118     -0.0042
     84  CD2       40.6350   -4.0300   16.2990 C.ar  118  PHE118     -0.0042
     85  CE1       39.5370   -1.6320   15.4950 C.ar  118  PHE118     -0.0003
     86  CE2       39.4880   -4.0350   15.5290 C.ar  118  PHE118     -0.0003
     87  CZ        38.9370   -2.8190   15.1310 C.ar  118  PHE118     -0.0000
     88  N         46.6100   -1.3320   13.2400 N.3   121  LYS121     -0.1245
     89  CA        46.4910   -2.3060   12.1910 C.3   121  LYS121      0.1561
     90  C         45.5510   -1.7020   11.2000 C.2   121  LYS121      0.2260
     91  O         45.7370   -1.7900   10.0040 O.2   121  LYS121     -0.2867
     92  CB        45.9920   -3.6970   12.6790 C.3   121  LYS121      0.0271
     93  CG        45.2620   -4.4930   11.6190 C.3   121  LYS121      0.0035
     94  CD        44.6590   -5.7740   12.1850 C.3   121  LYS121      0.0206
     95  CE        43.6470   -6.3370   11.2200 C.3   121  LYS121      0.1093
     96  NZ        42.7040   -5.2240   10.9170 N.3   121  LYS121     -0.1314
     97  N         45.7920   -1.0980    7.2840 N.3   125  ASP125     -0.1225
     98  CA        44.8250   -1.5380    6.2720 C.3   125  ASP125      0.1805
     99  C         44.3860   -0.3810    5.4090 C.2   125  ASP125      0.2597
    100  O         44.2270   -0.5260    4.1950 O.2   125  ASP125     -0.2718
    101  CB        43.5520   -2.0990    6.9100 C.3   125  ASP125      0.1424
    102  CG        43.8070   -3.4010    7.6770 C.2   125  ASP125      0.3668
    103  OD1       44.8250   -4.1440    7.4070 O.co2 125  ASP125     -0.2456
    104  OD2       42.9800   -3.6590    8.5630 O.co2 125  ASP125     -0.2456
    105  N         44.0880    0.7620    6.0330 N.am  126  TYR126     -0.1976
    106  CA        43.5900    1.8310    5.2140 C.3   126  TYR126      0.1639
    107  C         44.6440    2.4960    4.3390 C.2   126  TYR126      0.2290
    108  O         44.2960    2.9520    3.2860 O.2   126  TYR126     -0.2864
    109  CB        42.7810    2.7780    6.0270 C.3   126  TYR126      0.0560
    110  CG        41.4350    2.2340    6.2540 C.ar  126  TYR126     -0.0198
    111  CD1       41.1740    1.3610    7.3030 C.ar  126  TYR126     -0.0009
    112  CD2       40.4280    2.5880    5.4660 C.ar  126  TYR126     -0.0009
    113  CE1       39.8950    0.8640    7.5120 C.ar  126  TYR126      0.0417
    114  CE2       39.1240    2.0940    5.6720 C.ar  126  TYR126      0.0417
    115  CZ        38.8900    1.2130    6.6930 C.ar  126  TYR126      0.1957
    116  OH        37.6250    0.7160    6.8750 O.3   126  TYR126     -0.2866
    117  N         46.9710    0.6610    3.0040 N.3   128  ARG128     -0.1231
    118  CA        47.0850   -0.4240    2.0360 C.3   128  ARG128      0.1694
    119  C         46.0130   -0.1400    1.0150 C.2   128  ARG128      0.2592
    120  O         46.2610   -0.2200   -0.1960 O.2   128  ARG128     -0.2718
    121  CB        46.9650   -1.8510    2.6720 C.3   128  ARG128      0.0321
    122  CG        46.6590   -2.9980    1.6950 C.3   128  ARG128      0.0489
    123  CD        46.9430   -4.3880    2.3180 C.3   128  ARG128      0.2205
    124  NE        46.1570   -4.6550    3.5080 N.pl3 128  ARG128     -0.0865
    125  CZ        44.9650   -5.2520    3.4890 C.cat 128  ARG128      0.5346
    126  NH1       44.4670   -5.6720    2.3270 N.pl3 128  ARG128      0.1354
    127  NH2       44.2480   -5.4170    4.6270 N.pl3 128  ARG128      0.1354
    128  N         44.8190    0.2650    1.4550 N.am  129  TYR129     -0.1976
    129  CA        43.7940    0.3750    0.4330 C.3   129  TYR129      0.1639
    130  C         44.1040    1.5460   -0.4740 C.2   129  TYR129      0.2290
    131  O         43.7640    1.4920   -1.6400 O.2   129  TYR129     -0.2864
    132  CB        42.4030    0.5250    0.9710 C.3   129  TYR129      0.0560
    133  CG        41.9550   -0.5330    1.9380 C.ar  129  TYR129     -0.0198
    134  CD1       42.3910   -1.8570    1.8040 C.ar  129  TYR129     -0.0009
    135  CD2       41.0900   -0.2220    3.0090 C.ar  129  TYR129     -0.0009
    136  CE1       41.9820   -2.8410    2.6860 C.ar  129  TYR129      0.0417
    137  CE2       40.6670   -1.2230    3.8890 C.ar  129  TYR129      0.0417
    138  CZ        41.1150   -2.5340    3.7060 C.ar  129  TYR129      0.1957
    139  OH        40.7340   -3.5660    4.5660 O.3   129  TYR129     -0.2866
    140  N         46.0370  -14.3450   20.5520 N.3   165  HIS165     -0.1227
    141  CA        44.9840  -13.2960   20.5500 C.3   165  HIS165      0.1737
    142  C         44.5490  -13.0210   19.1100 C.2   165  HIS165      0.2438
    143  O         45.3580  -12.8260   18.2200 O.2   165  HIS165     -0.2733
    144  CB        45.4750  -12.0060   21.2050 C.3   165  HIS165      0.0758
    145  CG        44.3470  -11.0600   21.4940 C.ar  165  HIS165      0.0818
    146  ND1       43.8550  -10.8470   22.7570 N.ar  165  HIS165     -0.2268
    147  CD2       43.5430  -10.3440   20.6380 C.ar  165  HIS165      0.1154
    148  CE1       42.8060  -10.0240   22.6860 C.ar  165  HIS165      0.1986
    149  NE2       42.6220   -9.7010   21.3930 N.ar  165  HIS165     -0.2212
    150  N         43.2720  -12.9800   18.8720 N.am  166  PRO166     -0.2718
    151  CA        42.8760  -12.8680   17.4880 C.3   166  PRO166      0.1535
    152  C         43.2880  -11.5230   16.8330 C.2   166  PRO166      0.2598
    153  O         43.4370  -11.4480   15.5830 O.2   166  PRO166     -0.2715
    154  CB        41.3470  -12.9490   17.5320 C.3   166  PRO166      0.0310
    155  CG        40.9740  -13.4210   18.8920 C.3   166  PRO166      0.0237
    156  CD        42.1400  -13.1030   19.8140 C.3   166  PRO166      0.0939
    157  N         43.4730  -10.4770   17.6370 N.am  167  ILE167     -0.1978
    158  CA        43.8940   -9.1810   17.0910 C.3   167  ILE167      0.1596
    159  C         45.3280   -9.2580   16.6610 C.2   167  ILE167      0.2287
    160  O         45.6880   -8.7280   15.6230 O.2   167  ILE167     -0.2864
    161  CB        43.7020   -7.9810   18.0500 C.3   167  ILE167      0.0276
    162  CG1       42.2040   -7.6800   18.1780 C.3   167  ILE167      0.0022
    163  CG2       44.4370   -6.7550   17.5100 C.3   167  ILE167      0.0022
    164  CD1       41.8220   -6.5830   19.2120 C.3   167  ILE167      0.0001
    165  N         45.2820  -11.4990   13.4390 N.3   170  GLY170     -0.1225
    166  CA        44.6920  -10.7800   12.2970 C.3   170  GLY170      0.1811
    167  C         45.6930   -9.7450   11.7950 C.2   170  GLY170      0.2280
    168  O         45.8590   -9.4840   10.5970 O.2   170  GLY170     -0.2866
    169  N         47.9990  -11.6990    9.7820 N.3   173  LEU173     -0.1231
    170  CA        47.4010  -12.0430    8.5130 C.3   173  LEU173      0.1693
    171  C         47.4710  -10.8290    7.5140 C.2   173  LEU173      0.2592
    172  O         48.0450  -10.9480    6.4220 O.2   173  LEU173     -0.2718
    173  CB        45.9720  -12.4000    8.7280 C.3   173  LEU173      0.0284
    174  CG        45.3000  -12.7830    7.4160 C.3   173  LEU173      0.0019
    175  CD1       45.8690  -14.0840    6.9180 C.3   173  LEU173      0.0001
    176  CD2       43.7760  -12.9400    7.6550 C.3   173  LEU173      0.0001
    177  N         46.8550   -9.6980    7.8820 N.am  174  ASN174     -0.1974
    178  CA        46.8610   -8.5230    7.0630 C.3   174  ASN174      0.1688
    179  C         48.2190   -8.0180    6.6400 C.2   174  ASN174      0.2292
    180  O         48.4080   -7.6200    5.5060 O.2   174  ASN174     -0.2864
    181  CB        45.9700   -7.4490    7.6590 C.3   174  ASN174      0.1181
    182  CG        44.5390   -7.8530    7.5560 C.2   174  ASN174      0.2629
    183  OD1       44.2620   -9.0460    7.3130 O.2   174  ASN174     -0.2716
    184  ND2       43.6130   -6.8900    7.6190 N.am  174  ASN174     -0.0877
    185  N         49.7070  -10.4670    4.0530 N.3   177  VAL177     -0.1245
    186  CA        49.0980  -10.1670    2.7460 C.3   177  VAL177      0.1561
    187  C         49.6730   -8.8460    2.2270 C.2   177  VAL177      0.2260
    188  O         50.0080   -8.7400    1.0680 O.2   177  VAL177     -0.2867
    189  CB        47.5430  -10.1680    2.7620 C.3   177  VAL177      0.0252
    190  CG1       46.8900   -9.4730    1.5200 C.3   177  VAL177      0.0019
    191  CG2       46.9990  -11.5830    2.9200 C.3   177  VAL177      0.0019
    192  N         51.1630   -8.9740   -1.5080 N.3   181  GLU181     -0.1245
    193  CA        50.4110   -8.3400   -2.5710 C.3   181  GLU181      0.1567
    194  C         50.8020   -6.9000   -2.7680 C.2   181  GLU181      0.2260
    195  O         50.4450   -6.3380   -3.7640 O.2   181  GLU181     -0.2867
    196  CB        48.8990   -8.3340   -2.2980 C.3   181  GLU181      0.0388
    197  CG        48.1060   -9.5080   -2.8210 C.3   181  GLU181      0.1160
    198  CD        46.6610   -9.5600   -2.2600 C.2   181  GLU181      0.3649
    199  OE1       46.0700   -8.5070   -1.8880 O.co2 181  GLU181     -0.2457
    200  OE2       46.0810  -10.6730   -2.1920 O.co2 181  GLU181     -0.2457
    201  N         37.8880  -18.5420   17.2560 N.3   210  ASP210     -0.1239
    202  CA        38.2330  -17.3980   16.3950 C.3   210  ASP210      0.1674
    203  C         39.6870  -17.3260   16.0290 C.2   210  ASP210      0.2266
    204  O         40.0140  -17.1270   14.8470 O.2   210  ASP210     -0.2867
    205  CB        37.7500  -16.0900   16.9970 C.3   210  ASP210      0.1410
    206  CG        36.2430  -16.0370   17.0460 C.2   210  ASP210      0.3668
    207  OD1       35.6320  -16.6020   16.0900 O.co2 210  ASP210     -0.2456
    208  OD2       35.6820  -15.4840   18.0300 O.co2 210  ASP210     -0.2456
    209  N         40.3060  -20.0490   13.3940 N.3   213  LEU213     -0.1231
    210  CA        39.9780  -19.6310   12.0450 C.3   213  LEU213      0.1693
    211  C         41.1060  -18.7830   11.4290 C.2   213  LEU213      0.2591
    212  O         41.4730  -18.9750   10.2750 O.2   213  LEU213     -0.2718
    213  CB        38.6680  -18.9060   11.9940 C.3   213  LEU213      0.0284
    214  CG        37.3890  -19.6460   11.6370 C.3   213  LEU213      0.0019
    215  CD1       36.5440  -19.7090   12.8800 C.3   213  LEU213      0.0001
    216  CD2       36.6690  -18.7300   10.6510 C.3   213  LEU213      0.0001
    217  N         41.7420  -17.9220   12.2120 N.am  214  ILE214     -0.1980
    218  CA        42.7330  -17.0910   11.5940 C.3   214  ILE214      0.1595
    219  C         43.9730  -17.8850   11.3280 C.2   214  ILE214      0.2287
    220  O         44.6640  -17.6930   10.3120 O.2   214  ILE214     -0.2864
    221  CB        43.0570  -15.8210   12.4270 C.3   214  ILE214      0.0276
    222  CG1       41.7750  -15.0350   12.7130 C.3   214  ILE214      0.0022
    223  CG2       43.9880  -14.9550   11.6540 C.3   214  ILE214      0.0022
    224  CD1       41.9500  -13.9500   13.7800 C.3   214  ILE214      0.0001
    225  N         43.5980  -19.4420    8.0870 N.3   217  LEU217     -0.1245
    226  CA        43.7390  -18.5440    6.9470 C.3   217  LEU217      0.1561
    227  C         45.2130  -18.2840    6.7280 C.2   217  LEU217      0.2260
    228  O         45.6670  -18.1940    5.5760 O.2   217  LEU217     -0.2867
    229  CB        42.9780  -17.2410    7.1240 C.3   217  LEU217      0.0270
    230  CG        41.4470  -17.2990    7.1670 C.3   217  LEU217      0.0019
    231  CD1       40.9940  -15.9920    7.8070 C.3   217  LEU217      0.0001
    232  CD2       40.7250  -17.5880    5.8330 C.3   217  LEU217      0.0001
    233  N         47.2160  -19.2970    3.2890 N.3   221  ASN221     -0.1240
    234  CA        48.1230  -18.4200    2.5370 C.3   221  ASN221      0.1653
    235  C         49.4570  -19.0780    2.2780 C.2   221  ASN221      0.2266
    236  O         49.9600  -19.0820    1.1490 O.2   221  ASN221     -0.2867
    237  CB        48.2930  -16.9950    3.1270 C.3   221  ASN221      0.1155
    238  CG        47.0380  -16.1860    2.9840 C.2   221  ASN221      0.2627
    239  OD1       46.2320  -16.5150    2.1590 O.2   221  ASN221     -0.2716
    240  ND2       46.8210  -15.1820    3.8380 N.am  221  ASN221     -0.0877
@<TRIPOS>BOND
     1    60    59    2
     2    59    58    1
     3   195   194    2
     4    58    57    1
     5    58    61    1
     6   197   196    1
     7   197   198    1
     8   194   193    1
     9   193   196    1
    10   193   192    1
    11   198   200   ar
    12   198   199   ar
    13    61    62    1
    14   131   130    2
    15    62    63    1
    16    64    63    1
    17    64    65    2
    18    67    65    1
    19   130   129    1
    20   120   119    2
    21    65    66    1
    22    53    52    2
    23   129   132    1
    24   129   128    1
    25   132   133    1
    26   119   128   am
    27   119   118    1
    28   188   187    2
    29    52    51    1
    30   236   235    2
    31   190   189    1
    32   122   123    1
    33   122   121    1
    34   134   133   ar
    35   134   136   ar
    36    56    54    1
    37   133   135   ar
    38    51    54    1
    39    51    50    1
    40   118   121    1
    41   118   117    1
    42   239   238    2
    43   187   186    1
    44   235   234    1
    45   123   124    1
    46   126   125    1
    47   234   237    1
    48   234   233    1
    49    45    44    2
    50   136   138   ar
    51    54    55    1
    52   186   189    1
    53   186   185    1
    54   189   191    1
    55   238   237    1
    56   238   240   am
    57   135   137   ar
    58   108   107    2
    59   125   124    2
    60   125   127    1
    61   138   137   ar
    62   138   139    1
    63    44    43    1
    64   100    99    2
    65    36    35    2
    66   107   106    1
    67    43    46    1
    68    43    42    1
    69   106   109    1
    70   106   105    1
    71    48    47    2
    72    46    47    1
    73    99   105   am
    74    99    98    1
    75    35    42   am
    76    35    34    1
    77   112   114   ar
    78   112   110   ar
    79   180   179    2
    80   228   227    2
    81   114   115   ar
    82   232   230    1
    83    47    49   am
    84   109   110    1
    85    40    39    1
    86    40    41    1
    87   110   111   ar
    88    98   101    1
    89    98    97    1
    90    39    38    1
    91   172   171    2
    92    34    33    1
    93    34    37    1
    94   179   178    1
    95   115   116    1
    96   115   113   ar
    97   227   226    1
    98   101   102    1
    99   175   174    1
   100   226   229    1
   101   226   225    1
   102    38    37    1
   103   178   181    1
   104   178   177    1
   105   229   230    1
   106   230   231    1
   107   111   113   ar
   108   183   182    2
   109   103   102   ar
   110   174   176    1
   111   174   173    1
   112   171   177   am
   113   171   170    1
   114   182   184   am
   115   182   181    1
   116   102   104   ar
   117   170   173    1
   118   170   169    1
   119    29    28    2
   120    28    27    1
   121    91    90    2
   122    23    22    2
   123   212   211    2
   124   220   219    2
   125   168   167    2
   126   216   214    1
   127    31    30    1
   128    96    95    1
   129    27    30    1
   130    27    26    1
   131    90    89    1
   132    95    94    1
   133    22    26   am
   134    22    21    1
   135   219   218    1
   136   211   210    1
   137   211   217   am
   138   218   217    1
   139   218   221    1
   140    93    94    1
   141    93    92    1
   142   214   213    1
   143   214   215    1
   144   223   221    1
   145   167   166    1
   146    30    32    1
   147   213   210    1
   148   210   209    1
   149    89    92    1
   150    89    88    1
   151    21    24    1
   152    21    20    1
   153   166   165    1
   154   221   222    1
   155   222   224    1
   156    24    25    1
   157    80    79    2
   158    15    14    2
   159   204   203    2
   160    87    85   ar
   161    87    86   ar
   162    85    83   ar
   163    86    84   ar
   164   153   152    2
   165   160   159    2
   166    79    78    1
   167    14    13    1
   168   203   202    1
   169     4     3    2
   170   207   206   ar
   171    83    82   ar
   172    84    82   ar
   173   202   205    1
   174   202   201    1
   175    78    81    1
   176    78    77    1
   177    82    81    1
   178   159   158    1
   179   152   151    1
   180   152   157   am
   181    13    16    1
   182    13    12    1
   183   205   206    1
   184   206   208   ar
   185   158   157    1
   186   158   161    1
   187     3    12   am
   188     3     2    1
   189   151   154    1
   190   151   150    1
   191   163   161    1
   192   154   155    1
   193    16    17    1
   194   161   162    1
   195     6     7    1
   196     6     5    1
   197   162   164    1
   198   143   142    2
   199     2     5    1
   200     2     1    1
   201    18    17    2
   202    17    19   am
   203   150   142   am
   204   150   156    1
   205   155   156    1
   206     7     8    1
   207     8     9    2
   208   142   141    1
   209     9    11    1
   210     9    10    1
   211    71    70    2
   212   141   140    1
   213   141   144    1
   214   147   149   ar
   215   147   145   ar
   216   144   145    1
   217   149   148   ar
   218   145   146   ar
   219    70    69    1
   220    69    72    1
   221    69    68    1
   222    73    74    1
   223    73    72    1
   224   148   146   ar
   225    75    74   ar
   226    74    76   ar
