@<TRIPOS>MOLECULE
tmp/4n84B00.pdb
 245 232 0 0 0
SMALL
GASTEIGER

@<TRIPOS>ATOM
      1  N         14.7980   -1.0440  -21.3970 N.3    42  ARG42      -0.1231
      2  CA        13.7290   -1.3300  -20.4780 C.3    42  ARG42       0.1694
      3  C         14.2160   -2.2820  -19.4010 C.2    42  ARG42       0.2592
      4  O         14.0180   -2.0040  -18.2230 O.2    42  ARG42      -0.2718
      5  CB        12.6260   -2.0330  -21.2200 C.3    42  ARG42       0.0321
      6  CG        11.5040   -2.5090  -20.3430 C.3    42  ARG42       0.0489
      7  CD        10.5360   -3.3890  -21.1000 C.3    42  ARG42       0.2205
      8  NE        11.1450   -4.7060  -21.2840 N.pl3  42  ARG42      -0.0865
      9  CZ        10.6230   -5.7270  -21.9660 C.cat  42  ARG42       0.5346
     10  NH1        9.4120   -5.6720  -22.5240 N.pl3  42  ARG42       0.1354
     11  NH2       11.3280   -6.8370  -22.0520 N.pl3  42  ARG42       0.1354
     12  N         14.9040   -3.3530  -19.7770 N.am   43  ASN43      -0.1974
     13  CA        15.4010   -4.2210  -18.7470 C.3    43  ASN43       0.1688
     14  C         16.4010   -3.5120  -17.8600 C.2    43  ASN43       0.2292
     15  O         16.5110   -3.8470  -16.6730 O.2    43  ASN43      -0.2864
     16  CB        15.9970   -5.5620  -19.2610 C.3    43  ASN43       0.1181
     17  CG        14.9710   -6.3780  -20.0890 C.2    43  ASN43       0.2629
     18  OD1       13.7500   -6.0520  -20.1800 O.2    43  ASN43      -0.2716
     19  ND2       15.4690   -7.4290  -20.7290 N.am   43  ASN43      -0.0877
     20  N         14.5410   -1.2340  -15.2770 N.3    46  SER46      -0.1202
     21  CA        13.9260   -2.0820  -14.2810 C.3    46  SER46       0.2020
     22  C         14.8670   -2.6950  -13.2630 C.2    46  SER46       0.2618
     23  O         14.6300   -2.5910  -12.0760 O.2    46  SER46      -0.2717
     24  CB        13.1310   -3.1670  -14.9380 C.3    46  SER46       0.2103
     25  OG        12.0970   -2.5390  -15.6300 O.3    46  SER46      -0.2182
     26  N         15.9470   -3.2810  -13.7180 N.am   47  VAL47      -0.1979
     27  CA        16.9430   -3.7400  -12.7890 C.3    47  VAL47       0.1595
     28  C         17.4030   -2.6200  -11.8370 C.2    47  VAL47       0.2287
     29  O         17.5480   -2.8320  -10.6430 O.2    47  VAL47      -0.2864
     30  CB        18.1530   -4.3680  -13.5150 C.3    47  VAL47       0.0276
     31  CG1       19.2320   -4.7940  -12.5390 C.3    47  VAL47       0.0022
     32  CG2       17.7260   -5.6130  -14.3180 C.3    47  VAL47       0.0022
     33  N         14.6440   -1.6260   -9.3340 N.3    50  LYS50      -0.1231
     34  CA        14.2330   -2.7030   -8.5400 C.3    50  LYS50       0.1693
     35  C         15.2310   -2.7610   -7.4080 C.2    50  LYS50       0.2592
     36  O         14.8420   -2.8400   -6.2640 O.2    50  LYS50      -0.2718
     37  CB        14.2940   -3.9830   -9.3360 C.3    50  LYS50       0.0285
     38  CG        13.8980   -5.1690   -8.5120 C.3    50  LYS50       0.0035
     39  CD        14.6800   -6.3860   -8.8630 C.3    50  LYS50       0.0206
     40  CE        14.3500   -7.5150   -7.8790 C.3    50  LYS50       0.1093
     41  NZ        13.5420   -8.6440   -8.3640 N.3    50  LYS50      -0.1314
     42  N         16.5160   -2.6510   -7.7160 N.am   51  ASN51      -0.1974
     43  CA        17.5010   -2.6230   -6.6410 C.3    51  ASN51       0.1688
     44  C         17.5100   -1.3970   -5.7480 C.2    51  ASN51       0.2292
     45  O         17.7450   -1.5180   -4.5650 O.2    51  ASN51      -0.2864
     46  CB        18.8980   -2.8300   -7.2070 C.3    51  ASN51       0.1181
     47  CG        19.0900   -4.2390   -7.6950 C.2    51  ASN51       0.2629
     48  OD1       18.8680   -4.5320   -8.8560 O.2    51  ASN51      -0.2716
     49  ND2       19.4610   -5.1210   -6.8030 N.am   51  ASN51      -0.0877
     50  N         12.9660   -0.7810    0.7480 N.3    57  ARG57      -0.1245
     51  CA        11.8490   -1.4910    1.2700 C.3    57  ARG57       0.1563
     52  C         12.3170   -2.4770    2.3390 C.2    57  ARG57       0.2260
     53  O         11.6280   -2.7460    3.3170 O.2    57  ARG57      -0.2867
     54  CB        11.1950   -2.2760    0.1740 C.3    57  ARG57       0.0307
     55  CG        10.2960   -1.4140   -0.6390 C.3    57  ARG57       0.0489
     56  CD         9.7970   -2.2490   -1.7350 C.3    57  ARG57       0.2205
     57  NE         8.6460   -3.0220   -1.3400 N.pl3  57  ARG57      -0.0865
     58  CZ         8.3890   -4.2290   -1.8560 C.cat  57  ARG57       0.5346
     59  NH1        9.2520   -4.8110   -2.7000 N.pl3  57  ARG57       0.1354
     60  NH2        7.2870   -4.8480   -1.5180 N.pl3  57  ARG57       0.1354
     61  N          2.8770   -5.8130  -25.2850 N.3   112  GLU112     -0.1245
     62  CA         3.7990   -6.3640  -24.3220 C.3   112  GLU112      0.1567
     63  C          4.4550   -5.2940  -23.4400 C.2   112  GLU112      0.2260
     64  O          4.6140   -5.4710  -22.2380 O.2   112  GLU112     -0.2867
     65  CB         4.8270   -7.2130  -25.0420 C.3   112  GLU112      0.0388
     66  CG         5.9550   -7.6670  -24.1550 C.3   112  GLU112      0.1160
     67  CD         7.0710   -8.4060  -24.8920 C.2   112  GLU112      0.3649
     68  OE1        8.2690   -7.9620  -24.7650 O.co2 112  GLU112     -0.2457
     69  OE2        6.7320   -9.4270  -25.5760 O.co2 112  GLU112     -0.2457
     70  N          3.7750   -4.3490  -19.5420 N.3   116  PHE116     -0.1241
     71  CA         4.9050   -4.3120  -18.6370 C.3   116  PHE116      0.1605
     72  C          4.9880   -3.0230  -17.8450 C.2   116  PHE116      0.2264
     73  O          5.2010   -3.0310  -16.6630 O.2   116  PHE116     -0.2867
     74  CB         6.1860   -4.4760  -19.4270 C.3   116  PHE116      0.0534
     75  CG         7.4290   -4.3800  -18.5850 C.ar  116  PHE116     -0.0203
     76  CD1        8.0560   -3.1740  -18.3910 C.ar  116  PHE116     -0.0042
     77  CD2        7.9890   -5.5370  -18.0020 C.ar  116  PHE116     -0.0042
     78  CE1        9.2380   -3.0880  -17.6100 C.ar  116  PHE116     -0.0003
     79  CE2        9.1080   -5.4580  -17.1920 C.ar  116  PHE116     -0.0003
     80  CZ         9.7440   -4.2390  -16.9960 C.ar  116  PHE116     -0.0000
     81  N          2.0580   -2.7100  -15.3760 N.3   119  LYS119     -0.1245
     82  CA         2.2840   -3.5740  -14.2480 C.3   119  LYS119      0.1561
     83  C          3.2080   -2.8250  -13.2860 C.2   119  LYS119      0.2260
     84  O          3.0380   -2.8430  -12.0770 O.2   119  LYS119     -0.2867
     85  CB         2.9110   -4.9070  -14.6840 C.3   119  LYS119      0.0271
     86  CG         3.4340   -5.7380  -13.5030 C.3   119  LYS119      0.0035
     87  CD         4.2570   -6.9410  -13.9870 C.3   119  LYS119      0.0206
     88  CE         5.1250   -7.4910  -12.8780 C.3   119  LYS119      0.1093
     89  NZ         6.2180   -6.5430  -12.4600 N.3   119  LYS119     -0.1314
     90  N          3.0640   -1.8990   -9.4640 N.3   123  ASP123     -0.1225
     91  CA         4.0250   -2.1730   -8.4170 C.3   123  ASP123      0.1805
     92  C          4.4750   -0.9190   -7.6260 C.2   123  ASP123      0.2597
     93  O          4.5280   -0.9430   -6.4210 O.2   123  ASP123     -0.2718
     94  CB         5.2230   -2.8870   -8.9780 C.3   123  ASP123      0.1424
     95  CG         4.8880   -4.2780   -9.6380 C.2   123  ASP123      0.3668
     96  OD1        3.8830   -4.9740   -9.3220 O.co2 123  ASP123     -0.2456
     97  OD2        5.6830   -4.6680  -10.5080 O.co2 123  ASP123     -0.2456
     98  N          4.8250    0.1570   -8.2990 N.am  124  TYR124     -0.1976
     99  CA         5.3420    1.3090   -7.6080 C.3   124  TYR124      0.1639
    100  C          4.2920    2.0150   -6.7260 C.2   124  TYR124      0.2290
    101  O          4.5890    2.3950   -5.6100 O.2   124  TYR124     -0.2864
    102  CB         6.1370    2.1940   -8.5300 C.3   124  TYR124      0.0560
    103  CG         7.4980    1.5760   -8.7470 C.ar  124  TYR124     -0.0198
    104  CD1        7.7050    0.5740   -9.6950 C.ar  124  TYR124     -0.0009
    105  CD2        8.5580    1.9430   -7.9650 C.ar  124  TYR124     -0.0009
    106  CE1        8.9600   -0.0040   -9.8570 C.ar  124  TYR124      0.0417
    107  CE2        9.8080    1.3690   -8.1260 C.ar  124  TYR124      0.0417
    108  CZ        10.0040    0.3920   -9.0720 C.ar  124  TYR124      0.1957
    109  OH        11.2680   -0.2110   -9.1650 O.3   124  TYR124     -0.2866
    110  N          1.9330    0.1620   -5.2990 N.3   126  ARG126     -0.1231
    111  CA         1.8080   -0.8390   -4.2340 C.3   126  ARG126      0.1694
    112  C          2.8690   -0.5110   -3.2450 C.2   126  ARG126      0.2592
    113  O          2.6430   -0.6180   -2.0620 O.2   126  ARG126     -0.2718
    114  CB         1.9050   -2.3180   -4.7330 C.3   126  ARG126      0.0321
    115  CG         2.1110   -3.3780   -3.6290 C.3   126  ARG126      0.0489
    116  CD         1.8330   -4.8340   -4.0690 C.3   126  ARG126      0.2205
    117  NE         2.5000   -5.2460   -5.3180 N.pl3 126  ARG126     -0.0865
    118  CZ         3.7350   -5.7140   -5.3830 C.cat 126  ARG126      0.5346
    119  NH1        4.3990   -5.9430   -4.2740 N.pl3 126  ARG126      0.1354
    120  NH2        4.2990   -5.9990   -6.5490 N.pl3 126  ARG126      0.1354
    121  N          4.0390   -0.0770   -3.7040 N.am  127  TYR127     -0.1976
    122  CA         5.0840    0.2010   -2.7230 C.3   127  TYR127      0.1639
    123  C          4.7700    1.4580   -1.9040 C.2   127  TYR127      0.2290
    124  O          5.1050    1.4800   -0.7150 O.2   127  TYR127     -0.2864
    125  CB         6.4890    0.3180   -3.3010 C.3   127  TYR127      0.0560
    126  CG         6.9580   -0.8400   -4.1500 C.ar  127  TYR127     -0.0198
    127  CD1        6.4680   -2.1310   -3.9410 C.ar  127  TYR127     -0.0009
    128  CD2        7.8580   -0.6270   -5.2200 C.ar  127  TYR127     -0.0009
    129  CE1        6.8530   -3.1790   -4.7680 C.ar  127  TYR127      0.0417
    130  CE2        8.2480   -1.6640   -6.0540 C.ar  127  TYR127      0.0417
    131  CZ         7.7580   -2.9380   -5.8070 C.ar  127  TYR127      0.1957
    132  OH         8.1360   -3.9710   -6.6010 O.3   127  TYR127     -0.2866
    133  N          2.5060  -16.1770  -21.4020 N.3   163  HIS163     -0.1227
    134  CA         3.5640  -15.2150  -21.5960 C.3   163  HIS163      0.1737
    135  C          4.0780  -14.7850  -20.2280 C.2   163  HIS163      0.2438
    136  O          3.3070  -14.4450  -19.3300 O.2   163  HIS163     -0.2733
    137  CB         3.0590  -14.0450  -22.3730 C.3   163  HIS163      0.0758
    138  CG         4.1660  -13.1150  -22.7630 C.ar  163  HIS163      0.0818
    139  ND1        4.9060  -12.4470  -21.8450 N.ar  163  HIS163     -0.2268
    140  CD2        4.7110  -12.8110  -24.0080 C.ar  163  HIS163      0.1154
    141  CE1        5.8680  -11.7660  -22.4710 C.ar  163  HIS163      0.1986
    142  NE2        5.7390  -11.9820  -23.7950 N.ar  163  HIS163     -0.2212
    143  N          5.3790  -14.7320  -20.0550 N.am  164  PRO164     -0.2718
    144  CA         5.7780  -14.4710  -18.6610 C.3   164  PRO164      0.1535
    145  C          5.4210  -13.1130  -18.1270 C.2   164  PRO164      0.2598
    146  O          5.2600  -12.9810  -16.9350 O.2   164  PRO164     -0.2715
    147  CB         7.2810  -14.7170  -18.6350 C.3   164  PRO164      0.0310
    148  CG         7.7060  -14.7390  -20.0850 C.3   164  PRO164      0.0237
    149  CD         6.5020  -15.1120  -20.9220 C.3   164  PRO164      0.0939
    150  N          5.1870  -12.1400  -18.9950 N.am  165  ILE165     -0.1978
    151  CA         4.7450  -10.8190  -18.5320 C.3   165  ILE165      0.1596
    152  C          3.3190  -10.8500  -18.0660 C.2   165  ILE165      0.2287
    153  O          2.9480  -10.2210  -17.0450 O.2   165  ILE165     -0.2864
    154  CB         4.9600   -9.7130  -19.6080 C.3   165  ILE165      0.0276
    155  CG1        6.4440   -9.4500  -19.7050 C.3   165  ILE165      0.0022
    156  CG2        4.2970   -8.3940  -19.2390 C.3   165  ILE165      0.0022
    157  CD1        6.7940   -8.5170  -20.8600 C.3   165  ILE165      0.0001
    158  N          3.4180  -12.8220  -14.7220 N.3   168  GLY168     -0.1225
    159  CA         4.0460  -12.0240  -13.6400 C.3   168  GLY168      0.1811
    160  C          3.0760  -10.9400  -13.1950 C.2   168  GLY168      0.2280
    161  O          3.0920  -10.4550  -12.0650 O.2   168  GLY168     -0.2866
    162  N          0.7010  -12.6240  -11.0120 N.3   171  LEU171     -0.1231
    163  CA         1.2740  -12.8830   -9.7140 C.3   171  LEU171      0.1693
    164  C          1.2220  -11.6140   -8.8250 C.2   171  LEU171      0.2592
    165  O          0.6080  -11.6220   -7.7360 O.2   171  LEU171     -0.2718
    166  CB         2.6990  -13.3960   -9.8580 C.3   171  LEU171      0.0284
    167  CG         3.4650  -13.5920   -8.5390 C.3   171  LEU171      0.0019
    168  CD1        3.0930  -14.9060   -7.8560 C.3   171  LEU171      0.0001
    169  CD2        4.9740  -13.6280   -8.8180 C.3   171  LEU171      0.0001
    170  N          1.9050  -10.5530   -9.2700 N.am  172  ASN172     -0.1974
    171  CA         1.8850   -9.2880   -8.5590 C.3   172  ASN172      0.1688
    172  C          0.4940   -8.7730   -8.3070 C.2   172  ASN172      0.2292
    173  O          0.2060   -8.2500   -7.2560 O.2   172  ASN172     -0.2864
    174  CB         2.7670   -8.2390   -9.2470 C.3   172  ASN172      0.1181
    175  CG         4.2060   -8.6370   -9.1590 C.2   172  ASN172      0.2629
    176  OD1        4.4990   -9.8570   -8.9530 O.2   172  ASN172     -0.2716
    177  ND2        5.1300   -7.6620   -9.2590 N.am  172  ASN172     -0.0877
    178  N         -0.9310  -10.9110   -5.3630 N.3   175  VAL175     -0.1245
    179  CA        -0.3410  -10.4180   -4.1150 C.3   175  VAL175      0.1561
    180  C         -0.9120   -9.0310   -3.6750 C.2   175  VAL175      0.2260
    181  O         -1.1410   -8.7820   -2.5040 O.2   175  VAL175     -0.2867
    182  CB         1.1720  -10.4350   -4.1870 C.3   175  VAL175      0.0252
    183  CG1        1.8780   -9.6560   -3.0390 C.3   175  VAL175      0.0019
    184  CG2        1.6290  -11.8720   -4.1890 C.3   175  VAL175      0.0019
    185  N         -2.1740   -9.0400    0.1320 N.3   179  GLU179     -0.1196
    186  CA        -1.4500   -8.2150    1.0800 C.3   179  GLU179      0.1783
    187  C         -1.9550   -6.7780    1.1680 C.2   179  GLU179      0.2306
    188  O         -1.8530   -6.1750    2.2210 O.2   179  GLU179     -0.2863
    189  CB         0.0530   -8.1420    0.7600 C.2   179  GLU179      0.0071
    190  CG         0.8110   -9.4740    0.7980 C.2   179  GLU179      0.0834
    191  CD         2.3460   -9.3880    0.4990 C.2   179  GLU179      0.3877
    192  OE1        2.9820  -10.4840    0.5930 O.co2 179  GLU179     -0.2406
    193  OE2        2.9540   -8.2880    0.1720 O.co2 179  GLU179     -0.2406
    194  N          9.5500  -21.1380  -22.3920 N.3   207  TYR207     -0.1241
    195  CA         9.8140  -20.6670  -21.0630 C.3   207  TYR207      0.1605
    196  C         10.0190  -21.7130  -19.9780 C.2   207  TYR207      0.2264
    197  O          9.1180  -22.4410  -19.6030 O.2   207  TYR207     -0.2867
    198  CB         8.7950  -19.6120  -20.6520 C.3   207  TYR207      0.0534
    199  CG         8.7870  -18.4340  -21.6290 C.ar  207  TYR207     -0.0201
    200  CD1        9.8420  -17.5340  -21.6560 C.ar  207  TYR207     -0.0009
    201  CD2        7.7690  -18.3200  -22.5480 C.ar  207  TYR207     -0.0009
    202  CE1        9.8780  -16.5310  -22.6140 C.ar  207  TYR207      0.0417
    203  CE2        7.7900  -17.3290  -23.4960 C.ar  207  TYR207      0.0417
    204  CZ         8.8480  -16.4460  -23.5230 C.ar  207  TYR207      0.1957
    205  OH         8.8650  -15.4940  -24.5040 O.3   207  TYR207     -0.2866
    206  N         10.9370  -20.0870  -17.8190 N.3   209  ASP209     -0.1239
    207  CA        10.5560  -18.9220  -17.0290 C.3   209  ASP209      0.1674
    208  C          9.0490  -18.8830  -16.7980 C.2   209  ASP209      0.2266
    209  O          8.5870  -18.5510  -15.7060 O.2   209  ASP209     -0.2867
    210  CB        11.0170  -17.6350  -17.7140 C.3   209  ASP209      0.1410
    211  CG        12.5250  -17.4870  -17.7220 C.2   209  ASP209      0.3668
    212  OD1       13.1720  -17.9310  -16.7500 O.co2 209  ASP209     -0.2456
    213  OD2       13.0650  -16.9260  -18.6990 O.co2 209  ASP209     -0.2456
    214  N          8.1960  -21.0310  -13.9940 N.3   212  LEU212     -0.1231
    215  CA         8.6090  -20.4780  -12.7090 C.3   212  LEU212      0.1693
    216  C          7.5250  -19.5890  -12.1060 C.2   212  LEU212      0.2591
    217  O          7.2770  -19.6290  -10.9010 O.2   212  LEU212     -0.2718
    218  CB         9.9120  -19.6890  -12.8600 C.3   212  LEU212      0.0284
    219  CG        11.1690  -20.3400  -12.2790 C.3   212  LEU212      0.0019
    220  CD1       11.2750  -21.7920  -12.7180 C.3   212  LEU212      0.0001
    221  CD2       12.4120  -19.5610  -12.6810 C.3   212  LEU212      0.0001
    222  N          6.8830  -18.7860  -12.9490 N.am  213  ILE213     -0.1980
    223  CA         5.8370  -17.8780  -12.4940 C.3   213  ILE213      0.1595
    224  C          4.6430  -18.7360  -12.0930 C.2   213  ILE213      0.2287
    225  O          3.9430  -18.4310  -11.1270 O.2   213  ILE213     -0.2864
    226  CB         5.4080  -16.8990  -13.6010 C.3   213  ILE213      0.0276
    227  CG1        6.5660  -15.9690  -13.9700 C.3   213  ILE213      0.0022
    228  CG2        4.1930  -16.0960  -13.1600 C.3   213  ILE213      0.0022
    229  CD1        6.2970  -15.1140  -15.1890 C.3   213  ILE213      0.0001
    230  N          5.1840  -20.1920   -8.6890 N.3   216  LEU216     -0.1245
    231  CA         4.9770  -19.1290   -7.6790 C.3   216  LEU216      0.1561
    232  C          3.5110  -18.8860   -7.5020 C.2   216  LEU216      0.2260
    233  O          3.0220  -18.6900   -6.3820 O.2   216  LEU216     -0.2867
    234  CB         5.6770  -17.8110   -8.0300 C.3   216  LEU216      0.0270
    235  CG         7.2080  -17.9340   -8.1550 C.3   216  LEU216      0.0019
    236  CD1        7.7290  -16.6870   -8.8580 C.3   216  LEU216      0.0001
    237  CD2        8.0130  -18.2410   -6.8780 C.3   216  LEU216      0.0001
    238  N          1.5540  -19.6860   -3.7930 N.3   220  ASN220     -0.1240
    239  CA         0.6950  -18.7260   -3.1200 C.3   220  ASN220      0.1653
    240  C         -0.6760  -19.2630   -2.8370 C.2   220  ASN220      0.2266
    241  O         -1.2700  -18.9470   -1.7850 O.2   220  ASN220     -0.2867
    242  CB         0.5540  -17.4090   -3.8970 C.3   220  ASN220      0.1155
    243  CG         1.7810  -16.5340   -3.7850 C.2   220  ASN220      0.2627
    244  OD1        2.0340  -15.7130   -4.6370 O.2   220  ASN220     -0.2716
    245  ND2        2.5280  -16.6960   -2.7500 N.am  220  ASN220     -0.0877
@<TRIPOS>BOND
     1    69    67   ar
     2    61    62    1
     3    65    62    1
     4    65    66    1
     5    67    68   ar
     6    67    66    1
     7   205   204    1
     8    62    63    1
     9   140   142   ar
    10   140   138   ar
    11   142   141   ar
    12   204   203   ar
    13   204   202   ar
    14   203   201   ar
    15    63    64    2
    16   138   137    1
    17   138   139   ar
    18   202   200   ar
    19   201   199   ar
    20    10     9    1
    21   141   139   ar
    22   194   195    1
    23   137   134    1
    24    11     9    1
    25     9     8    2
    26   200   199   ar
    27   199   198    1
    28   134   133    1
    29   134   135    1
    30     1     2    1
    31     8     7    1
    32     5     2    1
    33     5     6    1
    34     7     6    1
    35   195   198    1
    36   195   196    1
    37   149   148    1
    38   149   143    1
    39   157   155    1
    40    19    17   am
    41     2     3    1
    42   135   143   am
    43   135   136    2
    44    18    17    2
    45    17    16    1
    46   148   147    1
    47   143   144    1
    48   196   197    2
    49    12     3   am
    50    12    13    1
    51   155   154    1
    52   154   156    1
    53   154   151    1
    54    70    71    1
    55    74    71    1
    56    74    75    1
    57     3     4    2
    58    16    13    1
    59   150   151    1
    60   150   145   am
    61    13    14    1
    62   213   211   ar
    63   144   147    1
    64   144   145    1
    65    71    72    1
    66    75    76   ar
    67    75    77   ar
    68   151   152    1
    69    76    78   ar
    70   145   146    2
    71   152   153    2
    72    77    79   ar
    73    14    15    2
    74    72    73    2
    75   206   207    1
    76   211   210    1
    77   211   212   ar
    78   210   207    1
    79    78    80   ar
    80    79    80   ar
    81   207   208    1
    82   208   209    2
    83    25    24    1
    84    81    82    1
    85    20    21    1
    86   229   227    1
    87    24    21    1
    88   158   159    1
    89    85    82    1
    90    85    86    1
    91    32    30    1
    92    21    22    1
    93    82    83    1
    94   214   215    1
    95    87    86    1
    96    87    88    1
    97   227   226    1
    98    26    22   am
    99    26    27    1
   100   159   160    1
   101   226   228    1
   102   226   223    1
   103    30    27    1
   104    30    31    1
   105    83    84    2
   106    22    23    2
   107   160   161    2
   108   222   223    1
   109   222   216   am
   110    88    89    1
   111   218   215    1
   112   218   219    1
   113    27    28    1
   114   220   219    1
   115   215   216    1
   116   221   219    1
   117   223   224    1
   118   216   217    2
   119   224   225    2
   120    28    29    2
   121   162   163    1
   122    97    95   ar
   123   166   163    1
   124   166   167    1
   125   106   104   ar
   126   106   108   ar
   127   163   164    1
   128   104   103   ar
   129    95    96   ar
   130    95    94    1
   131    90    91    1
   132    37    34    1
   133    37    38    1
   134    33    34    1
   135   170   164   am
   136   170   171    1
   137   177   175   am
   138   174   175    1
   139   174   171    1
   140   109   108    1
   141   175   176    2
   142   108   107   ar
   143    94    91    1
   144    39    38    1
   145    39    40    1
   146   236   235    1
   147    48    47    2
   148   164   165    2
   149   169   167    1
   150   103   102    1
   151   103   105   ar
   152   230   231    1
   153   171   172    1
   154    34    35    1
   155   167   168    1
   156   102    99    1
   157    91    92    1
   158    41    40    1
   159   172   173    2
   160    98    92   am
   161    98    99    1
   162   235   234    1
   163   235   237    1
   164   107   105   ar
   165   234   231    1
   166    42    35   am
   167    42    43    1
   168    47    46    1
   169    47    49   am
   170   231   232    1
   171    92    93    2
   172    99   100    1
   173   232   233    2
   174    35    36    2
   175    46    43    1
   176   100   101    2
   177    43    44    1
   178   132   131    1
   179   120   118    1
   180   130   131   ar
   181   130   128   ar
   182   131   129   ar
   183    44    45    2
   184   118   117    2
   185   118   119    1
   186   178   179    1
   187   117   116    1
   188   110   111    1
   189   128   126   ar
   190   129   127   ar
   191   114   111    1
   192   114   115    1
   193   244   243    2
   194   111   112    1
   195   184   182    1
   196   182   179    1
   197   182   183    1
   198   126   127   ar
   199   126   125    1
   200   179   180    1
   201   116   115    1
   202   242   243    1
   203   242   239    1
   204   238   239    1
   205   243   245   am
   206   121   112   am
   207   121   122    1
   208   180   181    2
   209   125   122    1
   210   112   113    2
   211   239   240    1
   212   240   241    2
   213   122   123    1
   214    59    58    1
   215   123   124    2
   216    58    60    1
   217    58    57    2
   218    56    57    1
   219    56    55    1
   220    55    54    1
   221   185   186    1
   222   193   191   ar
   223    54    51    1
   224   191   192   ar
   225   191   190    1
   226    50    51    1
   227   189   190    2
   228   189   186    1
   229   186   187    1
   230   187   188    2
   231    51    52    1
   232    52    53    2
