@<TRIPOS>MOLECULE
tmp/4n86B00.pdb
 86 78 0 0 0
SMALL
GASTEIGER

@<TRIPOS>ATOM
      1  N        -19.1280   11.0810  -32.8680 N.3     4  MET4       -0.1245
      2  CA       -20.3450   10.2850  -32.9670 C.3     4  MET4        0.1570
      3  C        -20.8740    9.9130  -31.5800 C.2     4  MET4        0.2261
      4  O        -20.1010    9.7180  -30.6390 O.2     4  MET4       -0.2867
      5  CB       -20.1010    9.0310  -33.8150 C.3     4  MET4        0.0387
      6  CG       -21.3700    8.4110  -34.3880 C.3     4  MET4        0.0595
      7  SD       -21.9100    6.9130  -33.5320 S.3     4  MET4       -0.1393
      8  CE       -20.6440    5.7510  -34.0430 C.3     4  MET4        0.0692
      9  N        -23.5910    7.2460  -29.5710 N.3     6  LYS6       -0.1245
     10  CA       -24.4480    6.0640  -29.6350 C.3     6  LYS6        0.1561
     11  C        -25.0520    5.7800  -28.2630 C.2     6  LYS6        0.2260
     12  O        -24.3360    5.7350  -27.2590 O.2     6  LYS6       -0.2867
     13  CB       -23.6770    4.8400  -30.1440 C.3     6  LYS6        0.0271
     14  CG       -24.4630    3.5360  -30.0330 C.3     6  LYS6        0.0035
     15  CD       -24.2260    2.6250  -31.2310 C.3     6  LYS6        0.0206
     16  CE       -25.3320    1.5810  -31.3480 C.3     6  LYS6        0.1093
     17  NZ       -25.2920    0.8480  -32.6480 N.3     6  LYS6       -0.1314
     18  N        -27.7230    3.3600  -25.8750 N.3     8  LEU8       -0.1245
     19  CA       -28.4510    2.1030  -25.7250 C.3     8  LEU8        0.1561
     20  C        -29.4010    2.1280  -24.5230 C.2     8  LEU8        0.2260
     21  O        -29.2220    2.9150  -23.5870 O.2     8  LEU8       -0.2867
     22  CB       -27.4830    0.9200  -25.6220 C.3     8  LEU8        0.0270
     23  CG       -26.5220    0.7240  -26.7960 C.3     8  LEU8        0.0019
     24  CD1      -25.7260   -0.5590  -26.6400 C.3     8  LEU8        0.0001
     25  CD2      -27.2690    0.7280  -28.1130 C.3     8  LEU8        0.0001
     26  N        -27.9240    5.8060  -33.0400 N.3    45  GLU45      -0.1245
     27  CA       -26.7150    6.5490  -33.3770 C.3    45  GLU45       0.1567
     28  C        -27.0290    7.9730  -33.8170 C.2    45  GLU45       0.2260
     29  O        -28.1070    8.2490  -34.3490 O.2    45  GLU45      -0.2867
     30  CB       -25.9460    5.8430  -34.4980 C.3    45  GLU45       0.0388
     31  CG       -25.4200    4.4660  -34.1480 C.3    45  GLU45       0.1160
     32  CD       -24.9130    3.7220  -35.3640 C.2    45  GLU45       0.3649
     33  OE1      -25.7500    3.2320  -36.1500 O.co2  45  GLU45      -0.2457
     34  OE2      -23.6800    3.6290  -35.5370 O.co2  45  GLU45      -0.2457
     35  N        -16.0820    8.5890  -30.3850 N.3    97  THR97      -0.1218
     36  CA       -17.3830    7.9610  -30.2130 C.3    97  THR97       0.1862
     37  C        -17.7470    7.9610  -28.7350 C.2    97  THR97       0.2287
     38  O        -17.0580    7.3510  -27.9090 O.2    97  THR97      -0.2866
     39  CB       -17.4200    6.5190  -30.7590 C.3    97  THR97       0.1770
     40  OG1      -17.1360    6.5280  -32.1650 O.3    97  THR97      -0.2211
     41  CG2      -18.7980    5.9030  -30.5390 C.3    97  THR97       0.0375
     42  N        -20.2270    6.5730  -26.2390 N.3    99  ALA99      -0.1231
     43  CA       -21.2380    5.5380  -26.0540 C.3    99  ALA99       0.1694
     44  C        -21.8850    5.6910  -24.6860 C.2    99  ALA99       0.2592
     45  O        -21.1950    5.9100  -23.6920 O.2    99  ALA99      -0.2718
     46  CB       -20.6210    4.1550  -26.1930 C.3    99  ALA99       0.0304
     47  N        -23.2080    5.5720  -24.6350 N.am  100  ALA100     -0.1966
     48  CA       -23.9300    5.6800  -23.3730 C.3   100  ALA100      0.1728
     49  C        -24.9400    4.5510  -23.2200 C.2   100  ALA100      0.2616
     50  O        -25.6750    4.2360  -24.1610 O.2   100  ALA100     -0.2715
     51  CB       -24.6240    7.0310  -23.2680 C.3   100  ALA100      0.0334
     52  N        -24.9650    3.9400  -22.0380 N.am  101  LEU101     -0.1977
     53  CA       -25.9720    2.9320  -21.7120 C.3   101  LEU101      0.1596
     54  C        -26.9080    3.5040  -20.6600 C.2   101  LEU101      0.2287
     55  O        -26.4530    3.9560  -19.6080 O.2   101  LEU101     -0.2864
     56  CB       -25.3220    1.6600  -21.1670 C.3   101  LEU101      0.0297
     57  CG       -26.3120    0.5530  -20.7860 C.3   101  LEU101      0.0022
     58  CD1      -26.9280   -0.0700  -22.0300 C.3   101  LEU101      0.0001
     59  CD2      -25.6690   -0.5140  -19.9040 C.3   101  LEU101      0.0001
     60  N        -24.0830    4.7160  -17.8200 N.3   108  SER108     -0.1202
     61  CA       -22.6550    4.5370  -17.9890 C.3   108  SER108      0.2020
     62  C        -22.2630    5.1410  -19.3230 C.2   108  SER108      0.2619
     63  O        -23.0440    5.1260  -20.2820 O.2   108  SER108     -0.2717
     64  CB       -22.2860    3.0570  -17.9530 C.3   108  SER108      0.2103
     65  OG       -22.9420    2.3490  -18.9860 O.3   108  SER108     -0.2182
     66  N        -21.0630    5.6950  -19.3830 N.am  109  THR109     -0.1938
     67  CA       -20.5600    6.2170  -20.6400 C.3   109  THR109      0.2028
     68  C        -19.0920    5.8690  -20.7960 C.2   109  THR109      0.2642
     69  O        -18.3480    5.8200  -19.8160 O.2   109  THR109     -0.2714
     70  CB       -20.7750    7.7420  -20.7650 C.3   109  THR109      0.1808
     71  OG1      -20.2760    8.1950  -22.0290 O.3   109  THR109     -0.2208
     72  CG2      -20.0660    8.4900  -19.6440 C.3   109  THR109      0.0379
     73  N        -18.6860    5.6010  -22.0300 N.am  110  THR110     -0.1950
     74  CA       -17.2850    5.3570  -22.3220 C.3   110  THR110      0.1897
     75  C        -16.9430    6.0530  -23.6260 C.2   110  THR110      0.2313
     76  O        -17.8320    6.3720  -24.4170 O.2   110  THR110     -0.2863
     77  CB       -16.9680    3.8480  -22.4180 C.3   110  THR110      0.1794
     78  OG1      -15.5490    3.6500  -22.4960 O.3   110  THR110     -0.2208
     79  CG2      -17.6260    3.2370  -23.6420 C.3   110  THR110      0.0378
     80  N        -14.6280    5.9170  -27.1780 N.3   112  VAL112     -0.1245
     81  CA       -13.7780    5.1720  -28.0950 C.3   112  VAL112      0.1561
     82  C        -13.0600    6.1790  -28.9840 C.2   112  VAL112      0.2260
     83  O        -13.6840    6.8270  -29.8290 O.2   112  VAL112     -0.2867
     84  CB       -14.5930    4.1960  -28.9640 C.3   112  VAL112      0.0252
     85  CG1      -13.6670    3.2410  -29.7110 C.3   112  VAL112      0.0019
     86  CG2      -15.5600    3.4130  -28.1040 C.3   112  VAL112      0.0019
@<TRIPOS>BOND
     1    33    32   ar
     2    34    32   ar
     3    32    31    1
     4    30    31    1
     5    30    27    1
     6     6     5    1
     7     6     7    1
     8    29    28    2
     9     8     7    1
    10    28    27    1
    11     5     2    1
    12    27    26    1
    13     2     1    1
    14     2     3    1
    15    17    16    1
    16    40    39    1
    17     3     4    2
    18    16    15    1
    19    15    14    1
    20    39    41    1
    21    39    36    1
    22    35    36    1
    23    36    37    1
    24    13    14    1
    25    13    10    1
    26    83    82    2
    27    85    84    1
    28    10     9    1
    29    10    11    1
    30    82    81    1
    31    84    86    1
    32    84    81    1
    33    37    38    2
    34    11    12    2
    35    25    23    1
    36    81    80    1
    37    23    24    1
    38    23    22    1
    39    42    43    1
    40    46    43    1
    41    43    44    1
    42    18    19    1
    43    19    22    1
    44    19    20    1
    45    44    47   am
    46    44    45    2
    47    47    48    1
    48    20    21    2
    49    76    75    2
    50    50    49    2
    51    79    77    1
    52    75    74    1
    53    48    51    1
    54    48    49    1
    55    49    52   am
    56    78    77    1
    57    77    74    1
    58    74    73    1
    59    52    53    1
    60    58    57    1
    61    73    68   am
    62    71    70    1
    63    53    56    1
    64    53    54    1
    65    56    57    1
    66    68    67    1
    67    68    69    2
    68    57    59    1
    69    70    67    1
    70    70    72    1
    71    54    55    2
    72    67    66    1
    73    63    62    2
    74    66    62   am
    75    62    61    1
    76    65    64    1
    77    61    64    1
    78    61    60    1
