@<TRIPOS>MOLECULE
tmp/4n8dB05.pdb
 154 149 0 0 0
SMALL
GASTEIGER

@<TRIPOS>ATOM
      1  N         36.5170   63.2970   77.4380 N.3    86  ARG86      -0.1245
      2  CA        36.1180   64.7060   77.5180 C.3    86  ARG86       0.1563
      3  C         37.2960   65.6790   77.3480 C.2    86  ARG86       0.2260
      4  O         37.1590   66.7340   76.6950 O.2    86  ARG86      -0.2867
      5  CB        35.3740   64.9710   78.8360 C.3    86  ARG86       0.0307
      6  CG        34.7790   66.3950   78.8940 C.3    86  ARG86       0.0489
      7  CD        34.1860   66.6750   80.2770 C.3    86  ARG86       0.2205
      8  NE        33.1190   65.7360   80.6550 N.pl3  86  ARG86      -0.0865
      9  CZ        31.8270   65.9150   80.3920 C.cat  86  ARG86       0.5346
     10  NH1       31.4220   66.9810   79.6980 N.pl3  86  ARG86       0.1354
     11  NH2       30.9270   65.0250   80.8090 N.pl3  86  ARG86       0.1354
     12  N         37.5630   62.1130   84.1380 N.3   166  GLU166     -0.1231
     13  CA        36.2210   62.6700   84.1460 C.3   166  GLU166      0.1699
     14  C         35.7880   63.2540   85.4760 C.2   166  GLU166      0.2592
     15  O         35.1340   64.3210   85.5120 O.2   166  GLU166     -0.2718
     16  CB        35.2280   61.5540   83.7360 C.3   166  GLU166      0.0402
     17  CG        33.7430   61.9540   83.7950 C.3   166  GLU166      0.1161
     18  CD        33.2540   62.9670   82.7650 C.2   166  GLU166      0.3649
     19  OE1       34.0230   63.3440   81.8450 O.co2 166  GLU166     -0.2457
     20  OE2       32.0750   63.3760   82.8840 O.co2 166  GLU166     -0.2457
     21  N         36.1300   62.5510   86.5650 N.am  167  GLU167     -0.1979
     22  CA        35.5510   62.8210   87.8680 C.3   167  GLU167      0.1602
     23  C         36.4310   63.4580   88.9120 C.2   167  GLU167      0.2287
     24  O         35.8850   63.9380   89.9360 O.2   167  GLU167     -0.2864
     25  CB        34.9790   61.5150   88.4620 C.3   167  GLU167      0.0415
     26  CG        33.9770   60.7800   87.5590 C.3   167  GLU167      0.1163
     27  CD        32.6880   61.5100   87.1980 C.2   167  GLU167      0.3649
     28  OE1       32.5100   62.6920   87.5740 O.co2 167  GLU167     -0.2457
     29  OE2       31.8380   60.8760   86.5290 O.co2 167  GLU167     -0.2457
     30  N         39.3660   66.5120   86.0270 N.3   170  SER170     -0.1217
     31  CA        38.7790   67.2020   84.8640 C.3   170  SER170      0.1889
     32  C         39.8970   67.5710   83.8680 C.2   170  SER170      0.2288
     33  O         39.9410   68.6810   83.3240 O.2   170  SER170     -0.2866
     34  CB        37.9980   68.4470   85.2920 C.3   170  SER170      0.2089
     35  OG        36.8960   68.0690   86.0960 O.3   170  SER170     -0.2183
     36  N         32.3820   71.0020   96.5930 N.3   317  ARG317     -0.1231
     37  CA        31.2180   71.0490   95.6960 C.3   317  ARG317      0.1694
     38  C         31.1900   69.7460   94.8890 C.2   317  ARG317      0.2592
     39  O         30.1810   69.0320   94.9060 O.2   317  ARG317     -0.2718
     40  CB        31.2710   72.2780   94.7910 C.3   317  ARG317      0.0321
     41  CG        30.8950   73.5230   95.5760 C.3   317  ARG317      0.0489
     42  CD        30.7960   74.7570   94.7070 C.3   317  ARG317      0.2205
     43  NE        30.2560   75.8880   95.4690 N.pl3 317  ARG317     -0.0865
     44  CZ        30.9390   76.9940   95.7560 C.cat 317  ARG317      0.5346
     45  NH1       32.2010   77.1270   95.3590 N.pl3 317  ARG317      0.1354
     46  NH2       30.3650   77.9750   96.4400 N.pl3 317  ARG317      0.1354
     47  N         32.3110   69.4160   94.2370 N.am  318  PHE318     -0.1962
     48  CA        32.5070   68.1520   93.5180 C.3   318  PHE318      0.1771
     49  C         33.7220   67.4400   94.0920 C.2   318  PHE318      0.2619
     50  O         33.8190   66.2270   94.0310 O.2   318  PHE318     -0.2715
     51  CB        32.6760   68.3650   92.0120 C.3   318  PHE318      0.0574
     52  CG        31.4160   68.8650   91.3540 C.ar  318  PHE318     -0.0200
     53  CD1       30.4690   67.9670   90.8590 C.ar  318  PHE318     -0.0042
     54  CD2       31.1540   70.2300   91.2610 C.ar  318  PHE318     -0.0042
     55  CE1       29.2900   68.4280   90.2590 C.ar  318  PHE318     -0.0003
     56  CE2       29.9780   70.6930   90.6470 C.ar  318  PHE318     -0.0003
     57  CZ        29.0530   69.7880   90.1550 C.ar  318  PHE318     -0.0000
     58  N         34.6360   68.2010   94.6970 N.am  319  ARG319     -0.1977
     59  CA        35.8410   67.6490   95.3170 C.3   319  ARG319      0.1597
     60  C         36.3950   68.7100   96.2760 C.2   319  ARG319      0.2287
     61  O         36.0350   69.8840   96.1380 O.2   319  ARG319     -0.2864
     62  CB        36.9040   67.3370   94.2450 C.3   319  ARG319      0.0334
     63  CG        37.3140   68.5410   93.3910 C.3   319  ARG319      0.0492
     64  CD        37.7990   68.1150   92.0140 C.3   319  ARG319      0.2205
     65  NE        36.7630   67.3630   91.2870 N.pl3 319  ARG319     -0.0865
     66  CZ        36.4130   67.5750   90.0230 C.cat 319  ARG319      0.5346
     67  NH1       37.0470   68.4860   89.2930 N.pl3 319  ARG319      0.1354
     68  NH2       35.4570   66.8440   89.4630 N.pl3 319  ARG319      0.1354
     69  N         18.4940   69.8520   84.5300 N.3   508  TYR508     -0.1241
     70  CA        19.7890   69.2090   84.8230 C.3   508  TYR508      0.1605
     71  C         19.5160   68.5680   86.2010 C.2   508  TYR508      0.2264
     72  O         19.2800   67.3530   86.2860 O.2   508  TYR508     -0.2867
     73  CB        20.9630   70.2210   84.8310 C.3   508  TYR508      0.0534
     74  CG        22.3220   69.7980   85.4040 C.ar  508  TYR508     -0.0201
     75  CD1       22.5530   68.4960   85.8260 C.ar  508  TYR508     -0.0009
     76  CD2       23.3560   70.7240   85.5540 C.ar  508  TYR508     -0.0009
     77  CE1       23.7920   68.1030   86.3290 C.ar  508  TYR508      0.0417
     78  CE2       24.6030   70.3430   86.0610 C.ar  508  TYR508      0.0417
     79  CZ        24.8030   69.0370   86.4790 C.ar  508  TYR508      0.1957
     80  OH        26.0140   68.6320   86.9940 O.3   508  TYR508     -0.2866
     81  N         21.8960   63.6380   80.1560 N.3   591  SER591     -0.1202
     82  CA        22.7800   63.1260   81.2280 C.3   591  SER591      0.2020
     83  C         22.0040   63.0190   82.5580 C.2   591  SER591      0.2618
     84  O         20.9630   62.3540   82.5790 O.2   591  SER591     -0.2717
     85  CB        24.0360   64.0100   81.3980 C.3   591  SER591      0.2103
     86  OG        24.5660   64.4980   80.1730 O.3   591  SER591     -0.2182
     87  N         22.4660   63.6970   83.6510 N.am  592  TYR592     -0.1975
     88  CA        21.6680   63.6720   84.8800 C.3   592  TYR592      0.1639
     89  C         20.2540   64.2090   84.5960 C.2   592  TYR592      0.2290
     90  O         19.2690   63.7040   85.1400 O.2   592  TYR592     -0.2864
     91  CB        22.3460   64.5250   85.9830 C.3   592  TYR592      0.0560
     92  CG        21.8710   64.1620   87.3710 C.ar  592  TYR592     -0.0198
     93  CD1       20.6150   64.5560   87.8270 C.ar  592  TYR592     -0.0009
     94  CD2       22.6670   63.4020   88.2240 C.ar  592  TYR592     -0.0009
     95  CE1       20.1540   64.1790   89.0910 C.ar  592  TYR592      0.0417
     96  CE2       22.2330   63.0520   89.4980 C.ar  592  TYR592      0.0417
     97  CZ        20.9620   63.4100   89.9120 C.ar  592  TYR592      0.1957
     98  OH        20.5290   63.0800   91.1650 O.3   592  TYR592     -0.2866
     99  N         21.1900   58.5780   82.6700 N.3   617  VAL617     -0.1245
    100  CA        21.4860   57.5270   83.6350 C.3   617  VAL617      0.1561
    101  C         20.1010   56.8700   83.9010 C.2   617  VAL617      0.2260
    102  O         19.0680   57.5690   83.9540 O.2   617  VAL617     -0.2867
    103  CB        22.0580   58.1260   84.9390 C.3   617  VAL617      0.0252
    104  CG1       22.0080   57.1120   86.0970 C.3   617  VAL617      0.0019
    105  CG2       23.5100   58.6030   84.7000 C.3   617  VAL617      0.0019
    106  N         26.5590   53.6080   86.6530 N.3   623  TYR623     -0.1241
    107  CA        27.4110   54.7840   86.4940 C.3   623  TYR623      0.1605
    108  C         28.7370   54.6350   87.2650 C.2   623  TYR623      0.2264
    109  O         28.8960   53.6720   88.0210 O.2   623  TYR623     -0.2867
    110  CB        26.6420   56.0870   86.8370 C.3   623  TYR623      0.0534
    111  CG        27.2890   57.2870   86.1890 C.ar  623  TYR623     -0.0201
    112  CD1       27.4970   57.3300   84.8090 C.ar  623  TYR623     -0.0009
    113  CD2       27.7710   58.3450   86.9590 C.ar  623  TYR623     -0.0009
    114  CE1       28.1690   58.3900   84.2120 C.ar  623  TYR623      0.0417
    115  CE2       28.4380   59.4220   86.3710 C.ar  623  TYR623      0.0417
    116  CZ        28.6320   59.4360   84.9970 C.ar  623  TYR623      0.1957
    117  OH        29.3030   60.4640   84.4100 O.3   623  TYR623     -0.2866
    118  N         31.7780   59.4850   90.8880 N.3   627  TYR627     -0.1241
    119  CA        30.6330   60.3970   90.9440 C.3   627  TYR627      0.1605
    120  C         29.5020   59.7490   91.7380 C.2   627  TYR627      0.2264
    121  O         28.9630   60.3670   92.6650 O.2   627  TYR627     -0.2867
    122  CB        30.1470   60.6840   89.5050 C.3   627  TYR627      0.0534
    123  CG        28.9820   61.6400   89.4490 C.ar  627  TYR627     -0.0201
    124  CD1       27.6650   61.1700   89.4840 C.ar  627  TYR627     -0.0009
    125  CD2       29.1870   63.0130   89.3050 C.ar  627  TYR627     -0.0009
    126  CE1       26.5820   62.0500   89.4220 C.ar  627  TYR627      0.0417
    127  CE2       28.1130   63.9030   89.2630 C.ar  627  TYR627      0.0417
    128  CZ        26.8120   63.4100   89.2840 C.ar  627  TYR627      0.1957
    129  OH        25.7550   64.2820   89.1980 O.3   627  TYR627     -0.2866
    130  N         30.7300   57.2980   78.6300 N.3   671  ASN671     -0.1225
    131  CA        30.4630   57.9610   79.8990 C.3   671  ASN671      0.1785
    132  C         29.1960   57.3780   80.5300 C.2   671  ASN671      0.2597
    133  O         29.2740   56.6340   81.5140 O.2   671  ASN671     -0.2718
    134  CB        30.3900   59.4750   79.6470 C.3   671  ASN671      0.1169
    135  CG        30.3510   60.2720   80.9200 C.2   671  ASN671      0.2627
    136  OD1       30.0110   59.7500   81.9690 O.2   671  ASN671     -0.2716
    137  ND2       30.7830   61.5290   80.8510 N.am  671  ASN671     -0.0877
    138  N         28.0310   57.7030   79.9400 N.am  672  VAL672     -0.1980
    139  CA        26.7720   57.0870   80.3600 C.3   672  VAL672      0.1595
    140  C         26.5910   56.0110   79.2880 C.2   672  VAL672      0.2287
    141  O         26.2800   56.3090   78.1370 O.2   672  VAL672     -0.2864
    142  CB        25.5870   58.0810   80.3770 C.3   672  VAL672      0.0276
    143  CG1       24.2920   57.3330   80.7070 C.3   672  VAL672      0.0022
    144  CG2       25.8320   59.2020   81.4070 C.3   672  VAL672      0.0022
    145  N         28.9540   60.8160   74.4980 N.3   701  HIS701     -0.1241
    146  CA        28.0370   61.5290   75.3870 C.3   701  HIS701      0.1621
    147  C         27.6470   62.9200   74.8750 C.2   701  HIS701      0.2264
    148  O         26.6050   63.4420   75.2650 O.2   701  HIS701     -0.2867
    149  CB        28.6280   61.5970   76.8040 C.3   701  HIS701      0.0745
    150  CG        27.5860   61.8400   77.8580 C.ar  701  HIS701      0.0817
    151  ND1       26.5020   60.9840   78.0180 N.ar  701  HIS701     -0.2268
    152  CD2       27.4820   62.8530   78.7550 C.ar  701  HIS701      0.1154
    153  CE1       25.7680   61.5060   78.9990 C.ar  701  HIS701      0.1986
    154  NE2       26.3340   62.6140   79.4900 N.ar  701  HIS701     -0.2212
@<TRIPOS>BOND
     1   145   146    1
     2   147   148    2
     3   147   146    1
     4   146   149    1
     5     4     3    2
     6   149   150    1
     7     3     2    1
     8     1     2    1
     9     2     5    1
    10   150   151   ar
    11   150   152   ar
    12   151   153   ar
    13   141   140    2
    14   130   131    1
    15   152   154   ar
    16     5     6    1
    17     6     7    1
    18   153   154   ar
    19   140   139    1
    20   134   131    1
    21   134   135    1
    22    10     9    1
    23   131   132    1
    24   138   139    1
    25   138   132   am
    26    81    82    1
    27    86    85    1
    28     7     8    1
    29   139   142    1
    30   142   143    1
    31   142   144    1
    32     9     8    2
    33     9    11    1
    34   132   133    2
    35   137   135   am
    36   135   136    2
    37    82    85    1
    38    82    83    1
    39    19    18   ar
    40    83    84    2
    41    83    87   am
    42    99   100    1
    43    18    20   ar
    44    18    17    1
    45    33    32    2
    46   100   101    1
    47   100   103    1
    48    87    88    1
    49    16    17    1
    50    16    13    1
    51    32    31    1
    52   101   102    2
    53    12    13    1
    54    13    14    1
    55   114   112   ar
    56   114   116   ar
    57   117   116    1
    58    69    70    1
    59    89    88    1
    60    89    90    2
    61   105   103    1
    62   112   111   ar
    63    70    73    1
    64    70    71    1
    65    73    74    1
    66    31    34    1
    67    31    30    1
    68    88    91    1
    69   103   104    1
    70   116   115   ar
    71    34    35    1
    72    74    76   ar
    73    74    75   ar
    74    14    15    2
    75    14    21   am
    76    76    78   ar
    77    75    77   ar
    78    91    92    1
    79    78    79   ar
    80   111   110    1
    81   111   113   ar
    82    71    72    2
    83    77    79   ar
    84   115   113   ar
    85    79    80    1
    86   107   106    1
    87   107   110    1
    88   107   108    1
    89    29    27   ar
    90    21    22    1
    91    27    26    1
    92    27    28   ar
    93   108   109    2
    94    92    93   ar
    95    92    94   ar
    96    26    25    1
    97    93    95   ar
    98    22    25    1
    99    22    23    1
   100    94    96   ar
   101    23    24    2
   102    95    97   ar
   103   129   128    1
   104   127   128   ar
   105   127   125   ar
   106   128   126   ar
   107    67    66    1
   108   125   123   ar
   109   126   124   ar
   110   123   124   ar
   111   123   122    1
   112    68    66    1
   113    96    97   ar
   114   122   119    1
   115    97    98    1
   116    66    65    2
   117    57    55   ar
   118    57    56   ar
   119    55    53   ar
   120    56    54   ar
   121    53    52   ar
   122   118   119    1
   123   119   120    1
   124    54    52   ar
   125    65    64    1
   126    52    51    1
   127   120   121    2
   128    51    48    1
   129    64    63    1
   130    63    62    1
   131    48    49    1
   132    48    47    1
   133    50    49    2
   134    49    58   am
   135    47    38   am
   136    62    59    1
   137    58    59    1
   138    42    43    1
   139    42    41    1
   140    40    41    1
   141    40    37    1
   142    38    39    2
   143    38    37    1
   144    59    60    1
   145    45    44    1
   146    43    44    2
   147    37    36    1
   148    44    46    1
   149    61    60    2
