@<TRIPOS>MOLECULE
tmp/4n8eA06.pdb
 164 159 0 0 0
SMALL
GASTEIGER

@<TRIPOS>ATOM
      1  N         19.0880   29.7840   65.0860 N.3    86  ARG86      -0.1245
      2  CA        17.8050   29.4310   64.4840 C.3    86  ARG86       0.1563
      3  C         17.3890   27.9660   64.7160 C.2    86  ARG86       0.2260
      4  O         16.2160   27.6950   64.9880 O.2    86  ARG86      -0.2867
      5  CB        17.7940   29.7900   62.9740 C.3    86  ARG86       0.0307
      6  CG        16.4160   29.7630   62.2930 C.3    86  ARG86       0.0489
      7  CD        16.5770   29.7790   60.7600 C.3    86  ARG86       0.2205
      8  NE        17.0430   31.0850   60.2650 N.pl3  86  ARG86      -0.0865
      9  CZ        16.2470   32.0890   59.9000 C.cat  86  ARG86       0.5346
     10  NH1       14.9280   31.9510   59.9420 N.pl3  86  ARG86       0.1354
     11  NH2       16.7640   33.2300   59.4700 N.pl3  86  ARG86       0.1354
     12  N         22.8480   27.9170   59.6050 N.3   166  GLU166     -0.1231
     13  CA        21.9870   28.8900   58.9340 C.3   166  GLU166      0.1699
     14  C         21.7900   28.6750   57.4320 C.2   166  GLU166      0.2592
     15  O         20.6570   28.7700   56.9500 O.2   166  GLU166     -0.2718
     16  CB        22.5060   30.3430   59.1910 C.3   166  GLU166      0.0402
     17  CG        21.7040   31.4800   58.5390 C.3   166  GLU166      0.1161
     18  CD        20.2660   31.7250   58.9780 C.2   166  GLU166      0.3649
     19  OE1       19.8040   31.0690   59.9410 O.co2 166  GLU166     -0.2457
     20  OE2       19.5790   32.5380   58.3200 O.co2 166  GLU166     -0.2457
     21  N         22.8930   28.4380   56.6940 N.am  167  GLU167     -0.1966
     22  CA        22.9100   28.4960   55.2390 C.3   167  GLU167      0.1733
     23  C         23.0640   27.2030   54.4830 C.2   167  GLU167      0.2616
     24  O         22.6630   27.1500   53.3110 O.2   167  GLU167     -0.2715
     25  CB        24.0180   29.4540   54.7730 C.3   167  GLU167      0.0429
     26  CG        24.0330   30.7930   55.4890 C.3   167  GLU167      0.1163
     27  CD        22.9240   31.7860   55.2040 C.2   167  GLU167      0.3649
     28  OE1       22.0440   31.5050   54.3660 O.co2 167  GLU167     -0.2457
     29  OE2       22.9170   32.8490   55.8610 O.co2 167  GLU167     -0.2457
     30  N         23.6650   26.1720   55.0980 N.am  168  VAL168     -0.1977
     31  CA        23.8980   24.9300   54.3850 C.3   168  VAL168      0.1596
     32  C         22.9230   23.8420   54.8070 C.2   168  VAL168      0.2287
     33  O         22.1220   23.4290   53.9810 O.2   168  VAL168     -0.2864
     34  CB        25.3750   24.4950   54.4690 C.3   168  VAL168      0.0276
     35  CG1       25.6070   23.2060   53.6870 C.3   168  VAL168      0.0022
     36  CG2       26.3090   25.5980   53.9630 C.3   168  VAL168      0.0022
     37  N         20.5550   23.9700   57.4010 N.3   170  SER170     -0.1217
     38  CA        19.3010   24.4080   58.0620 C.3   170  SER170      0.1889
     39  C         18.9880   23.5010   59.3060 C.2   170  SER170      0.2288
     40  O         17.8210   23.1660   59.5890 O.2   170  SER170     -0.2866
     41  CB        18.1500   24.4360   57.0530 C.3   170  SER170      0.2089
     42  OG        18.3970   25.4220   56.0620 O.3   170  SER170     -0.2183
     43  N         18.7900   26.9830   46.7950 N.3   318  PHE318     -0.1241
     44  CA        19.6130   27.5220   47.8740 C.3   318  PHE318      0.1605
     45  C         20.8610   26.6590   48.0300 C.2   318  PHE318      0.2264
     46  O         21.8280   27.1060   48.6300 O.2   318  PHE318     -0.2867
     47  CB        18.8240   27.5470   49.1870 C.3   318  PHE318      0.0534
     48  CG        17.7010   28.5350   49.1490 C.ar  318  PHE318     -0.0203
     49  CD1       17.9100   29.8620   49.5040 C.ar  318  PHE318     -0.0042
     50  CD2       16.4080   28.1290   48.8290 C.ar  318  PHE318     -0.0042
     51  CE1       16.8590   30.7730   49.5120 C.ar  318  PHE318     -0.0003
     52  CE2       15.3420   29.0530   48.8590 C.ar  318  PHE318     -0.0003
     53  CZ        15.5810   30.3630   49.2020 C.ar  318  PHE318     -0.0000
     54  N          9.7200   40.7490   50.4370 N.3   508  TYR508     -0.1241
     55  CA        10.8090   39.8180   50.7690 C.3   508  TYR508      0.1605
     56  C         11.7870   40.0510   49.5950 C.2   508  TYR508      0.2264
     57  O         12.8760   40.6090   49.8070 O.2   508  TYR508     -0.2867
     58  CB        10.3360   38.3460   50.8780 C.3   508  TYR508      0.0534
     59  CG        11.4100   37.2630   50.9930 C.ar  508  TYR508     -0.0201
     60  CD1       12.7690   37.5870   50.9750 C.ar  508  TYR508     -0.0009
     61  CD2       11.0630   35.9140   51.1360 C.ar  508  TYR508     -0.0009
     62  CE1       13.7480   36.6020   51.0370 C.ar  508  TYR508      0.0417
     63  CE2       12.0380   34.9160   51.1800 C.ar  508  TYR508      0.0417
     64  CZ        13.3800   35.2680   51.1250 C.ar  508  TYR508      0.1957
     65  OH        14.3720   34.3260   51.2030 O.3   508  TYR508     -0.2866
     66  N         14.4170   41.5160   57.1740 N.3   591  SER591     -0.1202
     67  CA        15.5500   40.7810   56.6020 C.3   591  SER591      0.2020
     68  C         15.9130   41.2240   55.1800 C.2   591  SER591      0.2618
     69  O         16.2720   42.3860   55.0090 O.2   591  SER591     -0.2717
     70  CB        15.3160   39.2790   56.6790 C.3   591  SER591      0.2103
     71  OG        14.7580   38.8580   57.9090 O.3   591  SER591     -0.2182
     72  N         15.8520   40.3270   54.1640 N.am  592  TYR592     -0.1975
     73  CA        16.1420   40.7500   52.7720 C.3   592  TYR592      0.1639
     74  C         15.1230   41.7830   52.3570 C.2   592  TYR592      0.2290
     75  O         15.4660   42.7150   51.6300 O.2   592  TYR592     -0.2864
     76  CB        16.1020   39.5850   51.7780 C.3   592  TYR592      0.0560
     77  CG        16.8400   39.8510   50.4860 C.ar  592  TYR592     -0.0198
     78  CD1       16.2480   40.5790   49.4570 C.ar  592  TYR592     -0.0009
     79  CD2       18.0980   39.3070   50.2520 C.ar  592  TYR592     -0.0009
     80  CE1       16.9190   40.8220   48.2610 C.ar  592  TYR592      0.0417
     81  CE2       18.7560   39.4970   49.0280 C.ar  592  TYR592      0.0417
     82  CZ        18.1720   40.2780   48.0470 C.ar  592  TYR592      0.1957
     83  OH        18.8140   40.4820   46.8430 O.3   592  TYR592     -0.2866
     84  N         19.4800   44.1980   55.7850 N.3   617  VAL617     -0.1245
     85  CA        20.8460   44.1430   55.3000 C.3   617  VAL617      0.1561
     86  C         20.9940   45.5640   54.6760 C.2   617  VAL617      0.2260
     87  O         20.0200   46.0890   54.1120 O.2   617  VAL617     -0.2867
     88  CB        21.0770   42.9810   54.2830 C.3   617  VAL617      0.0252
     89  CG1       22.2880   43.2300   53.3800 C.3   617  VAL617      0.0019
     90  CG2       21.2270   41.6390   55.0100 C.3   617  VAL617      0.0019
     91  N         26.3800   44.3330   51.4030 N.3   620  TRP620     -0.1241
     92  CA        26.5880   42.8970   51.3160 C.3   620  TRP620      0.1605
     93  C         27.9030   42.3930   51.9700 C.2   620  TRP620      0.2264
     94  O         27.9030   41.2830   52.4540 O.2   620  TRP620     -0.2867
     95  CB        26.3990   42.4220   49.8860 C.3   620  TRP620      0.0550
     96  CG        24.9380   42.4720   49.4980 C.ar  620  TRP620      0.0003
     97  CD1       24.3430   43.3320   48.6210 C.ar  620  TRP620      0.0946
     98  CD2       23.8860   41.6760   50.0550 C.ar  620  TRP620      0.0152
     99  NE1       22.9920   43.0810   48.5520 N.ar  620  TRP620     -0.2442
    100  CE2       22.6840   42.0740   49.4290 C.ar  620  TRP620      0.0810
    101  CE3       23.8510   40.6220   50.9930 C.ar  620  TRP620      0.0012
    102  CZ2       21.4570   41.5100   49.7600 C.ar  620  TRP620      0.0191
    103  CZ3       22.6380   40.0460   51.2870 C.ar  620  TRP620      0.0001
    104  CH2       21.4620   40.4850   50.6710 C.ar  620  TRP620      0.0015
    105  N         27.2550   40.8790   55.4700 N.3   623  TYR623     -0.1241
    106  CA        26.5070   39.6260   55.5770 C.3   623  TYR623      0.1605
    107  C         27.4090   38.3700   55.3880 C.2   623  TYR623      0.2264
    108  O         28.5430   38.5050   54.9070 O.2   623  TYR623     -0.2867
    109  CB        25.2500   39.6110   54.6650 C.3   623  TYR623      0.0534
    110  CG        24.1830   38.6800   55.1960 C.ar  623  TYR623     -0.0201
    111  CD1       23.7110   38.7980   56.5070 C.ar  623  TYR623     -0.0009
    112  CD2       23.6970   37.6350   54.4210 C.ar  623  TYR623     -0.0009
    113  CE1       22.7900   37.8870   57.0310 C.ar  623  TYR623      0.0417
    114  CE2       22.7490   36.7400   54.9210 C.ar  623  TYR623      0.0417
    115  CZ        22.3040   36.8650   56.2260 C.ar  623  TYR623      0.1957
    116  OH        21.3570   35.9880   56.6940 O.3   623  TYR623     -0.2866
    117  N         25.6850   32.7170   52.0280 N.3   627  TYR627     -0.1241
    118  CA        24.5110   33.2820   51.3810 C.3   627  TYR627      0.1605
    119  C         24.8910   34.3230   50.3370 C.2   627  TYR627      0.2264
    120  O         24.4690   34.1890   49.1970 O.2   627  TYR627     -0.2867
    121  CB        23.5430   33.8910   52.3910 C.3   627  TYR627      0.0534
    122  CG        22.2770   34.4240   51.7590 C.ar  627  TYR627     -0.0201
    123  CD1       21.1820   33.5950   51.5360 C.ar  627  TYR627     -0.0009
    124  CD2       22.1610   35.7630   51.4000 C.ar  627  TYR627     -0.0009
    125  CE1       20.0080   34.0820   50.9500 C.ar  627  TYR627      0.0417
    126  CE2       20.9880   36.2620   50.8210 C.ar  627  TYR627      0.0417
    127  CZ        19.9230   35.4110   50.5800 C.ar  627  TYR627      0.1957
    128  OH        18.7820   35.8770   49.9800 O.3   627  TYR627     -0.2866
    129  N         26.9280   33.2810   47.0890 N.3   630  ARG630     -0.1245
    130  CA        26.1220   32.4680   46.1900 C.3   630  ARG630      0.1563
    131  C         25.5760   33.2780   45.0270 C.2   630  ARG630      0.2260
    132  O         25.5270   32.7630   43.9060 O.2   630  ARG630     -0.2867
    133  CB        24.9560   31.8410   46.9650 C.3   630  ARG630      0.0307
    134  CG        24.2490   30.6980   46.2110 C.3   630  ARG630      0.0489
    135  CD        23.1100   30.1510   47.0240 C.3   630  ARG630      0.2205
    136  NE        23.5840   29.5600   48.2790 N.pl3 630  ARG630     -0.0865
    137  CZ        22.9880   29.6660   49.4650 C.cat 630  ARG630      0.5346
    138  NH1       21.8340   30.3290   49.5870 N.pl3 630  ARG630      0.1354
    139  NH2       23.5070   29.0690   50.5250 N.pl3 630  ARG630      0.1354
    140  N         22.5600   37.2910   63.2230 N.3   671  ASN671     -0.1225
    141  CA        22.3540   37.0200   61.8060 C.3   671  ASN671      0.1785
    142  C         22.6640   38.2360   60.9660 C.2   671  ASN671      0.2597
    143  O         23.6610   38.2350   60.2580 O.2   671  ASN671     -0.2718
    144  CB        20.9260   36.4970   61.5820 C.3   671  ASN671      0.1169
    145  CG        20.6840   35.7750   60.2740 C.2   671  ASN671      0.2627
    146  OD1       21.5190   35.7750   59.3600 O.2   671  ASN671     -0.2716
    147  ND2       19.5020   35.1530   60.1440 N.am  671  ASN671     -0.0877
    148  N         21.8210   39.2620   61.0430 N.am  672  VAL672     -0.1980
    149  CA        21.9700   40.5390   60.3640 C.3   672  VAL672      0.1595
    150  C         22.3840   41.4120   61.5520 C.2   672  VAL672      0.2287
    151  O         21.5770   41.7940   62.3850 O.2   672  VAL672     -0.2864
    152  CB        20.6540   40.9970   59.6690 C.3   672  VAL672      0.0276
    153  CG1       20.8320   42.3370   58.9850 C.3   672  VAL672      0.0022
    154  CG2       20.1530   39.9720   58.6750 C.3   672  VAL672      0.0022
    155  N         17.3810   38.3690   65.5810 N.3   701  HIS701     -0.1241
    156  CA        16.7810   38.5680   64.2590 C.3   701  HIS701      0.1621
    157  C         15.2740   38.3240   64.2110 C.2   701  HIS701      0.2264
    158  O         14.5800   38.8600   63.3450 O.2   701  HIS701     -0.2867
    159  CB        17.5080   37.7090   63.1960 C.3   701  HIS701      0.0745
    160  CG        17.2160   38.1380   61.8000 C.ar  701  HIS701      0.0817
    161  ND1       17.5800   39.3960   61.3360 N.ar  701  HIS701     -0.2268
    162  CD2       16.5440   37.4900   60.8270 C.ar  701  HIS701      0.1154
    163  CE1       17.1350   39.4580   60.0920 C.ar  701  HIS701      0.1986
    164  NE2       16.5230   38.3250   59.7430 N.ar  701  HIS701     -0.2212
@<TRIPOS>BOND
     1   132   131    2
     2   131   130    1
     3   130   133    1
     4   130   129    1
     5   134   133    1
     6   134   135    1
     7    43    44    1
     8    83    82    1
     9   135   136    1
    10    44    45    1
    11    44    47    1
    12    45    46    2
    13    82    80   ar
    14    82    81   ar
    15    80    78   ar
    16   136   137    2
    17    99    97   ar
    18    99   100   ar
    19    97    96   ar
    20    50    52   ar
    21    50    48   ar
    22    52    53   ar
    23    81    79   ar
    24    48    47    1
    25    48    49   ar
    26   120   119    2
    27    53    51   ar
    28   100   102   ar
    29   100    98   ar
    30    78    77   ar
    31   137   138    1
    32   137   139    1
    33    96    95    1
    34    96    98   ar
    35    49    51   ar
    36    56    57    2
    37    56    55    1
    38   102   104   ar
    39    95    92    1
    40   128   127    1
    41    98   101   ar
    42    79    77   ar
    43   119   118    1
    44    54    55    1
    45    77    76    1
    46   127   126   ar
    47   127   125   ar
    48   104   103   ar
    49    55    58    1
    50   126   124   ar
    51    58    59    1
    52   125   123   ar
    53    60    59   ar
    54    60    62   ar
    55   101   103   ar
    56    59    61   ar
    57    62    64   ar
    58    64    63   ar
    59    64    65    1
    60    61    63   ar
    61    92    91    1
    62    92    93    1
    63   118   117    1
    64   118   121    1
    65   124   122   ar
    66   123   122   ar
    67    75    74    2
    68   122   121    1
    69    76    73    1
    70    93    94    2
    71    74    73    1
    72    73    72    1
    73    24    23    2
    74    89    88    1
    75    35    34    1
    76    36    34    1
    77    33    32    2
    78    87    86    2
    79    72    68   am
    80    88    90    1
    81    88    85    1
    82    28    27   ar
    83    31    34    1
    84    31    32    1
    85    31    30    1
    86   112   114   ar
    87   112   110   ar
    88    23    30   am
    89    23    22    1
    90   109   110    1
    91   109   106    1
    92    86    85    1
    93    25    22    1
    94    25    26    1
    95   108   107    2
    96   114   115   ar
    97    69    68    2
    98    68    67    1
    99   110   111   ar
   100    27    26    1
   101    27    29   ar
   102    22    21    1
   103    85    84    1
   104   107   106    1
   105   105   106    1
   106    42    41    1
   107   115   116    1
   108   115   113   ar
   109   111   113   ar
   110    67    70    1
   111    67    66    1
   112    70    71    1
   113    21    14   am
   114    15    14    2
   115    41    38    1
   116    37    38    1
   117    14    13    1
   118    38    39    1
   119    20    18   ar
   120    17    18    1
   121    17    16    1
   122   154   152    1
   123    13    16    1
   124    13    12    1
   125    18    19   ar
   126   153   152    1
   127    39    40    2
   128   146   145    2
   129    11     9    1
   130   152   149    1
   131   164   163   ar
   132   164   162   ar
   133     9    10    1
   134     9     8    2
   135   163   161   ar
   136   147   145   am
   137   143   142    2
   138     8     7    1
   139   145   144    1
   140   149   148    1
   141   149   150    1
   142     7     6    1
   143   162   160   ar
   144   142   148   am
   145   142   141    1
   146   161   160   ar
   147   150   151    2
   148   144   141    1
   149   160   159    1
   150   141   140    1
   151     6     5    1
   152     5     2    1
   153   159   156    1
   154   158   157    2
   155   157   156    1
   156   156   155    1
   157     2     3    1
   158     2     1    1
   159     3     4    2
