@<TRIPOS>MOLECULE
tmp/4n8jD00.pdb
 225 216 0 0 0
SMALL
GASTEIGER

@<TRIPOS>ATOM
      1  N         80.4940  -20.1080   -9.0780 N.3    32  PHE32      -0.1241
      2  CA        81.1270  -19.2980  -10.1190 C.3    32  PHE32       0.1605
      3  C         81.3460  -17.8240   -9.7080 C.2    32  PHE32       0.2264
      4  O         82.2210  -17.5310   -8.9000 O.2    32  PHE32      -0.2867
      5  CB        80.3100  -19.4130  -11.4170 C.3    32  PHE32       0.0534
      6  CG        81.0540  -18.9670  -12.6270 C.ar   32  PHE32      -0.0203
      7  CD1       82.1680  -19.6890  -13.0680 C.ar   32  PHE32      -0.0042
      8  CD2       80.6740  -17.8350  -13.3160 C.ar   32  PHE32      -0.0042
      9  CE1       82.8970  -19.2740  -14.1720 C.ar   32  PHE32      -0.0003
     10  CE2       81.3910  -17.4040  -14.4260 C.ar   32  PHE32      -0.0003
     11  CZ        82.5050  -18.1310  -14.8630 C.ar   32  PHE32      -0.0000
     12  N         80.7570  -26.4470   -6.0990 N.3    60  MET60      -0.1230
     13  CA        80.7580  -26.8090   -7.5260 C.3    60  MET60       0.1702
     14  C         80.7610  -25.5270   -8.3390 C.2    60  MET60       0.2592
     15  O         80.7070  -24.4390   -7.7840 O.2    60  MET60      -0.2718
     16  CB        79.5770  -27.6990   -7.9010 C.3    60  MET60       0.0401
     17  CG        78.2380  -27.1400   -7.5330 C.3    60  MET60       0.0596
     18  SD        76.9310  -28.3860   -7.8060 S.3    60  MET60      -0.1393
     19  CE        76.8560  -28.4140   -9.5960 C.3    60  MET60       0.0692
     20  N         80.8480  -25.6900   -9.6520 N.am   61  GLU61      -0.1966
     21  CA        80.9020  -24.5980  -10.6330 C.3    61  GLU61       0.1733
     22  C         82.0790  -23.6820  -10.3320 C.2    61  GLU61       0.2617
     23  O         81.9350  -22.4710  -10.1680 O.2    61  GLU61      -0.2715
     24  CB        79.6050  -23.7930  -10.6690 C.3    61  GLU61       0.0429
     25  CG        78.3490  -24.6440  -10.9570 C.3    61  GLU61       0.1163
     26  CD        78.2420  -25.2330  -12.3810 C.2    61  GLU61       0.3649
     27  OE1       77.2500  -25.9780  -12.6520 O.co2  61  GLU61      -0.2457
     28  OE2       79.1270  -24.9630  -13.2310 O.co2  61  GLU61      -0.2457
     29  N         83.2650  -24.2610  -10.3970 N.am   62  THR62      -0.1951
     30  CA        84.4870  -23.5800  -10.0030 C.3    62  THR62       0.1897
     31  C         84.8190  -22.4570  -10.9620 C.2    62  THR62       0.2313
     32  O         84.6610  -22.5740  -12.1800 O.2    62  THR62      -0.2863
     33  CB        85.6730  -24.5720   -9.9860 C.3    62  THR62       0.1794
     34  OG1       85.2280  -25.8380   -9.5080 O.3    62  THR62      -0.2208
     35  CG2       86.8020  -24.0720   -9.1180 C.3    62  THR62       0.0378
     36  N         80.9930  -31.5960   -8.4990 N.3    85  PHE85      -0.1227
     37  CA        80.9500  -31.8240   -9.9560 C.3    85  PHE85       0.1736
     38  C         82.2110  -31.2080  -10.5380 C.2    85  PHE85       0.2595
     39  O         82.4090  -29.9940  -10.4870 O.2    85  PHE85      -0.2718
     40  CB        79.7000  -31.2480  -10.6040 C.3    85  PHE85       0.0547
     41  CG        79.4570  -31.7670  -11.9860 C.ar   85  PHE85      -0.0202
     42  CD1       80.1100  -31.2190  -13.0790 C.ar   85  PHE85      -0.0042
     43  CD2       78.5650  -32.8240  -12.1940 C.ar   85  PHE85      -0.0042
     44  CE1       79.8770  -31.7050  -14.3650 C.ar   85  PHE85      -0.0003
     45  CE2       78.3240  -33.3170  -13.4770 C.ar   85  PHE85      -0.0003
     46  CZ        78.9840  -32.7600  -14.5640 C.ar   85  PHE85      -0.0000
     47  N         83.0290  -32.0500  -11.1560 N.am   86  VAL86      -0.1966
     48  CA        84.3900  -31.6960  -11.5380 C.3    86  VAL86       0.1727
     49  C         84.4520  -30.7860  -12.7710 C.2    86  VAL86       0.2617
     50  O         83.6950  -30.9640  -13.7250 O.2    86  VAL86      -0.2715
     51  CB        85.1790  -33.0100  -11.7560 C.3    86  VAL86       0.0290
     52  CG1       86.3960  -32.8270  -12.6050 C.3    86  VAL86       0.0023
     53  CG2       85.5410  -33.5850  -10.4010 C.3    86  VAL86       0.0023
     54  N         85.3070  -29.7590  -12.6960 N.am   87  THR87      -0.1937
     55  CA        85.5800  -28.8670  -13.8230 C.3    87  THR87       0.2028
     56  C         87.0520  -28.9830  -14.2250 C.2    87  THR87       0.2642
     57  O         87.7980  -29.7700  -13.6690 O.2    87  THR87      -0.2714
     58  CB        85.2850  -27.3760  -13.4850 C.3    87  THR87       0.1808
     59  OG1       86.3440  -26.8190  -12.6840 O.3    87  THR87      -0.2208
     60  CG2       83.9440  -27.2200  -12.7500 C.3    87  THR87       0.0379
     61  N         87.4650  -28.1720  -15.1810 N.am   88  ALA88      -0.1963
     62  CA        88.8470  -28.1410  -15.6470 C.3    88  ALA88       0.1728
     63  C         89.8450  -27.8540  -14.5120 C.2    88  ALA88       0.2616
     64  O         90.9670  -28.3940  -14.4920 O.2    88  ALA88      -0.2715
     65  CB        88.9650  -27.1000  -16.7590 C.3    88  ALA88       0.0334
     66  N         89.4230  -27.0350  -13.5560 N.am   89  VAL89      -0.1977
     67  CA        90.2300  -26.7050  -12.3950 C.3    89  VAL89       0.1596
     68  C         90.5660  -27.9520  -11.5750 C.2    89  VAL89       0.2287
     69  O         91.7290  -28.2130  -11.2790 O.2    89  VAL89      -0.2864
     70  CB        89.4980  -25.6710  -11.5160 C.3    89  VAL89       0.0276
     71  CG1       90.2640  -25.3930  -10.2200 C.3    89  VAL89       0.0022
     72  CG2       89.3030  -24.3810  -12.3080 C.3    89  VAL89       0.0022
     73  N         90.3050  -31.0580  -12.6780 N.3    91  ARG91      -0.1245
     74  CA        91.0210  -32.0320  -13.5110 C.3    91  ARG91       0.1563
     75  C         92.5140  -31.7330  -13.5240 C.2    91  ARG91       0.2260
     76  O         93.3590  -32.6610  -13.5230 O.2    91  ARG91      -0.2867
     77  CB        90.4680  -32.0570  -14.9350 C.3    91  ARG91       0.0307
     78  CG        89.0880  -32.6530  -14.9890 C.3    91  ARG91       0.0489
     79  CD        88.6340  -33.0290  -16.3930 C.3    91  ARG91       0.2205
     80  NE        88.4680  -31.8520  -17.2480 N.pl3  91  ARG91      -0.0865
     81  CZ        87.3750  -31.0930  -17.3320 C.cat  91  ARG91       0.5346
     82  NH1       86.2860  -31.3720  -16.6300 N.pl3  91  ARG91       0.1354
     83  NH2       87.3730  -30.0480  -18.1480 N.pl3  91  ARG91       0.1354
     84  N         72.3740  -32.5210   -8.4560 N.3   113  PHE113     -0.1241
     85  CA        72.3080  -31.0580   -8.2980 C.3   113  PHE113      0.1605
     86  C         70.9970  -30.6100   -7.6470 C.2   113  PHE113      0.2264
     87  O         70.9990  -29.7930   -6.7490 O.2   113  PHE113     -0.2867
     88  CB        72.4600  -30.3480   -9.6500 C.3   113  PHE113      0.0534
     89  CG        72.6400  -28.8510   -9.5390 C.ar  113  PHE113     -0.0203
     90  CD1       73.2500  -28.2810   -8.4270 C.ar  113  PHE113     -0.0042
     91  CD2       72.1590  -28.0070  -10.5340 C.ar  113  PHE113     -0.0042
     92  CE1       73.3990  -26.8980   -8.3140 C.ar  113  PHE113     -0.0003
     93  CE2       72.3180  -26.6270  -10.4400 C.ar  113  PHE113     -0.0003
     94  CZ        72.9460  -26.0730   -9.3230 C.ar  113  PHE113     -0.0000
     95  N         82.0830  -15.2760  -18.1270 N.3   197  MET197     -0.1231
     96  CA        82.1870  -16.4920  -18.9150 C.3   197  MET197      0.1687
     97  C         82.8410  -16.0980  -20.2220 C.2   197  MET197      0.2434
     98  O         82.4550  -15.0950  -20.8160 O.2   197  MET197     -0.2733
     99  CB        80.8080  -17.1000  -19.1420 C.3   197  MET197      0.0400
    100  CG        80.8420  -18.5970  -19.2710 C.3   197  MET197      0.0596
    101  SD        79.1860  -19.2440  -19.3070 S.3   197  MET197     -0.1393
    102  CE        79.5810  -20.9740  -19.2130 C.3   197  MET197      0.0692
    103  N         83.8710  -16.8230  -20.6580 N.am  198  PRO198     -0.2729
    104  CA        84.4700  -16.3950  -21.9310 C.3   198  PRO198      0.1401
    105  C         83.5200  -16.6210  -23.0970 C.2   198  PRO198      0.2269
    106  O         82.7610  -17.6010  -23.0820 O.2   198  PRO198     -0.2865
    107  CB        85.7040  -17.2950  -22.0630 C.3   198  PRO198      0.0296
    108  CG        85.2660  -18.5680  -21.3690 C.3   198  PRO198      0.0237
    109  CD        84.4360  -18.1000  -20.1840 C.3   198  PRO198      0.0939
    110  N         82.9350  -17.8300  -26.7170 N.3   200  ARG200     -0.1245
    111  CA        83.5950  -18.6960  -27.6870 C.3   200  ARG200      0.1563
    112  C         83.1560  -18.3650  -29.0970 C.2   200  ARG200      0.2260
    113  O         82.0130  -17.9720  -29.3340 O.2   200  ARG200     -0.2867
    114  CB        83.3400  -20.1710  -27.3710 C.3   200  ARG200      0.0307
    115  CG        83.9980  -20.6030  -26.0780 C.3   200  ARG200      0.0489
    116  CD        85.5210  -20.4710  -26.1820 C.3   200  ARG200      0.2205
    117  NE        86.2080  -20.8550  -24.9520 N.pl3 200  ARG200     -0.0865
    118  CZ        87.2400  -20.1950  -24.4270 C.cat 200  ARG200      0.5346
    119  NH1       87.7190  -19.1020  -25.0100 N.pl3 200  ARG200      0.1354
    120  NH2       87.7950  -20.6250  -23.3010 N.pl3 200  ARG200      0.1354
    121  N         71.3170  -24.0930  -22.3250 N.3   226  GLY226     -0.1210
    122  CA        72.5970  -24.3490  -21.7150 C.3   226  GLY226      0.1956
    123  C         73.5140  -23.2390  -22.0850 C.2   226  GLY226      0.2612
    124  O         73.1890  -22.3400  -22.8850 O.2   226  GLY226     -0.2717
    125  N         74.7240  -23.3640  -21.5970 N.am  227  VAL227     -0.1965
    126  CA        75.7220  -22.3810  -21.8790 C.3   227  VAL227      0.1727
    127  C         76.4360  -22.7640  -23.1740 C.2   227  VAL227      0.2616
    128  O         76.3390  -23.8940  -23.6510 O.2   227  VAL227     -0.2715
    129  CB        76.7150  -22.2890  -20.6960 C.3   227  VAL227      0.0290
    130  CG1       75.9730  -21.8610  -19.4160 C.3   227  VAL227      0.0023
    131  CG2       77.4160  -23.6310  -20.4750 C.3   227  VAL227      0.0023
    132  N         77.0990  -21.7870  -23.7590 N.am  228  GLY228     -0.1955
    133  CA        77.9410  -22.0010  -24.9130 C.3   228  GLY228      0.1869
    134  C         77.4150  -21.2650  -26.1170 C.2   228  GLY228      0.2309
    135  O         76.2740  -20.7730  -26.1310 O.2   228  GLY228     -0.2863
    136  N         68.1300  -23.3780  -15.9400 N.3   249  GLU249     -0.1231
    137  CA        69.0550  -23.5970  -14.8440 C.3   249  GLU249      0.1699
    138  C         69.9760  -22.3860  -14.7550 C.2   249  GLU249      0.2592
    139  O         70.0280  -21.6940  -13.7340 O.2   249  GLU249     -0.2718
    140  CB        69.8690  -24.8670  -15.0450 C.3   249  GLU249      0.0402
    141  CG        70.7670  -25.1090  -13.8500 C.3   249  GLU249      0.1161
    142  CD        71.6980  -26.2660  -14.1250 C.2   249  GLU249      0.3649
    143  OE1       72.7460  -26.0570  -14.7970 O.co2 249  GLU249     -0.2457
    144  OE2       71.4210  -27.3790  -13.6900 O.co2 249  GLU249     -0.2457
    145  N         70.6950  -22.1430  -15.8450 N.am  250  VAL250     -0.1980
    146  CA        71.6220  -21.0420  -15.9220 C.3   250  VAL250      0.1595
    147  C         71.0140  -19.9310  -16.7840 C.2   250  VAL250      0.2287
    148  O         70.5700  -20.1590  -17.9200 O.2   250  VAL250     -0.2864
    149  CB        72.9760  -21.4700  -16.5080 C.3   250  VAL250      0.0276
    150  CG1       73.9140  -20.2860  -16.5610 C.3   250  VAL250      0.0022
    151  CG2       73.5740  -22.6200  -15.7270 C.3   250  VAL250      0.0022
    152  N         71.0300  -19.9340  -11.2090 N.3   280  PHE280     -0.1241
    153  CA        72.1740  -19.0090  -11.1540 C.3   280  PHE280      0.1605
    154  C         72.5050  -18.4730  -12.5340 C.2   280  PHE280      0.2264
    155  O         72.0120  -18.9540  -13.5440 O.2   280  PHE280     -0.2867
    156  CB        73.4280  -19.6170  -10.4420 C.3   280  PHE280      0.0534
    157  CG        74.1950  -20.6800  -11.2230 C.ar  280  PHE280     -0.0203
    158  CD1       73.7200  -21.9760  -11.2960 C.ar  280  PHE280     -0.0042
    159  CD2       75.4220  -20.3870  -11.8200 C.ar  280  PHE280     -0.0042
    160  CE1       74.4270  -22.9730  -11.9630 C.ar  280  PHE280     -0.0003
    161  CE2       76.1530  -21.3870  -12.5010 C.ar  280  PHE280     -0.0003
    162  CZ        75.6370  -22.6890  -12.5720 C.ar  280  PHE280     -0.0000
    163  N         75.3770  -16.7470  -15.3640 N.3   282  MET282     -0.1245
    164  CA        76.7420  -16.6000  -15.8560 C.3   282  MET282      0.1570
    165  C         76.7280  -15.7890  -17.1450 C.2   282  MET282      0.2261
    166  O         75.8440  -15.9730  -17.9710 O.2   282  MET282     -0.2867
    167  CB        77.3680  -17.9700  -16.1270 C.3   282  MET282      0.0387
    168  CG        77.2330  -18.9530  -14.9990 C.3   282  MET282      0.0595
    169  SD        77.8620  -20.6080  -15.4910 S.3   282  MET282     -0.1393
    170  CE        79.5890  -20.3470  -15.6290 C.3   282  MET282      0.0692
    171  N         73.9340  -28.2720  -25.4370 N.3   322  ALA322     -0.1245
    172  CA        75.0050  -28.8070  -26.2790 C.3   322  ALA322      0.1562
    173  C         75.5680  -30.0540  -25.6200 C.2   322  ALA322      0.2260
    174  O         75.3720  -30.2710  -24.4310 O.2   322  ALA322     -0.2867
    175  CB        76.1230  -27.7860  -26.4880 C.3   322  ALA322      0.0290
    176  N         79.1170  -33.1000  -26.2760 N.3   324  LEU324     -0.1245
    177  CA        80.4020  -33.3220  -26.9520 C.3   324  LEU324      0.1561
    178  C         80.3880  -34.5810  -27.8020 C.2   324  LEU324      0.2260
    179  O         80.9970  -34.6210  -28.8640 O.2   324  LEU324     -0.2867
    180  CB        81.5520  -33.4260  -25.9420 C.3   324  LEU324      0.0270
    181  CG        81.8530  -32.1920  -25.0850 C.3   324  LEU324      0.0019
    182  CD1       83.0070  -32.4840  -24.1130 C.3   324  LEU324      0.0001
    183  CD2       82.1830  -30.9880  -25.9520 C.3   324  LEU324      0.0001
    184  N         78.5340  -34.8890  -22.2850 N.3   334  SER334     -0.1202
    185  CA        78.7560  -33.4620  -22.3910 C.3   334  SER334      0.2020
    186  C         80.0200  -32.9950  -21.6600 C.2   334  SER334      0.2619
    187  O         80.3220  -31.8040  -21.6670 O.2   334  SER334     -0.2717
    188  CB        77.5620  -32.7230  -21.8180 C.3   334  SER334      0.2103
    189  OG        77.4790  -32.9700  -20.4230 O.3   334  SER334     -0.2182
    190  N         80.7730  -33.9110  -21.0560 N.am  335  GLU335     -0.1965
    191  CA        81.9250  -33.4810  -20.2480 C.3   335  GLU335      0.1733
    192  C         83.2480  -33.9850  -20.7980 C.2   335  GLU335      0.2616
    193  O         83.2930  -35.0610  -21.3940 O.2   335  GLU335     -0.2715
    194  CB        81.7480  -33.9350  -18.7920 C.3   335  GLU335      0.0429
    195  CG        80.6490  -33.1720  -18.0510 C.3   335  GLU335      0.1163
    196  CD        80.9120  -31.6700  -17.9590 C.2   335  GLU335      0.3649
    197  OE1       82.0610  -31.2720  -17.6640 O.co2 335  GLU335     -0.2457
    198  OE2       79.9720  -30.8900  -18.2190 O.co2 335  GLU335     -0.2457
    199  N         84.3100  -33.1890  -20.6430 N.am  336  HIS336     -0.1973
    200  CA        85.6610  -33.7020  -20.9110 C.3   336  HIS336      0.1656
    201  C         86.0060  -34.6090  -19.7350 C.2   336  HIS336      0.2291
    202  O         86.0770  -34.1510  -18.5900 O.2   336  HIS336     -0.2864
    203  CB        86.7070  -32.5860  -21.0710 C.3   336  HIS336      0.0771
    204  CG        86.3880  -31.6060  -22.1550 C.ar  336  HIS336      0.0820
    205  ND1       85.6750  -30.4470  -21.9340 N.ar  336  HIS336     -0.2267
    206  CD2       86.6520  -31.6370  -23.4850 C.ar  336  HIS336      0.1154
    207  CE1       85.5380  -29.7920  -23.0740 C.ar  336  HIS336      0.1986
    208  NE2       86.1170  -30.4970  -24.0310 N.ar  336  HIS336     -0.2212
    209  N         74.5900  -34.3940  -14.7610 N.3   346  GLY346     -0.1210
    210  CA        74.4130  -33.1880  -13.9730 C.3   346  GLY346      0.1956
    211  C         72.9900  -32.6380  -14.0730 C.2   346  GLY346      0.2612
    212  O         72.0350  -33.3500  -14.3590 O.2   346  GLY346     -0.2717
    213  N         72.8770  -31.3460  -13.8260 N.am  347  GLY347     -0.1942
    214  CA        71.6120  -30.6680  -13.7690 C.3   347  GLY347      0.2014
    215  C         70.8750  -30.6680  -15.0670 C.2   347  GLY347      0.2638
    216  O         69.6610  -30.6160  -15.0860 O.2   347  GLY347     -0.2714
    217  N         71.5910  -30.7370  -16.1860 N.am  348  GLN348     -0.1977
    218  CA        70.9100  -30.7740  -17.4510 C.3   348  GLN348      0.1601
    219  C         69.9460  -31.9620  -17.5820 C.2   348  GLN348      0.2287
    220  O         68.9390  -31.8370  -18.2670 O.2   348  GLN348     -0.2864
    221  CB        71.9070  -30.8040  -18.5850 C.3   348  GLN348      0.0394
    222  CG        72.6990  -29.5100  -18.7110 C.3   348  GLN348      0.0908
    223  CD        73.5800  -29.4790  -19.9560 C.2   348  GLN348      0.2608
    224  OE1       73.8780  -30.5160  -20.5540 O.2   348  GLN348     -0.2717
    225  NE2       73.9680  -28.2800  -20.3720 N.am  348  GLN348     -0.0878
@<TRIPOS>BOND
     1   113   112    2
     2   112   111    1
     3   179   178    2
     4   178   177    1
     5   111   114    1
     6   111   110    1
     7   114   115    1
     8   177   176    1
     9   177   180    1
    10   175   172    1
    11   172   173    1
    12   172   171    1
    13   116   115    1
    14   116   117    1
    15   135   134    2
    16   134   133    1
    17   183   181    1
    18   180   181    1
    19   173   174    2
    20   181   182    1
    21   119   118    1
    22   117   118    2
    23   133   132    1
    24   118   120    1
    25   208   206   ar
    26   208   207   ar
    27   132   127   am
    28   128   127    2
    29   206   204   ar
    30   127   126    1
    31   105   106    2
    32   105   104    1
    33   207   205   ar
    34   124   123    2
    35   185   184    1
    36   185   188    1
    37   185   186    1
    38   121   122    1
    39   204   205   ar
    40   204   203    1
    41   123   122    1
    42   123   125   am
    43   107   104    1
    44   107   108    1
    45   104   103    1
    46   126   125    1
    47   126   129    1
    48   188   189    1
    49   187   186    2
    50   186   190   am
    51   193   192    2
    52   108   109    1
    53   203   200    1
    54   190   191    1
    55   200   199    1
    56   200   201    1
    57    98    97    2
    58   192   199   am
    59   192   191    1
    60   129   131    1
    61   129   130    1
    62   103    97   am
    63   103   109    1
    64   224   223    2
    65   225   223   am
    66   191   194    1
    67    97    96    1
    68   223   222    1
    69   201   202    2
    70   101   100    1
    71   101   102    1
    72   100    99    1
    73    99    96    1
    74    96    95    1
    75   194   195    1
    76   222   221    1
    77   221   218    1
    78   220   219    2
    79   198   196   ar
    80    83    81    1
    81   195   196    1
    82   166   165    2
    83   196   197   ar
    84   148   147    2
    85   219   218    1
    86   218   217    1
    87    81    80    2
    88    81    82    1
    89    80    79    1
    90   165   164    1
    91   147   146    1
    92    65    62    1
    93   150   149    1
    94   149   146    1
    95   149   151    1
    96    79    78    1
    97   217   215   am
    98   167   164    1
    99   167   168    1
   100   136   137    1
   101   146   145    1
   102   164   163    1
   103   145   138   am
   104    62    61    1
   105    62    63    1
   106   170   169    1
   107   169   168    1
   108    61    56   am
   109   216   215    2
   110   215   214    1
   111   140   137    1
   112   140   141    1
   113    78    77    1
   114    77    74    1
   115    11    10   ar
   116    11     9   ar
   117   137   138    1
   118   143   142   ar
   119   209   210    1
   120   138   139    2
   121    46    44   ar
   122    46    45   ar
   123    63    64    2
   124    63    66   am
   125    10     8   ar
   126    44    42   ar
   127   212   211    2
   128    56    55    1
   129    56    57    2
   130     9     7   ar
   131   142   141    1
   132   142   144   ar
   133   211   210    1
   134   211   213   am
   135   213   214    1
   136    55    58    1
   137    55    54    1
   138    50    49    2
   139    66    67    1
   140   155   154    2
   141    75    76    2
   142    75    74    1
   143    74    73    1
   144    58    60    1
   145    58    59    1
   146    45    43   ar
   147     8     6   ar
   148    28    26   ar
   149    42    41   ar
   150     7     6   ar
   151    49    54   am
   152    49    48    1
   153    27    26   ar
   154     6     5    1
   155    52    51    1
   156   162   161   ar
   157   162   160   ar
   158   154   153    1
   159   161   159   ar
   160    67    68    1
   161    67    70    1
   162    26    25    1
   163    72    70    1
   164    43    41   ar
   165    32    31    2
   166    41    40    1
   167   160   158   ar
   168   159   157   ar
   169    51    48    1
   170    51    53    1
   171    68    69    2
   172    48    47    1
   173    70    71    1
   174     5     2    1
   175   158   157   ar
   176   157   156    1
   177   152   153    1
   178    47    38   am
   179   153   156    1
   180    31    30    1
   181    25    24    1
   182    24    21    1
   183    21    22    1
   184    21    20    1
   185    40    37    1
   186    38    39    2
   187    38    37    1
   188    91    93   ar
   189    91    89   ar
   190    93    94   ar
   191    29    22   am
   192    29    30    1
   193    22    23    2
   194     2     3    1
   195     2     1    1
   196    30    33    1
   197    33    34    1
   198    33    35    1
   199    37    36    1
   200     3     4    2
   201    20    14   am
   202    88    89    1
   203    88    85    1
   204    19    18    1
   205    89    90   ar
   206    94    92   ar
   207    84    85    1
   208    90    92   ar
   209    14    15    2
   210    14    13    1
   211    85    86    1
   212    16    17    1
   213    16    13    1
   214    18    17    1
   215    86    87    2
   216    13    12    1
