@<TRIPOS>MOLECULE
tmp/4n8qB00.pdb
 114 110 0 0 0
SMALL
GASTEIGER

@<TRIPOS>ATOM
      1  N         -9.0830  -27.2380   49.8940 N.3    63  MET63      -0.1245
      2  CA        -8.1500  -28.3650   49.8150 C.3    63  MET63       0.1570
      3  C         -7.7260  -28.7850   51.2350 C.2    63  MET63       0.2261
      4  O         -7.6950  -29.9880   51.5570 O.2    63  MET63      -0.2867
      5  CB        -6.9300  -27.9640   49.0000 C.3    63  MET63       0.0387
      6  CG        -5.8670  -29.0230   48.9230 C.3    63  MET63       0.0595
      7  SD        -4.6340  -28.6360   47.6650 S.3    63  MET63      -0.1393
      8  CE        -3.4390  -29.9720   47.9930 C.3    63  MET63       0.0692
      9  N          6.5860  -29.7140   54.1670 N.3   109  HIS109     -0.1241
     10  CA         5.4700  -30.2550   53.4260 C.3   109  HIS109      0.1621
     11  C          5.9270  -30.4130   51.9880 C.2   109  HIS109      0.2264
     12  O          6.3740  -29.4600   51.3760 O.2   109  HIS109     -0.2867
     13  CB         4.3220  -29.2260   53.4930 C.3   109  HIS109      0.0745
     14  CG         3.0980  -29.6170   52.7340 C.ar  109  HIS109      0.0817
     15  ND1        2.3500  -28.7070   52.0140 N.ar  109  HIS109     -0.2268
     16  CD2        2.4890  -30.8150   52.5790 C.ar  109  HIS109      0.1154
     17  CE1        1.3320  -29.3330   51.4500 C.ar  109  HIS109      0.1986
     18  NE2        1.3960  -30.6110   51.7740 N.ar  109  HIS109     -0.2212
     19  N          6.4740  -33.2220   48.1960 N.3   111  ASN111     -0.1240
     20  CA         6.4400  -34.4500   47.4300 C.3   111  ASN111      0.1653
     21  C          7.8330  -34.7230   46.8790 C.2   111  ASN111      0.2266
     22  O          8.7420  -33.9090   47.0480 O.2   111  ASN111     -0.2867
     23  CB         5.4620  -34.3020   46.2480 C.3   111  ASN111      0.1155
     24  CG         4.8200  -35.6370   45.8220 C.2   111  ASN111      0.2627
     25  OD1        5.2770  -36.7300   46.1870 O.2   111  ASN111     -0.2716
     26  ND2        3.7530  -35.5440   45.0380 N.am  111  ASN111     -0.0877
     27  N          6.8700  -33.4080   40.6350 N.3   115  SER115     -0.1202
     28  CA         5.4570  -33.7060   40.7950 C.3   115  SER115      0.2020
     29  C          4.7470  -32.5580   41.5180 C.2   115  SER115      0.2619
     30  O          5.3760  -31.5610   41.8830 O.2   115  SER115     -0.2717
     31  CB         5.2660  -35.0300   41.5430 C.3   115  SER115      0.2103
     32  OG         5.2000  -36.1200   40.6290 O.3   115  SER115     -0.2182
     33  N          3.4560  -32.6460   41.7610 N.am  116  SER116     -0.1937
     34  CA         2.8660  -31.6680   42.6460 C.3   116  SER116      0.2055
     35  C          3.2590  -32.0130   44.0930 C.2   116  SER116      0.2642
     36  O          3.1870  -33.1370   44.4960 O.2   116  SER116     -0.2714
     37  CB         1.3580  -31.6040   42.4870 C.3   116  SER116      0.2130
     38  OG         0.8430  -32.5830   41.6370 O.3   116  SER116     -0.2179
     39  N          3.8230  -31.0420   44.8090 N.am  117  LEU117     -0.1977
     40  CA         4.2480  -29.7700   44.2320 C.3   117  LEU117      0.1596
     41  C          5.6630  -29.3990   44.7060 C.2   117  LEU117      0.2287
     42  O          6.6620  -29.8760   44.1680 O.2   117  LEU117     -0.2864
     43  CB         3.2610  -28.6590   44.5960 C.3   117  LEU117      0.0297
     44  CG         3.5260  -27.2870   43.9730 C.3   117  LEU117      0.0022
     45  CD1        3.8190  -26.2550   45.0510 C.3   117  LEU117      0.0001
     46  CD2        4.6680  -27.3620   42.9720 C.3   117  LEU117      0.0001
     47  N          3.0880  -34.9880   51.0340 N.3   152  ALA152     -0.1231
     48  CA         1.8360  -34.5150   50.4340 C.3   152  ALA152      0.1679
     49  C          0.8370  -35.6090   50.0590 C.2   152  ALA152      0.2434
     50  O         -0.3500  -35.5080   50.4400 O.2   152  ALA152     -0.2733
     51  CB         2.1110  -33.6190   49.2270 C.3   152  ALA152      0.0304
     52  N          1.2860  -36.6430   49.3160 N.am  153  PRO153     -0.2729
     53  CA         0.3470  -37.7060   48.9200 C.3   153  PRO153      0.1401
     54  C         -0.2550  -38.4470   50.0840 C.2   153  PRO153      0.2269
     55  O         -1.3510  -38.9950   49.9690 O.2   153  PRO153     -0.2865
     56  CB         1.2160  -38.6550   48.0790 C.3   153  PRO153      0.0296
     57  CG         2.2090  -37.7310   47.4450 C.3   153  PRO153      0.0237
     58  CD         2.5630  -36.7610   48.5720 C.3   153  PRO153      0.0939
     59  N         -2.7230  -35.3870   51.6060 N.3   156  HIS156     -0.1227
     60  CA        -3.6770  -34.8550   50.6780 C.3   156  HIS156      0.1737
     61  C         -4.0590  -35.9490   49.7030 C.2   156  HIS156      0.2438
     62  O         -3.8630  -35.7690   48.5230 O.2   156  HIS156     -0.2733
     63  CB        -3.0880  -33.6570   49.9110 C.3   156  HIS156      0.0758
     64  CG        -2.8600  -32.4550   50.7790 C.ar  156  HIS156      0.0818
     65  ND1       -1.5980  -32.0180   51.1640 N.ar  156  HIS156     -0.2268
     66  CD2       -3.7460  -31.6030   51.3530 C.ar  156  HIS156      0.1154
     67  CE1       -1.7190  -30.9470   51.9320 C.ar  156  HIS156      0.1986
     68  NE2       -3.0130  -30.6730   52.0570 N.ar  156  HIS156     -0.2212
     69  N         -4.6380  -37.0690   50.1790 N.am  157  PRO157     -0.2729
     70  CA        -4.9030  -38.1380   49.1750 C.3   157  PRO157      0.1401
     71  C         -5.9740  -37.7510   48.0990 C.2   157  PRO157      0.2269
     72  O         -5.9050  -38.2120   46.9690 O.2   157  PRO157     -0.2865
     73  CB        -5.3410  -39.3190   50.0380 C.3   157  PRO157      0.0296
     74  CG        -5.9810  -38.6740   51.2730 C.3   157  PRO157      0.0237
     75  CD        -5.2050  -37.3940   51.5030 C.3   157  PRO157      0.0939
     76  N         -6.1480  -34.9900   46.4570 N.3   159  TYR159     -0.1227
     77  CA        -5.6020  -34.1490   45.3870 C.3   159  TYR159      0.1736
     78  C         -5.0860  -34.9640   44.1740 C.2   159  TYR159      0.2595
     79  O         -4.5850  -34.4120   43.2060 O.2   159  TYR159     -0.2718
     80  CB        -4.4750  -33.3180   45.9650 C.3   159  TYR159      0.0548
     81  CG        -3.9280  -32.2280   45.0950 C.ar  159  TYR159     -0.0200
     82  CD1       -4.5730  -31.0140   44.9980 C.ar  159  TYR159     -0.0009
     83  CD2       -2.6840  -32.3850   44.4360 C.ar  159  TYR159     -0.0009
     84  CE1       -4.0490  -29.9720   44.2320 C.ar  159  TYR159      0.0417
     85  CE2       -2.1220  -31.3340   43.6530 C.ar  159  TYR159      0.0417
     86  CZ        -2.8180  -30.1400   43.5620 C.ar  159  TYR159      0.1957
     87  OH        -2.3050  -29.0980   42.8200 O.3   159  TYR159     -0.2866
     88  N         -5.2250  -36.2860   44.2390 N.am  160  ARG160     -0.1980
     89  CA        -4.6950  -37.1720   43.2190 C.3   160  ARG160      0.1597
     90  C         -5.2520  -36.8570   41.8130 C.2   160  ARG160      0.2287
     91  O         -4.5210  -36.9290   40.8280 O.2   160  ARG160     -0.2864
     92  CB        -4.9450  -38.6270   43.6120 C.3   160  ARG160      0.0334
     93  CG        -6.3710  -39.1280   43.5080 C.3   160  ARG160      0.0492
     94  CD        -6.4170  -40.6060   43.9700 C.3   160  ARG160      0.2205
     95  NE        -7.7900  -41.0980   44.0980 N.pl3 160  ARG160     -0.0865
     96  CZ        -8.5610  -40.8890   45.1590 C.cat 160  ARG160      0.5346
     97  NH1       -8.1080  -40.2010   46.2000 N.pl3 160  ARG160      0.1354
     98  NH2       -9.7970  -41.3670   45.1800 N.pl3 160  ARG160      0.1354
     99  N         -3.4580  -33.8320   40.6660 N.3   163  ALA163     -0.1245
    100  CA        -2.0260  -34.1490   40.4900 C.3   163  ALA163      0.1562
    101  C         -1.7940  -34.8140   39.1270 C.2   163  ALA163      0.2260
    102  O         -0.9050  -34.4070   38.3880 O.2   163  ALA163     -0.2867
    103  CB        -1.5170  -35.0250   41.6230 C.3   163  ALA163      0.0290
    104  N          0.4380  -33.3490   35.7330 N.3   167  ARG167     -0.1245
    105  CA         1.4350  -34.1630   35.0540 C.3   167  ARG167      0.1563
    106  C          1.2030  -34.2550   33.5440 C.2   167  ARG167      0.2260
    107  O          2.1640  -34.1840   32.7580 O.2   167  ARG167     -0.2867
    108  CB         1.4700  -35.5910   35.6320 C.3   167  ARG167      0.0307
    109  CG         2.0010  -35.6930   37.0570 C.3   167  ARG167      0.0489
    110  CD         2.3930  -37.1380   37.3910 C.3   167  ARG167      0.2205
    111  NE         1.2490  -38.0000   37.6920 N.pl3 167  ARG167     -0.0865
    112  CZ         0.6960  -38.1300   38.9010 C.cat 167  ARG167      0.5346
    113  NH1        1.1690  -37.4570   39.9480 N.pl3 167  ARG167      0.1354
    114  NH2       -0.3330  -38.9380   39.0620 N.pl3 167  ARG167      0.1354
@<TRIPOS>BOND
     1   107   106    2
     2   106   105    1
     3   105   108    1
     4   105   104    1
     5   108   109    1
     6   109   110    1
     7   110   111    1
     8   111   112    2
     9   102   101    2
    10   112   114    1
    11   112   113    1
    12   101   100    1
    13   100    99    1
    14   100   103    1
    15    32    31    1
    16    27    28    1
    17    28    29    1
    18    28    31    1
    19    91    90    2
    20    29    33   am
    21    29    30    2
    22    38    37    1
    23    33    34    1
    24    90    89    1
    25    37    34    1
    26    34    35    1
    27    87    86    1
    28    46    44    1
    29    79    78    2
    30    89    92    1
    31    89    88    1
    32    93    92    1
    33    93    94    1
    34    86    85   ar
    35    86    84   ar
    36    85    83   ar
    37    94    95    1
    38    44    43    1
    39    44    45    1
    40    35    36    2
    41    35    39   am
    42    95    96    2
    43    42    41    2
    44    78    88   am
    45    78    77    1
    46    84    82   ar
    47    40    43    1
    48    40    41    1
    49    40    39    1
    50    83    81   ar
    51    82    81   ar
    52    26    24   am
    53    81    80    1
    54    96    98    1
    55    96    97    1
    56    77    80    1
    57    77    76    1
    58    24    25    2
    59    24    23    1
    60    23    20    1
    61    21    22    2
    62    21    20    1
    63    72    71    2
    64    20    19    1
    65    57    56    1
    66    57    58    1
    67     7     8    1
    68     7     6    1
    69    56    53    1
    70    71    70    1
    71    62    61    2
    72    58    52    1
    73    53    52    1
    74    53    54    1
    75     6     5    1
    76     5     2    1
    77    70    73    1
    78    70    69    1
    79    51    48    1
    80    52    49   am
    81    61    69   am
    82    61    60    1
    83     2     1    1
    84     2     3    1
    85    63    60    1
    86    63    64    1
    87    55    54    2
    88    73    74    1
    89    49    48    1
    90    49    50    2
    91    69    75    1
    92    48    47    1
    93    60    59    1
    94    64    65   ar
    95    64    66   ar
    96    65    67   ar
    97     3     4    2
    98    74    75    1
    99    66    68   ar
   100    12    11    2
   101    17    18   ar
   102    17    15   ar
   103    18    16   ar
   104    67    68   ar
   105    11    10    1
   106    15    14   ar
   107    16    14   ar
   108    14    13    1
   109    10    13    1
   110    10     9    1
