@<TRIPOS>MOLECULE
tmp/4n8sA01.pdb
 96 96 0 0 0
SMALL
GASTEIGER

@<TRIPOS>ATOM
      1  N         57.7130    0.3040   14.8830 N.3    14  ALA14      -0.1231
      2  CA        56.9280    0.4140   13.6400 C.3    14  ALA14       0.1694
      3  C         56.1240   -0.8820   13.3750 C.2    14  ALA14       0.2591
      4  O         54.9640   -0.8400   12.8830 O.2    14  ALA14      -0.2718
      5  CB        57.8480    0.7260   12.4990 C.3    14  ALA14       0.0304
      6  N         56.7370   -2.0520   13.6820 N.am   15  GLN15      -0.1979
      7  CA        56.0790   -3.3650   13.4120 C.3    15  GLN15       0.1601
      8  C         55.0960   -3.6610   14.4960 C.2    15  GLN15       0.2287
      9  O         54.0830   -4.2900   14.2180 O.2    15  GLN15      -0.2864
     10  CB        57.0680   -4.5110   13.3080 C.3    15  GLN15       0.0394
     11  CG        58.0460   -4.2760   12.2360 C.3    15  GLN15       0.0908
     12  CD        58.8340   -5.4680   11.7870 C.2    15  GLN15       0.2608
     13  OE1       58.7360   -6.5630   12.3340 O.2    15  GLN15      -0.2717
     14  NE2       59.6710   -5.2330   10.7860 N.am   15  GLN15      -0.0878
     15  N         52.2900   -1.7150   13.3300 N.3    18  ALA18      -0.1245
     16  CA        51.5960   -2.3650   12.1870 C.3    18  ALA18       0.1562
     17  C         50.7360   -3.5290   12.6610 C.2    18  ALA18       0.2260
     18  O         49.6920   -3.8240   12.0720 O.2    18  ALA18      -0.2867
     19  CB        52.6020   -2.8410   11.1110 C.3    18  ALA18       0.0290
     20  N         53.4830  -10.8840    6.5910 N.3    39  ASN39      -0.1225
     21  CA        54.8260  -10.5520    7.0560 C.3    39  ASN39       0.1785
     22  C         54.8940   -9.0350    7.5330 C.2    39  ASN39       0.2597
     23  O         55.7770   -8.2860    7.1740 O.2    39  ASN39      -0.2718
     24  CB        55.7470  -10.8520    5.9010 C.3    39  ASN39       0.1169
     25  CG        57.2080  -10.9060    6.2890 C.2    39  ASN39       0.2627
     26  OD1       57.5890  -11.5190    7.2700 O.2    39  ASN39      -0.2716
     27  ND2       58.0520  -10.2730    5.4680 N.am   39  ASN39      -0.0877
     28  N         53.8820   -8.5930    8.2380 N.am   40  ALA40      -0.1979
     29  CA        53.7530   -7.1670    8.6580 C.3    40  ALA40       0.1597
     30  C         54.6190   -6.9020    9.8760 C.2    40  ALA40       0.2287
     31  O         54.9450   -5.7780   10.1160 O.2    40  ALA40      -0.2864
     32  CB        52.2970   -6.8130    9.0020 C.3    40  ALA40       0.0319
     33  N         57.4910   -9.1610   11.4610 N.3    42  PRO42      -0.2116
     34  CA        58.3540  -10.2880   11.7300 C.3    42  PRO42       0.1372
     35  C         59.2450  -10.1660   12.9000 C.2    42  PRO42       0.2244
     36  O         59.4330  -11.1620   13.5920 O.2    42  PRO42      -0.2868
     37  CB        59.1370  -10.4820   10.4200 C.3    42  PRO42       0.0268
     38  CG        59.0040   -9.1710    9.7050 C.3    42  PRO42       0.0207
     39  CD        57.6720   -8.6430   10.0970 C.3    42  PRO42       0.0892
     40  N         53.9980    4.0590    4.4120 N.3   260  TRP260     -0.1227
     41  CA        55.2860    3.4640    4.2530 C.3   260  TRP260      0.1737
     42  C         56.2080    3.9660    5.3290 C.2   260  TRP260      0.2595
     43  O         56.9790    4.8930    5.1140 O.2   260  TRP260     -0.2718
     44  CB        55.8340    3.6740    2.8490 C.3   260  TRP260      0.0564
     45  CG        57.0110    2.7400    2.6560 C.ar  260  TRP260      0.0003
     46  CD1       58.3370    3.0490    2.8050 C.ar  260  TRP260      0.0946
     47  CD2       56.9820    1.3360    2.3210 C.ar  260  TRP260      0.0152
     48  NE1       59.1260    1.9740    2.6230 N.ar  260  TRP260     -0.2442
     49  CE2       58.3690    0.8890    2.3450 C.ar  260  TRP260      0.0810
     50  CE3       55.9740    0.3990    2.0820 C.ar  260  TRP260      0.0012
     51  CZ2       58.7310   -0.4540    2.1160 C.ar  260  TRP260      0.0191
     52  CZ3       56.3560   -0.9730    1.8340 C.ar  260  TRP260      0.0001
     53  CH2       57.6860   -1.3720    1.8600 C.ar  260  TRP260      0.0015
     54  N         56.1440    3.3020    6.4950 N.am  261  TYR261     -0.1962
     55  CA        57.0810    3.4870    7.6040 C.3   261  TYR261      0.1771
     56  C         57.9470    2.2460    7.9300 C.2   261  TYR261      0.2620
     57  O         57.5000    1.4020    8.6950 O.2   261  TYR261     -0.2715
     58  CB        56.2830    3.9470    8.8670 C.3   261  TYR261      0.0574
     59  CG        55.8720    5.4030    8.7640 C.ar  261  TYR261     -0.0198
     60  CD1       54.6590    5.8160    8.1460 C.ar  261  TYR261     -0.0009
     61  CD2       56.7030    6.3870    9.2480 C.ar  261  TYR261     -0.0009
     62  CE1       54.3100    7.1900    8.0930 C.ar  261  TYR261      0.0417
     63  CE2       56.3840    7.7350    9.1900 C.ar  261  TYR261      0.0417
     64  CZ        55.1970    8.1520    8.6290 C.ar  261  TYR261      0.1957
     65  OH        54.9970    9.5330    8.5250 O.3   261  TYR261     -0.2866
     66  N         59.1750    2.1830    7.3900 N.am  262  PHE262     -0.1960
     67  CA        60.0310    0.9820    7.4760 C.3   262  PHE262      0.1771
     68  C         59.3860   -0.2260    6.7930 C.2   262  PHE262      0.2620
     69  O         59.7930   -1.3400    6.9780 O.2   262  PHE262     -0.2715
     70  CB        60.3550    0.5810    8.9310 C.3   262  PHE262      0.0574
     71  CG        61.0900    1.6550    9.6880 C.ar  262  PHE262     -0.0200
     72  CD1       62.4290    1.6730    9.7450 C.ar  262  PHE262     -0.0042
     73  CD2       60.3950    2.6820   10.2770 C.ar  262  PHE262     -0.0042
     74  CE1       63.1150    2.6290   10.4430 C.ar  262  PHE262     -0.0003
     75  CE2       61.0570    3.6470   10.9660 C.ar  262  PHE262     -0.0003
     76  CZ        62.4230    3.6470   11.0490 C.ar  262  PHE262     -0.0000
     77  N         58.3150   -0.0080    6.0710 N.am  263  GLY263     -0.1940
     78  CA        57.5830   -1.0880    5.4640 C.3   263  GLY263      0.2014
     79  C         56.1360   -0.6630    5.5050 C.2   263  GLY263      0.2639
     80  O         55.8150    0.4430    5.9560 O.2   263  GLY263     -0.2714
     81  N         55.2770   -1.5630    5.0380 N.am  264  LEU264     -0.1963
     82  CA        53.8520   -1.3430    4.9620 C.3   264  LEU264      0.1728
     83  C         53.2120   -1.1940    6.3240 C.2   264  LEU264      0.2616
     84  O         53.4150   -2.0570    7.1720 O.2   264  LEU264     -0.2715
     85  CB        53.1990   -2.5110    4.2640 C.3   264  LEU264      0.0311
     86  CG        51.8240   -2.2690    3.6930 C.3   264  LEU264      0.0022
     87  CD1       51.9630   -1.3710    2.4710 C.3   264  LEU264      0.0001
     88  CD2       51.1900   -3.6050    3.2800 C.3   264  LEU264      0.0001
     89  N         52.3780   -0.1540    6.4660 N.am  265  ILE265     -0.1977
     90  CA        51.6650    0.1900    7.7210 C.3   265  ILE265      0.1596
     91  C         50.3770    0.9510    7.4650 C.2   265  ILE265      0.2287
     92  O         50.2590    1.6750    6.5410 O.2   265  ILE265     -0.2864
     93  CB        52.5970    1.0750    8.5620 C.3   265  ILE265      0.0276
     94  CG1       52.2950    1.0070   10.0500 C.3   265  ILE265      0.0022
     95  CG2       52.7140    2.4750    7.9990 C.3   265  ILE265      0.0022
     96  CD1       53.5110    1.5650   10.7940 C.3   265  ILE265      0.0001
@<TRIPOS>BOND
     1    52    53   ar
     2    52    50   ar
     3    53    51   ar
     4    50    47   ar
     5    51    49   ar
     6    47    49   ar
     7    47    45   ar
     8    49    48   ar
     9    87    86    1
    10    48    46   ar
    11    45    46   ar
    12    45    44    1
    13    44    41    1
    14    88    86    1
    15    86    85    1
    16    41    40    1
    17    41    42    1
    18    85    82    1
    19    82    81    1
    20    82    83    1
    21    81    79   am
    22    43    42    2
    23    42    54   am
    24    78    79    1
    25    78    77    1
    26    27    25   am
    27    79    80    2
    28    24    25    1
    29    24    21    1
    30    77    68   am
    31    25    26    2
    32    83    89   am
    33    83    84    2
    34    89    90    1
    35    54    55    1
    36    92    91    2
    37    20    21    1
    38    68    69    2
    39    68    67    1
    40    21    22    1
    41    23    22    2
    42    66    67    1
    43    66    56   am
    44    91    90    1
    45    67    70    1
    46    22    28   am
    47    55    56    1
    48    55    58    1
    49    90    93    1
    50    56    57    2
    51    95    93    1
    52    62    60   ar
    53    62    64   ar
    54    60    59   ar
    55    28    29    1
    56    65    64    1
    57    93    94    1
    58    64    63   ar
    59    29    32    1
    60    29    30    1
    61    59    58    1
    62    59    61   ar
    63    70    71    1
    64    63    61   ar
    65    71    72   ar
    66    71    73   ar
    67    38    39    1
    68    38    37    1
    69    72    74   ar
    70    30    31    2
    71    94    96    1
    72    39    33    1
    73    73    75   ar
    74    37    34    1
    75    74    76   ar
    76    14    12   am
    77    75    76   ar
    78    19    16    1
    79    33    34    1
    80    34    35    1
    81    12    11    1
    82    12    13    2
    83    18    17    2
    84    16    17    1
    85    16    15    1
    86    11    10    1
    87     5     2    1
    88     4     3    2
    89    35    36    2
    90    10     7    1
    91     3     2    1
    92     3     6   am
    93     7     6    1
    94     7     8    1
    95     2     1    1
    96     9     8    2
