@<TRIPOS>MOLECULE
tmp/4n8sB02.pdb
 88 83 0 0 0
SMALL
GASTEIGER

@<TRIPOS>ATOM
      1  N         37.3180   -1.6970  -19.0380 N.3    57  ASP57      -0.1239
      2  CA        36.0670   -2.4500  -19.0390 C.3    57  ASP57       0.1674
      3  C         35.6450   -2.7100  -20.4680 C.2    57  ASP57       0.2266
      4  O         34.5150   -2.4140  -20.8700 O.2    57  ASP57      -0.2867
      5  CB        34.9640   -1.6840  -18.2960 C.3    57  ASP57       0.1410
      6  CG        35.2750   -1.4890  -16.8350 C.2    57  ASP57       0.3668
      7  OD1       35.6210   -2.4970  -16.1710 O.co2  57  ASP57      -0.2456
      8  OD2       35.1590   -0.3430  -16.3470 O.co2  57  ASP57      -0.2456
      9  N         35.1210   -7.4460  -18.9150 N.3    62  ASP62      -0.1239
     10  CA        35.6720   -6.1230  -18.5960 C.3    62  ASP62       0.1674
     11  C         37.1920   -6.1390  -18.5780 C.2    62  ASP62       0.2266
     12  O         37.7980   -5.9370  -17.5210 O.2    62  ASP62      -0.2867
     13  CB        35.1530   -5.6500  -17.2380 C.3    62  ASP62       0.1410
     14  CG        33.6500   -5.5090  -17.2080 C.2    62  ASP62       0.3668
     15  OD1       33.0210   -6.0720  -16.2810 O.co2  62  ASP62      -0.2456
     16  OD2       33.1000   -4.8420  -18.1150 O.co2  62  ASP62      -0.2456
     17  N         45.5770   -5.3830  -16.7380 N.3    81  ARG81      -0.1245
     18  CA        45.2240   -5.4950  -15.3230 C.3    81  ARG81       0.1563
     19  C         44.6010   -6.8470  -14.8980 C.2    81  ARG81       0.2260
     20  O         43.7800   -7.3920  -15.5910 O.2    81  ARG81      -0.2867
     21  CB        44.2520   -4.4140  -14.9540 C.3    81  ARG81       0.0307
     22  CG        44.2320   -4.1640  -13.4370 C.3    81  ARG81       0.0489
     23  CD        43.3350   -2.9850  -13.1440 C.3    81  ARG81       0.2205
     24  NE        41.9640   -3.3810  -13.4820 N.pl3  81  ARG81      -0.0865
     25  CZ        40.9140   -2.5770  -13.4680 C.cat  81  ARG81       0.5346
     26  NH1       41.0330   -1.3060  -13.0890 N.pl3  81  ARG81       0.1354
     27  NH2       39.7460   -3.0640  -13.8300 N.pl3  81  ARG81       0.1354
     28  N         42.3460   -8.5370  -11.4840 N.3    83  SER83      -0.1202
     29  CA        41.0280   -8.0920  -10.9920 C.3    83  SER83       0.2020
     30  C         41.0390   -6.9000   -9.9960 C.2    83  SER83       0.2619
     31  O         41.9050   -6.8200   -9.1030 O.2    83  SER83      -0.2717
     32  CB        40.3030   -9.2580  -10.3720 C.3    83  SER83       0.2103
     33  OG        39.1190   -8.7880   -9.7690 O.3    83  SER83      -0.2182
     34  N         40.0190   -6.0500  -10.0690 N.am   84  ARG84      -0.1965
     35  CA        39.9970   -4.8330   -9.2630 C.3    84  ARG84       0.1729
     36  C         40.0580   -5.1820   -7.7790 C.2    84  ARG84       0.2616
     37  O         40.7740   -4.5340   -7.0150 O.2    84  ARG84      -0.2715
     38  CB        38.7410   -4.0130   -9.5610 C.3    84  ARG84       0.0348
     39  CG        38.6950   -2.6690   -8.8520 C.3    84  ARG84       0.0492
     40  CD        37.4010   -1.9300   -9.1530 C.3    84  ARG84       0.2205
     41  NE        37.2940   -1.5680  -10.5630 N.pl3  84  ARG84      -0.0865
     42  CZ        37.8370   -0.4790  -11.0980 C.cat  84  ARG84       0.5346
     43  NH1       37.6890   -0.2290  -12.3920 N.pl3  84  ARG84       0.1354
     44  NH2       38.5290    0.3600  -10.3400 N.pl3  84  ARG84       0.1354
     45  N         39.3300   -6.2170   -7.3760 N.am   85  SER85      -0.1950
     46  CA        39.5400   -6.8200   -6.0740 C.3    85  SER85       0.1924
     47  C         39.7770   -8.2910   -6.3150 C.2    85  SER85       0.2314
     48  O         38.8800   -8.9970   -6.7420 O.2    85  SER85      -0.2863
     49  CB        38.3080   -6.6340   -5.1850 C.3    85  SER85       0.2116
     50  OG        37.1080   -6.6750   -5.9350 O.3    85  SER85      -0.2180
     51  N         37.7470  -11.5710   -4.2220 N.3    88  ASN88      -0.1225
     52  CA        36.4160  -11.7550   -4.8360 C.3    88  ASN88       0.1785
     53  C         36.4630  -12.4300   -6.2340 C.2    88  ASN88       0.2597
     54  O         35.5440  -13.1570   -6.6350 O.2    88  ASN88      -0.2718
     55  CB        35.7030  -10.3930   -4.9700 C.3    88  ASN88       0.1169
     56  CG        35.0160   -9.9500   -3.6890 C.2    88  ASN88       0.2627
     57  OD1       34.0750   -9.1570   -3.7300 O.2    88  ASN88      -0.2716
     58  ND2       35.4740  -10.4690   -2.5460 N.am   88  ASN88      -0.0877
     59  N         37.5190  -12.1340   -6.9930 N.am   89  TRP89      -0.1976
     60  CA        37.7820  -12.7950   -8.2770 C.3    89  TRP89       0.1640
     61  C         38.1470  -14.2370   -8.0800 C.2    89  TRP89       0.2290
     62  O         37.6480  -15.0900   -8.8180 O.2    89  TRP89      -0.2864
     63  CB        38.8820  -12.0660   -9.0750 C.3    89  TRP89       0.0576
     64  CG        39.4410  -12.8630  -10.2460 C.ar   89  TRP89       0.0006
     65  CD1       38.9220  -12.9490  -11.5350 C.ar   89  TRP89       0.0946
     66  CD2       40.6410  -13.7270  -10.2710 C.ar   89  TRP89       0.0152
     67  NE1       39.6930  -13.7730  -12.3200 N.ar   89  TRP89      -0.2442
     68  CE2       40.7340  -14.2650  -11.6280 C.ar   89  TRP89       0.0810
     69  CE3       41.6030  -14.0790   -9.3510 C.ar   89  TRP89       0.0012
     70  CZ2       41.7510  -15.1210  -12.0120 C.ar   89  TRP89       0.0191
     71  CZ3       42.6300  -14.9430   -9.7490 C.ar   89  TRP89       0.0001
     72  CH2       42.6960  -15.4560  -11.0500 C.ar   89  TRP89       0.0015
     73  N         34.8760  -16.5440   -6.9670 N.3    92  ASN92      -0.1240
     74  CA        33.9520  -16.8690   -8.0220 C.3    92  ASN92       0.1653
     75  C         34.6640  -17.3950   -9.2430 C.2    92  ASN92       0.2266
     76  O         34.1910  -17.1800  -10.3640 O.2    92  ASN92      -0.2867
     77  CB        33.1870  -15.6100   -8.4120 C.3    92  ASN92       0.1155
     78  CG        32.5100  -14.9610   -7.2310 C.2    92  ASN92       0.2627
     79  OD1       32.1500  -15.6350   -6.2510 O.2    92  ASN92      -0.2716
     80  ND2       32.3350  -13.6430   -7.3080 N.am   92  ASN92      -0.0877
     81  N         45.3280  -12.1240  -13.2420 N.3   147  LEU147     -0.1245
     82  CA        44.4260  -12.3660  -14.4140 C.3   147  LEU147      0.1561
     83  C         44.7940  -11.4830  -15.6020 C.2   147  LEU147      0.2260
     84  O         44.2540  -11.5950  -16.7070 O.2   147  LEU147     -0.2867
     85  CB        42.9610  -12.0730  -14.0220 C.3   147  LEU147      0.0270
     86  CG        41.8930  -11.8170  -15.1080 C.3   147  LEU147      0.0019
     87  CD1       41.3560  -13.1410  -15.6310 C.3   147  LEU147      0.0001
     88  CD2       40.8010  -10.9050  -14.5760 C.3   147  LEU147      0.0001
@<TRIPOS>BOND
     1     4     3    2
     2     3     2    1
     3     2     1    1
     4     2     5    1
     5     9    10    1
     6    10    11    1
     7    10    13    1
     8    11    12    2
     9     5     6    1
    10    16    14   ar
    11    13    14    1
    12    14    15   ar
    13     6     8   ar
    14     6     7   ar
    15    17    18    1
    16    84    83    2
    17    87    86    1
    18    83    82    1
    19    20    19    2
    20    18    21    1
    21    18    19    1
    22    86    88    1
    23    86    85    1
    24    21    22    1
    25    82    85    1
    26    82    81    1
    27    27    25    1
    28    24    25    2
    29    24    23    1
    30    25    26    1
    31    22    23    1
    32    43    42    1
    33    67    68   ar
    34    67    65   ar
    35    70    68   ar
    36    70    72   ar
    37    68    66   ar
    38    65    64   ar
    39    28    29    1
    40    42    41    2
    41    42    44    1
    42    72    71   ar
    43    29    32    1
    44    29    30    1
    45    41    40    1
    46    32    33    1
    47    76    75    2
    48    66    64   ar
    49    66    69   ar
    50    64    63    1
    51    34    30   am
    52    34    35    1
    53    30    31    2
    54    71    69   ar
    55    38    35    1
    56    38    39    1
    57    35    36    1
    58    75    74    1
    59    40    39    1
    60    63    60    1
    61    62    61    2
    62    77    74    1
    63    77    78    1
    64    60    61    1
    65    60    59    1
    66    74    73    1
    67    36    45   am
    68    36    37    2
    69    45    46    1
    70    80    78   am
    71    78    79    2
    72    59    53   am
    73    48    47    2
    74    54    53    2
    75    47    46    1
    76    53    52    1
    77    46    49    1
    78    50    49    1
    79    55    52    1
    80    55    56    1
    81    52    51    1
    82    57    56    2
    83    56    58   am
