@<TRIPOS>MOLECULE
tmp/4n8yA00.pdb
 151 142 0 0 0
SMALL
GASTEIGER

@<TRIPOS>ATOM
      1  N         14.0520   20.1170   -9.4030 N.3     8  VAL8       -0.1231
      2  CA        13.6260   19.6270   -8.0900 C.3     8  VAL8        0.1692
      3  C         14.7360   18.9010   -7.3240 C.2     8  VAL8        0.2592
      4  O         14.6450   18.7320   -6.1000 O.2     8  VAL8       -0.2718
      5  CB        12.3970   18.6680   -8.1770 C.3     8  VAL8        0.0266
      6  CG1       11.1370   19.4090   -8.6210 C.3     8  VAL8        0.0020
      7  CG2       12.7070   17.4450   -9.0470 C.3     8  VAL8        0.0020
      8  N         15.7570   18.4360   -8.0340 N.am    9  HIS9       -0.1976
      9  CA        16.7480   17.5570   -7.4350 C.3     9  HIS9        0.1656
     10  C         17.8660   18.3020   -6.7290 C.2     9  HIS9        0.2291
     11  O         18.0490   19.5040   -6.9280 O.2     9  HIS9       -0.2864
     12  CB        17.3600   16.6440   -8.5070 C.3     9  HIS9        0.0771
     13  CG        16.4350   15.5770   -8.9910 C.ar    9  HIS9        0.0820
     14  ND1       15.8080   14.7020   -8.1350 N.ar    9  HIS9       -0.2267
     15  CD2       16.0430   15.2370  -10.2420 C.ar    9  HIS9        0.1154
     16  CE1       15.0620   13.8740   -8.8400 C.ar    9  HIS9        0.1986
     17  NE2       15.1790   14.1770  -10.1210 N.ar    9  HIS9       -0.2212
     18  N         23.0730   16.3500   -8.2310 N.3    13  TYR13      -0.1241
     19  CA        22.3530   15.3310   -8.9880 C.3    13  TYR13       0.1605
     20  C         22.7540   15.4200  -10.4620 C.2    13  TYR13       0.2264
     21  O         23.0510   16.5130  -10.9480 O.2    13  TYR13      -0.2867
     22  CB        20.8500   15.5230   -8.8300 C.3    13  TYR13       0.0534
     23  CG        19.9980   14.3240   -9.1430 C.ar   13  TYR13      -0.0201
     24  CD1       19.8990   13.3050   -8.2220 C.ar   13  TYR13      -0.0009
     25  CD2       19.2610   14.2340  -10.3110 C.ar   13  TYR13      -0.0009
     26  CE1       19.1200   12.2080   -8.4510 C.ar   13  TYR13       0.0417
     27  CE2       18.4670   13.1040  -10.5690 C.ar   13  TYR13       0.0417
     28  CZ        18.3900   12.1190   -9.6210 C.ar   13  TYR13       0.1957
     29  OH        17.5910   11.0300   -9.8270 O.3    13  TYR13      -0.2866
     30  N          7.4420   20.8980  -10.3460 N.3    47  GLU47      -0.1245
     31  CA         7.5960   20.8610  -11.7940 C.3    47  GLU47       0.1567
     32  C          6.4180   21.5170  -12.5080 C.2    47  GLU47       0.2260
     33  O          6.6260   22.3070  -13.4460 O.2    47  GLU47      -0.2867
     34  CB         7.7810   19.4220  -12.2590 C.3    47  GLU47       0.0388
     35  CG         8.9970   18.7850  -11.6290 C.3    47  GLU47       0.1160
     36  CD         9.6180   17.6230  -12.4240 C.2    47  GLU47       0.3649
     37  OE1        8.8820   16.8570  -13.0950 O.co2  47  GLU47      -0.2457
     38  OE2       10.8580   17.4650  -12.3290 O.co2  47  GLU47      -0.2457
     39  N         14.3830   22.0390  -15.9400 N.3    63  ARG63      -0.1245
     40  CA        14.6990   20.6300  -16.1890 C.3    63  ARG63       0.1563
     41  C         13.6680   19.8350  -15.4080 C.2    63  ARG63       0.2260
     42  O         13.6860   19.8290  -14.1690 O.2    63  ARG63      -0.2867
     43  CB        16.1220   20.2910  -15.7370 C.3    63  ARG63       0.0307
     44  CG        16.7040   18.9720  -16.3030 C.3    63  ARG63       0.0489
     45  CD        15.9310   17.7020  -15.8740 C.3    63  ARG63       0.2205
     46  NE        15.7150   17.6540  -14.4250 N.pl3  63  ARG63      -0.0865
     47  CZ        14.7620   16.9350  -13.8290 C.cat  63  ARG63       0.5346
     48  NH1       14.6130   16.9660  -12.5080 N.pl3  63  ARG63       0.1354
     49  NH2       13.9670   16.1850  -14.5650 N.pl3  63  ARG63       0.1354
     50  N         10.6880   16.2280  -15.7210 N.3    65  ASN65      -0.1240
     51  CA        10.3650   15.0120  -16.4410 C.3    65  ASN65       0.1653
     52  C          9.3730   15.3180  -17.5520 C.2    65  ASN65       0.2266
     53  O          8.6520   16.3160  -17.4990 O.2    65  ASN65      -0.2867
     54  CB         9.8210   13.9530  -15.4790 C.3    65  ASN65       0.1155
     55  CG         9.7390   12.5660  -16.0980 C.2    65  ASN65       0.2627
     56  OD1        8.6490   12.0800  -16.3890 O.2    65  ASN65      -0.2716
     57  ND2       10.8900   11.9060  -16.2600 N.am   65  ASN65      -0.0877
     58  N         16.4570    9.2090  -17.6160 N.3   120  SER120     -0.1217
     59  CA        15.8430    8.9930  -16.2970 C.3   120  SER120      0.1889
     60  C         15.7050    7.5050  -15.9470 C.2   120  SER120      0.2288
     61  O         14.8850    7.1300  -15.1240 O.2   120  SER120     -0.2866
     62  CB        14.4810    9.7040  -16.2530 C.3   120  SER120      0.2089
     63  OG        14.0650    9.9910  -14.9230 O.3   120  SER120     -0.2183
     64  N         11.5180    3.3990  -14.5040 N.3   123  ARG123     -0.1245
     65  CA        10.7740    3.5740  -13.2630 C.3   123  ARG123      0.1563
     66  C         10.2000    2.2580  -12.7720 C.2   123  ARG123      0.2260
     67  O          9.6770    1.4900  -13.5790 O.2   123  ARG123     -0.2867
     68  CB         9.6550    4.5820  -13.4710 C.3   123  ARG123      0.0307
     69  CG        10.1710    5.9470  -13.9230 C.3   123  ARG123      0.0489
     70  CD         9.0640    6.9350  -14.2290 C.3   123  ARG123      0.2205
     71  NE         8.3470    7.4580  -13.0480 N.pl3 123  ARG123     -0.0865
     72  CZ         8.6180    8.5960  -12.4170 C.cat 123  ARG123      0.5346
     73  NH1        9.6220    9.3600  -12.8060 N.pl3 123  ARG123      0.1354
     74  NH2        7.8570    8.9570  -11.3920 N.pl3 123  ARG123      0.1354
     75  N          1.2200    6.6800   -5.6030 N.3   144  ARG144     -0.1245
     76  CA         1.4300    8.0440   -6.0670 C.3   144  ARG144      0.1563
     77  C          1.8880    8.0100   -7.5240 C.2   144  ARG144      0.2260
     78  O          2.7040    7.1710   -7.9080 O.2   144  ARG144     -0.2867
     79  CB         2.4590    8.7630   -5.1990 C.3   144  ARG144      0.0307
     80  CG         2.8100   10.2050   -5.6770 C.3   144  ARG144      0.0489
     81  CD         3.9420   10.2030   -6.6960 C.3   144  ARG144      0.2205
     82  NE         4.2420   11.5320   -7.2300 N.pl3 144  ARG144     -0.0865
     83  CZ         5.2980   11.7830   -7.9910 C.cat 144  ARG144      0.5346
     84  NH1        5.5110   13.0160   -8.4520 N.pl3 144  ARG144      0.1354
     85  NH2        6.1360   10.8030   -8.3020 N.pl3 144  ARG144      0.1354
     86  N          2.8440   10.9230  -10.9570 N.3   146  GLN146     -0.1245
     87  CA         3.0080   12.3030  -11.3750 C.3   146  GLN146      0.1566
     88  C          1.6950   12.8700  -11.9010 C.2   146  GLN146      0.2260
     89  O          0.7320   12.1290  -12.1850 O.2   146  GLN146     -0.2867
     90  CB         4.0860   12.3910  -12.4450 C.3   146  GLN146      0.0367
     91  CG         5.4790   12.1140  -11.9320 C.3   146  GLN146      0.0905
     92  CD         6.4720   12.0900  -13.0480 C.2   146  GLN146      0.2608
     93  OE1        7.0940   13.1030  -13.3760 O.2   146  GLN146     -0.2717
     94  NE2        6.5630   10.9550  -13.7050 N.am  146  GLN146     -0.0878
     95  N          6.4020   15.7470   -6.7260 N.3   167  TYR167     -0.1241
     96  CA         7.5240   14.9590   -6.2060 C.3   167  TYR167      0.1605
     97  C          7.8350   15.2220   -4.7390 C.2   167  TYR167      0.2264
     98  O          8.0550   14.3330   -3.9510 O.2   167  TYR167     -0.2867
     99  CB         8.7660   15.2640   -7.0320 C.3   167  TYR167      0.0534
    100  CG         9.9920   14.4370   -6.7460 C.ar  167  TYR167     -0.0201
    101  CD1        9.9930   13.0550   -6.8790 C.ar  167  TYR167     -0.0009
    102  CD2       11.1740   15.0610   -6.3910 C.ar  167  TYR167     -0.0009
    103  CE1       11.1680   12.3270   -6.6790 C.ar  167  TYR167      0.0417
    104  CE2       12.3390   14.3480   -6.2010 C.ar  167  TYR167      0.0417
    105  CZ        12.3290   12.9840   -6.3180 C.ar  167  TYR167      0.1957
    106  OH        13.5330   12.3110   -6.1200 O.3   167  TYR167     -0.2866
    107  N          9.6350    5.0370   -9.3200 N.3   184  ASN184     -0.1225
    108  CA        10.7050    5.8940   -9.8120 C.3   184  ASN184      0.1785
    109  C         11.9460    5.0990  -10.1190 C.2   184  ASN184      0.2597
    110  O         11.9850    3.8890   -9.8960 O.2   184  ASN184     -0.2718
    111  CB        11.0250    6.9920   -8.8030 C.3   184  ASN184      0.1169
    112  CG        11.2220    8.3130   -9.4840 C.2   184  ASN184      0.2627
    113  OD1       11.9540    8.3760  -10.4570 O.2   184  ASN184     -0.2716
    114  ND2       10.5340    9.3600   -9.0270 N.am  184  ASN184     -0.0877
    115  N         12.9500    5.7850  -10.6400 N.am  185  ASN185     -0.1974
    116  CA        14.2430    5.1800  -10.9300 C.3   185  ASN185      0.1688
    117  C         15.1040    5.0540   -9.6560 C.2   185  ASN185      0.2292
    118  O         14.7060    5.5320   -8.5840 O.2   185  ASN185     -0.2864
    119  CB        14.9520    5.9880  -12.0170 C.3   185  ASN185      0.1181
    120  CG        15.1220    7.4470  -11.6450 C.2   185  ASN185      0.2629
    121  OD1       15.5510    7.7840  -10.5450 O.2   185  ASN185     -0.2716
    122  ND2       14.7740    8.3170  -12.5780 N.am  185  ASN185     -0.0877
    123  N         16.4450    8.4650   -7.9620 N.3   188  SER188     -0.1217
    124  CA        15.3880    9.2210   -7.3020 C.3   188  SER188      0.1889
    125  C         14.9290    8.5540   -6.0180 C.2   188  SER188      0.2288
    126  O         14.7190    9.2330   -5.0130 O.2   188  SER188     -0.2866
    127  CB        14.1740    9.4140   -8.2280 C.3   188  SER188      0.2089
    128  OG        14.5260   10.1880   -9.3680 O.3   188  SER188     -0.2183
    129  N         13.7550   12.8860  -19.0910 N.3   211  GLU211     -0.1245
    130  CA        13.7180   14.3030  -18.7160 C.3   211  GLU211      0.1567
    131  C         13.7470   15.1750  -19.9440 C.2   211  GLU211      0.2260
    132  O         14.2700   14.7810  -20.9730 O.2   211  GLU211     -0.2867
    133  CB        14.8980   14.6730  -17.8520 C.3   211  GLU211      0.0388
    134  CG        15.3500   13.6500  -16.8250 C.3   211  GLU211      0.1160
    135  CD        14.3400   13.3170  -15.7500 C.2   211  GLU211      0.3649
    136  OE1       13.1470   13.6560  -15.8530 O.co2 211  GLU211     -0.2457
    137  OE2       14.7500   12.6490  -14.7650 O.co2 211  GLU211     -0.2457
    138  N         24.9250    9.8460  -15.0280 N.3   246  TRP246     -0.1241
    139  CA        23.7030    9.1190  -14.7320 C.3   246  TRP246      0.1605
    140  C         23.9510    7.6160  -14.5830 C.2   246  TRP246      0.2264
    141  O         23.5300    7.0120  -13.6150 O.2   246  TRP246     -0.2867
    142  CB        22.6540    9.3540  -15.8230 C.3   246  TRP246      0.0550
    143  CG        21.3820    8.5990  -15.5380 C.ar  246  TRP246      0.0003
    144  CD1       20.9390    7.4570  -16.1600 C.ar  246  TRP246      0.0946
    145  CD2       20.4270    8.8840  -14.5150 C.ar  246  TRP246      0.0152
    146  NE1       19.7580    7.0550  -15.6210 N.ar  246  TRP246     -0.2442
    147  CE2       19.4200    7.9030  -14.5950 C.ar  246  TRP246      0.0810
    148  CE3       20.3280    9.8720  -13.5350 C.ar  246  TRP246      0.0012
    149  CZ2       18.3260    7.8870  -13.7290 C.ar  246  TRP246      0.0191
    150  CZ3       19.2260    9.8750  -12.6960 C.ar  246  TRP246      0.0001
    151  CH2       18.2530    8.8620  -12.7870 C.ar  246  TRP246      0.0015
@<TRIPOS>BOND
     1   132   131    2
     2   131   130    1
     3   129   130    1
     4   130   133    1
     5   133   134    1
     6    58    59    1
     7    52    53    2
     8    52    51    1
     9   134   135    1
    10    51    50    1
    11    51    54    1
    12    56    55    2
    13    44    45    1
    14    44    43    1
    15    59    62    1
    16    59    60    1
    17    57    55   am
    18    62    63    1
    19    40    39    1
    20    40    43    1
    21    40    41    1
    22   144   146   ar
    23   144   143   ar
    24    55    54    1
    25    60    61    2
    26    45    46    1
    27   136   135   ar
    28   142   143    1
    29   142   139    1
    30   135   137   ar
    31   146   147   ar
    32   143   145   ar
    33    41    42    2
    34   138   139    1
    35   139   140    1
    36   147   145   ar
    37   147   149   ar
    38   140   141    2
    39    49    47    1
    40   145   148   ar
    41    64    65    1
    42    46    47    2
    43    70    69    1
    44    70    71    1
    45    69    68    1
    46    47    48    1
    47   149   151   ar
    48    94    92   am
    49    67    66    2
    50   148   150   ar
    51    68    65    1
    52    33    32    2
    53    93    92    2
    54    65    66    1
    55    37    36   ar
    56    71    72    2
    57    92    91    1
    58    73    72    1
    59   151   150   ar
    60   122   120   am
    61    32    31    1
    62    90    91    1
    63    90    87    1
    64    36    38   ar
    65    36    35    1
    66    72    74    1
    67    34    31    1
    68    34    35    1
    69    89    88    2
    70   119   120    1
    71   119   116    1
    72    88    87    1
    73    31    30    1
    74   120   121    2
    75    87    86    1
    76    21    20    2
    77   116   115    1
    78   116   117    1
    79   115   109   am
    80    27    25   ar
    81    27    28   ar
    82    20    19    1
    83   113   112    2
    84    25    23   ar
    85    15    17   ar
    86    15    13   ar
    87    17    16   ar
    88   109   110    2
    89   109   108    1
    90    29    28    1
    91   108   107    1
    92   108   111    1
    93   117   118    2
    94    28    26   ar
    95   112   114   am
    96   112   111    1
    97     1     2    1
    98   128   127    1
    99    23    22    1
   100    23    24   ar
   101     7     5    1
   102    13    12    1
   103    13    14   ar
   104    19    22    1
   105    19    18    1
   106    16    14   ar
   107     6     5    1
   108    12     9    1
   109    84    83    1
   110    26    24   ar
   111    85    83    1
   112   127   124    1
   113     5     2    1
   114     2     3    1
   115     8     9    1
   116     8     3   am
   117    83    82    2
   118   123   124    1
   119    78    77    2
   120    77    76    1
   121     9    10    1
   122     3     4    2
   123   124   125    1
   124    82    81    1
   125    99   100    1
   126    99    96    1
   127    11    10    2
   128   101   100   ar
   129   101   103   ar
   130   100   102   ar
   131    95    96    1
   132    81    80    1
   133   103   105   ar
   134   102   104   ar
   135   105   104   ar
   136   105   106    1
   137    96    97    1
   138    76    75    1
   139    76    79    1
   140   125   126    2
   141    80    79    1
   142    97    98    2
