@<TRIPOS>MOLECULE
tmp/4n91A00.pdb
 140 130 0 0 0
SMALL
GASTEIGER

@<TRIPOS>ATOM
      1  N         16.8370   42.8230   27.2760 N.3     9  ASN9       -0.1225
      2  CA        17.1320   43.4480   28.5550 C.3     9  ASN9        0.1785
      3  C         15.9960   44.2590   29.1620 C.2     9  ASN9        0.2597
      4  O         16.1990   44.9830   30.1290 O.2     9  ASN9       -0.2718
      5  CB        18.3870   44.3120   28.4500 C.3     9  ASN9        0.1169
      6  CG        18.1860   45.5720   27.6340 C.2     9  ASN9        0.2627
      7  OD1       17.1250   45.8130   27.0690 O.2     9  ASN9       -0.2716
      8  ND2       19.2280   46.3990   27.5860 N.am    9  ASN9       -0.0877
      9  N         14.8140   44.1580   28.5760 N.am   10  GLN10      -0.1979
     10  CA        13.6410   44.9550   28.9780 C.3    10  GLN10       0.1601
     11  C         12.7210   44.1770   29.8970 C.2    10  GLN10       0.2287
     12  O         12.7810   42.9540   29.9990 O.2    10  GLN10      -0.2864
     13  CB        12.8450   45.4200   27.7610 C.3    10  GLN10       0.0394
     14  CG        13.6920   46.1510   26.7070 C.3    10  GLN10       0.0908
     15  CD        14.0530   47.5710   27.0790 C.2    10  GLN10       0.2608
     16  OE1       13.8580   48.0390   28.2130 O.2    10  GLN10      -0.2717
     17  NE2       14.5940   48.2780   26.1070 N.am   10  GLN10      -0.0878
     18  N          7.3930   45.6370   28.4190 N.3    14  HIS14      -0.1241
     19  CA         7.9370   46.5020   27.3830 C.3    14  HIS14       0.1621
     20  C          7.5290   45.9780   25.9890 C.2    14  HIS14       0.2264
     21  O          7.4350   44.7860   25.7870 O.2    14  HIS14      -0.2867
     22  CB         9.4650   46.4940   27.5580 C.3    14  HIS14       0.0745
     23  CG        10.1950   47.4700   26.6940 C.ar   14  HIS14       0.0817
     24  ND1       10.4260   47.2300   25.3600 N.ar   14  HIS14      -0.2268
     25  CD2       10.7790   48.6560   26.9730 C.ar   14  HIS14       0.1154
     26  CE1       11.1120   48.2370   24.8440 C.ar   14  HIS14       0.1986
     27  NE2       11.3460   49.1120   25.8130 N.ar   14  HIS14      -0.2212
     28  N         23.3560   43.4860   27.7710 N.3    48  GLN48      -0.1245
     29  CA        23.3140   43.3740   26.3280 C.3    48  GLN48       0.1566
     30  C         24.6630   42.9390   25.7400 C.2    48  GLN48       0.2260
     31  O         24.7410   42.0900   24.8400 O.2    48  GLN48      -0.2867
     32  CB        22.8900   44.7140   25.7360 C.3    48  GLN48       0.0367
     33  CG        21.9240   44.5980   24.6880 C.3    48  GLN48       0.0905
     34  CD        21.3760   45.9450   24.2760 C.2    48  GLN48       0.2608
     35  OE1       22.1260   46.8020   23.8510 O.2    48  GLN48      -0.2717
     36  NE2       20.0760   46.1080   24.3570 N.am   48  GLN48      -0.0878
     37  N         18.3760   40.8930   21.3890 N.3    63  VAL63      -0.1245
     38  CA        18.1590   42.2650   20.9790 C.3    63  VAL63       0.1561
     39  C         19.2970   43.0970   21.5090 C.2    63  VAL63       0.2260
     40  O         19.5860   43.0550   22.7010 O.2    63  VAL63      -0.2867
     41  CB        16.8090   42.8090   21.5230 C.3    63  VAL63       0.0252
     42  CG1       16.6260   44.2690   21.1550 C.3    63  VAL63       0.0019
     43  CG2       15.6480   42.0220   20.9640 C.3    63  VAL63       0.0019
     44  N         21.0610   47.1910   21.1570 N.3    65  SER65      -0.1217
     45  CA        21.0090   48.5250   20.5970 C.3    65  SER65       0.1889
     46  C         22.0840   48.6810   19.5440 C.2    65  SER65       0.2288
     47  O         23.2060   48.1820   19.6890 O.2    65  SER65      -0.2866
     48  CB        21.2210   49.5800   21.6800 C.3    65  SER65       0.2089
     49  OG        21.2260   50.8840   21.1350 O.3    65  SER65      -0.2183
     50  N         12.9440   52.2750   19.2520 N.3   120  ALA120     -0.1245
     51  CA        13.3010   52.7540   20.5880 C.3   120  ALA120      0.1562
     52  C         13.1800   54.2810   20.6500 C.2   120  ALA120      0.2260
     53  O         13.8260   54.9360   21.4690 O.2   120  ALA120     -0.2867
     54  CB        14.6930   52.2980   20.9610 C.3   120  ALA120      0.0290
     55  N         16.4600   59.5880   21.7030 N.3   123  ARG123     -0.1245
     56  CA        17.1780   59.7190   22.9550 C.3   123  ARG123      0.1563
     57  C         17.4080   61.1820   23.2830 C.2   123  ARG123      0.2260
     58  O         17.8540   61.9620   22.4390 O.2   123  ARG123     -0.2867
     59  CB        18.5110   58.9770   22.8880 C.3   123  ARG123      0.0307
     60  CG        18.3110   57.4930   22.6050 C.3   123  ARG123      0.0489
     61  CD        19.5650   56.7500   22.4860 C.3   123  ARG123      0.2205
     62  NE        20.3000   56.5620   23.7410 N.pl3 123  ARG123     -0.0865
     63  CZ        20.2190   55.4840   24.5090 C.cat 123  ARG123      0.5346
     64  NH1       19.3860   54.4900   24.2040 N.pl3 123  ARG123      0.1354
     65  NH2       20.9790   55.4030   25.5940 N.pl3 123  ARG123      0.1354
     66  N         25.5650   59.0080   31.8770 N.3   144  ARG144     -0.1245
     67  CA        25.6730   57.6200   31.4210 C.3   144  ARG144      0.1563
     68  C         25.3420   57.5390   29.9370 C.2   144  ARG144      0.2260
     69  O         24.3990   58.2000   29.4490 O.2   144  ARG144     -0.2867
     70  CB        24.7470   56.6930   32.2110 C.3   144  ARG144      0.0307
     71  CG        24.8020   55.2490   31.7610 C.3   144  ARG144      0.0489
     72  CD        23.7600   54.9070   30.6910 C.3   144  ARG144      0.2205
     73  NE        23.8690   53.5410   30.2200 N.pl3 144  ARG144     -0.0865
     74  CZ        23.0220   52.9930   29.3590 C.cat 144  ARG144      0.5346
     75  NH1       22.0120   53.7190   28.8900 N.pl3 144  ARG144      0.1354
     76  NH2       23.1820   51.7350   28.9740 N.pl3 144  ARG144      0.1354
     77  N         25.6020   54.3060   26.5980 N.3   146  GLN146     -0.1245
     78  CA        25.8550   52.9080   26.3040 C.3   146  GLN146      0.1566
     79  C         27.3260   52.7060   25.9900 C.2   146  GLN146      0.2260
     80  O         28.0830   53.6790   25.8690 O.2   146  GLN146     -0.2867
     81  CB        24.9940   52.4720   25.1370 C.3   146  GLN146      0.0367
     82  CG        23.4960   52.6410   25.4110 C.3   146  GLN146      0.0905
     83  CD        22.6590   52.0540   24.2910 C.2   146  GLN146      0.2608
     84  OE1       22.4580   50.8420   24.2150 O.2   146  GLN146     -0.2717
     85  NE2       22.1950   52.9010   23.4190 N.am  146  GLN146     -0.0878
     86  N         22.5920   48.9020   30.7920 N.3   164  PHE164     -0.1241
     87  CA        21.3090   49.5570   31.0570 C.3   164  PHE164      0.1605
     88  C         20.7970   49.2260   32.4550 C.2   164  PHE164      0.2264
     89  O         20.2700   50.0850   33.1540 O.2   164  PHE164     -0.2867
     90  CB        20.3390   49.1090   29.9830 C.3   164  PHE164      0.0534
     91  CG        19.0440   49.8870   29.9170 C.ar  164  PHE164     -0.0203
     92  CD1       19.0320   51.2680   29.9990 C.ar  164  PHE164     -0.0042
     93  CD2       17.8560   49.2290   29.6990 C.ar  164  PHE164     -0.0042
     94  CE1       17.8520   51.9760   29.9000 C.ar  164  PHE164     -0.0003
     95  CE2       16.6610   49.9410   29.5990 C.ar  164  PHE164     -0.0003
     96  CZ        16.6650   51.2970   29.6880 C.ar  164  PHE164     -0.0000
     97  N         18.0110   58.9040   26.9950 N.3   181  ASN181     -0.1225
     98  CA        17.2390   57.8030   26.4860 C.3   181  ASN181      0.1785
     99  C         15.8680   58.2800   26.0700 C.2   181  ASN181      0.2597
    100  O         15.5410   59.4550   26.1900 O.2   181  ASN181     -0.2718
    101  CB        17.0740   56.7220   27.5640 C.3   181  ASN181      0.1169
    102  CG        17.1730   55.3390   26.9850 C.2   181  ASN181      0.2627
    103  OD1       16.4940   55.0180   26.0050 O.2   181  ASN181     -0.2716
    104  ND2       18.0590   54.5170   27.5540 N.am  181  ASN181     -0.0877
    105  N         15.0600   57.3360   25.6170 N.am  182  ASN182     -0.1974
    106  CA        13.6580   57.5900   25.4110 C.3   182  ASN182      0.1688
    107  C         12.8980   57.6460   26.7410 C.2   182  ASN182      0.2292
    108  O         13.4560   57.4100   27.8130 O.2   182  ASN182     -0.2864
    109  CB        13.0590   56.5510   24.4690 C.3   182  ASN182      0.1181
    110  CG        13.1500   55.1350   25.0110 C.2   182  ASN182      0.2629
    111  OD1       12.7800   54.8540   26.1760 O.2   182  ASN182     -0.2716
    112  ND2       13.6890   54.2340   24.1940 N.am  182  ASN182     -0.0877
    113  N         12.5560   54.7320   29.7190 N.3   184  SER184     -0.1217
    114  CA        13.5570   54.6020   30.7730 C.3   184  SER184      0.1889
    115  C         13.0710   55.2170   32.0640 C.2   184  SER184      0.2288
    116  O         13.4530   54.7650   33.1370 O.2   184  SER184     -0.2866
    117  CB        14.8710   55.3010   30.3870 C.3   184  SER184      0.2089
    118  OG        15.6130   54.4970   29.4700 O.3   184  SER184     -0.2183
    119  N         16.9530   49.5430   17.9470 N.3   205  ASP205     -0.1239
    120  CA        17.3030   48.2550   18.5180 C.3   205  ASP205      0.1674
    121  C         17.3370   47.2430   17.3730 C.2   205  ASP205      0.2266
    122  O         16.5070   47.2880   16.4420 O.2   205  ASP205     -0.2867
    123  CB        16.2900   47.8410   19.5920 C.3   205  ASP205      0.1410
    124  CG        16.4520   48.5930   20.8950 C.2   205  ASP205      0.3668
    125  OD1       17.5870   49.0390   21.2210 O.co2 205  ASP205     -0.2456
    126  OD2       15.4390   48.7020   21.6240 O.co2 205  ASP205     -0.2456
    127  N          5.0020   49.9300   20.7540 N.3   240  TRP240     -0.1241
    128  CA         5.8740   51.0510   21.0930 C.3   240  TRP240      0.1605
    129  C          5.0810   52.3510   21.1580 C.2   240  TRP240      0.2264
    130  O          5.2060   53.1280   22.0980 O.2   240  TRP240     -0.2867
    131  CB         7.0230   51.1880   20.0890 C.3   240  TRP240      0.0550
    132  CG         7.8410   52.3590   20.4490 C.ar  240  TRP240      0.0003
    133  CD1        7.8160   53.6030   19.8670 C.ar  240  TRP240      0.0946
    134  CD2        8.7720   52.4400   21.5290 C.ar  240  TRP240      0.0152
    135  NE1        8.6820   54.4420   20.5210 N.ar  240  TRP240     -0.2442
    136  CE2        9.2670   53.7550   21.5550 C.ar  240  TRP240      0.0810
    137  CE3        9.2300   51.5240   22.4900 C.ar  240  TRP240      0.0012
    138  CZ2       10.1960   54.1810   22.5010 C.ar  240  TRP240      0.0191
    139  CZ3       10.1500   51.9520   23.4220 C.ar  240  TRP240      0.0001
    140  CH2       10.6250   53.2660   23.4150 C.ar  240  TRP240      0.0015
@<TRIPOS>BOND
     1   122   121    2
     2   121   120    1
     3   119   120    1
     4   120   123    1
     5    50    51    1
     6    46    47    2
     7    46    45    1
     8   123   124    1
     9   133   132   ar
    10   133   135   ar
    11   131   132    1
    12   131   128    1
    13   132   134   ar
    14   135   136   ar
    15    51    52    1
    16    51    54    1
    17    45    44    1
    18    45    48    1
    19    52    53    2
    20   127   128    1
    21   124   125   ar
    22   124   126   ar
    23    43    41    1
    24    38    37    1
    25    38    39    1
    26    38    41    1
    27   128   129    1
    28    49    48    1
    29    42    41    1
    30   129   130    2
    31    39    40    2
    32   134   136   ar
    33   134   137   ar
    34   136   138   ar
    35    55    56    1
    36    58    57    2
    37    61    60    1
    38    61    62    1
    39   137   139   ar
    40   138   140   ar
    41    60    59    1
    42    59    56    1
    43    56    57    1
    44   140   139   ar
    45    85    83   am
    46    62    63    2
    47    35    34    2
    48   112   110   am
    49    64    63    1
    50    84    83    2
    51    34    36   am
    52    34    33    1
    53    83    82    1
    54   109   110    1
    55   109   106    1
    56    63    65    1
    57    33    32    1
    58    31    30    2
    59    26    24   ar
    60    26    27   ar
    61   110   111    2
    62    81    82    1
    63    81    78    1
    64    24    23   ar
    65   106   105    1
    66   106   107    1
    67   105    99   am
    68    32    29    1
    69    30    29    1
    70    21    20    2
    71    27    25   ar
    72    80    79    2
    73    20    19    1
    74    79    78    1
    75   103   102    2
    76    99   100    2
    77    99    98    1
    78    17    15   am
    79    78    77    1
    80    29    28    1
    81    98    97    1
    82    98   101    1
    83    23    25   ar
    84    23    22    1
    85    14    15    1
    86    14    13    1
    87   107   108    2
    88   102   104   am
    89   102   101    1
    90     7     6    2
    91    15    16    2
    92     1     2    1
    93    19    22    1
    94    19    18    1
    95     8     6   am
    96     6     5    1
    97    13    10    1
    98     5     2    1
    99     2     3    1
   100     9    10    1
   101     9     3   am
   102    75    74    1
   103    76    74    1
   104    10    11    1
   105     3     4    2
   106    74    73    2
   107    69    68    2
   108   118   117    1
   109    95    96   ar
   110    95    93   ar
   111    96    94   ar
   112    93    91   ar
   113   113   114    1
   114    11    12    2
   115    94    92   ar
   116    91    90    1
   117    91    92   ar
   118    68    67    1
   119    90    87    1
   120    73    72    1
   121   117   114    1
   122    72    71    1
   123   114   115    1
   124    86    87    1
   125    87    88    1
   126    67    66    1
   127    67    70    1
   128    71    70    1
   129   115   116    2
   130    88    89    2
