@<TRIPOS>MOLECULE
tmp/4n93A02.pdb
 84 81 0 0 0
SMALL
GASTEIGER

@<TRIPOS>ATOM
      1  N         -7.2100  -29.6710   10.9030 N.3    63  MET63      -0.1245
      2  CA        -8.4980  -30.2960   11.0740 C.3    63  MET63       0.1570
      3  C         -9.0580  -30.7450    9.6940 C.2    63  MET63       0.2261
      4  O         -9.5310  -31.8690    9.5410 O.2    63  MET63      -0.2867
      5  CB        -9.4210  -29.3170   11.8170 C.3    63  MET63       0.0387
      6  CG       -10.8230  -29.8070   11.9670 C.3    63  MET63       0.0595
      7  SD       -11.6390  -28.8620   13.2730 S.3    63  MET63      -0.1393
      8  CE       -13.2010  -29.7080   13.1390 C.3    63  MET63       0.0692
      9  N        -24.2500  -27.9220   12.5500 N.3   115  ASN115     -0.1240
     10  CA       -24.2060  -28.8270   13.6900 C.3   115  ASN115      0.1653
     11  C        -25.4550  -28.5630   14.5360 C.2   115  ASN115      0.2266
     12  O        -26.1190  -27.5230   14.3770 O.2   115  ASN115     -0.2867
     13  CB       -22.9310  -28.5570   14.5140 C.3   115  ASN115      0.1155
     14  CG       -22.4900  -29.7660   15.3520 C.2   115  ASN115      0.2627
     15  OD1      -23.1610  -30.8170   15.3790 O.2   115  ASN115     -0.2716
     16  ND2      -21.3370  -29.6250   16.0240 N.am  115  ASN115     -0.0877
     17  N        -21.3120  -31.8590   10.7660 N.3   156  ALA156     -0.1231
     18  CA       -19.9410  -31.8800   11.3110 C.3   156  ALA156      0.1679
     19  C        -19.4780  -33.1960   11.9600 C.2   156  ALA156      0.2434
     20  O        -18.4240  -33.7270   11.5860 O.2   156  ALA156     -0.2733
     21  CB       -19.7080  -30.6620   12.2590 C.3   156  ALA156      0.0304
     22  N        -20.2630  -33.7580   12.9120 N.am  157  PRO157     -0.2729
     23  CA       -19.8560  -35.0470   13.4960 C.3   157  PRO157      0.1401
     24  C        -19.6310  -36.1640   12.4860 C.2   157  PRO157      0.2269
     25  O        -18.8090  -37.0520   12.7210 O.2   157  PRO157     -0.2865
     26  CB       -21.0480  -35.4050   14.4110 C.3   157  PRO157      0.0296
     27  CG       -21.5300  -34.1180   14.8690 C.3   157  PRO157      0.0237
     28  CD       -21.4240  -33.2010   13.6390 C.3   157  PRO157      0.0939
     29  N        -16.2140  -35.0520   10.4230 N.3   160  HIS160     -0.1227
     30  CA       -15.0400  -34.8060   11.2560 C.3   160  HIS160      0.1737
     31  C        -14.9440  -35.7660   12.4450 C.2   160  HIS160      0.2438
     32  O        -14.8270  -35.3140   13.5920 O.2   160  HIS160     -0.2733
     33  CB       -15.0530  -33.3790   11.7770 C.3   160  HIS160      0.0758
     34  CG       -14.9050  -32.3460   10.7110 C.ar  160  HIS160      0.0818
     35  ND1      -15.9280  -31.5000   10.3440 N.ar  160  HIS160     -0.2268
     36  CD2      -13.8410  -31.9840    9.9710 C.ar  160  HIS160      0.1154
     37  CE1      -15.5080  -30.6810    9.4010 C.ar  160  HIS160      0.1986
     38  NE2      -14.2410  -30.9540    9.1580 N.ar  160  HIS160     -0.2212
     39  N        -14.9190  -37.0810   12.1790 N.am  161  PRO161     -0.2729
     40  CA       -14.8480  -38.0300   13.3140 C.3   161  PRO161      0.1401
     41  C        -13.6240  -37.8690   14.2570 C.2   161  PRO161      0.2269
     42  O        -13.7270  -38.1090   15.4690 O.2   161  PRO161     -0.2865
     43  CB       -14.8360  -39.4020   12.6110 C.3   161  PRO161      0.0296
     44  CG       -14.2010  -39.1040   11.2630 C.3   161  PRO161      0.0237
     45  CD       -14.8170  -37.7810   10.8800 C.3   161  PRO161      0.0939
     46  N        -12.2730  -35.3040   15.3370 N.3   163  TYR163     -0.1227
     47  CA       -12.4180  -34.0970   16.1530 C.3   163  TYR163      0.1736
     48  C        -13.1360  -34.4320   17.4650 C.2   163  TYR163      0.2595
     49  O        -13.3720  -33.5580   18.2920 O.2   163  TYR163     -0.2718
     50  CB       -13.2220  -33.0400   15.3790 C.3   163  TYR163      0.0548
     51  CG       -13.3370  -31.6970   16.0710 C.ar  163  TYR163     -0.0200
     52  CD1      -12.2230  -30.8720   16.2110 C.ar  163  TYR163     -0.0009
     53  CD2      -14.5590  -31.2500   16.5850 C.ar  163  TYR163     -0.0009
     54  CE1      -12.3130  -29.6170   16.8010 C.ar  163  TYR163      0.0417
     55  CE2      -14.6690  -29.9790   17.2130 C.ar  163  TYR163      0.0417
     56  CZ       -13.5420  -29.1840   17.3170 C.ar  163  TYR163      0.1957
     57  OH       -13.6160  -27.9520   17.9250 O.3   163  TYR163     -0.2866
     58  N        -13.4800  -35.6990   17.6400 N.am  164  ARG164     -0.1980
     59  CA       -14.3250  -36.1240   18.7670 C.3   164  ARG164      0.1597
     60  C        -13.6900  -35.8640   20.1420 C.2   164  ARG164      0.2287
     61  O        -14.4080  -35.6280   21.1210 O.2   164  ARG164     -0.2864
     62  CB       -14.7390  -37.6060   18.6200 C.3   164  ARG164      0.0334
     63  CG       -13.5920  -38.6190   18.7110 C.3   164  ARG164      0.0492
     64  CD       -14.0940  -40.0460   18.3740 C.3   164  ARG164      0.2205
     65  NE       -13.0240  -41.0410   18.4220 N.pl3 164  ARG164     -0.0865
     66  CZ       -12.2270  -41.3330   17.3940 C.cat 164  ARG164      0.5346
     67  NH1      -12.3680  -40.7020   16.2250 N.pl3 164  ARG164      0.1354
     68  NH2      -11.2680  -42.2490   17.5290 N.pl3 164  ARG164      0.1354
     69  N        -14.1260  -32.1260   20.6930 N.3   167  ALA167     -0.1245
     70  CA       -15.5640  -31.8220   20.8730 C.3   167  ALA167      0.1562
     71  C        -16.0130  -32.1330   22.3000 C.2   167  ALA167      0.2260
     72  O        -16.7240  -31.3440   22.9130 O.2   167  ALA167     -0.2867
     73  CB       -16.4190  -32.6000   19.8620 C.3   167  ALA167      0.0290
     74  N        -17.3720  -29.5180   25.3200 N.3   171  ARG171     -0.1245
     75  CA       -18.5930  -29.7340   26.1180 C.3   171  ARG171      0.1563
     76  C        -18.3120  -29.7090   27.6210 C.2   171  ARG171      0.2260
     77  O        -19.0280  -29.0310   28.3540 O.2   171  ARG171     -0.2867
     78  CB       -19.2700  -31.0610   25.7870 C.3   171  ARG171      0.0307
     79  CG       -20.0230  -31.0630   24.4700 C.3   171  ARG171      0.0489
     80  CD       -20.9060  -32.3180   24.3200 C.3   171  ARG171      0.2205
     81  NE       -20.1240  -33.5410   24.1110 N.pl3 171  ARG171     -0.0865
     82  CZ       -19.6270  -33.9360   22.9330 C.cat 171  ARG171      0.5346
     83  NH1      -19.8180  -33.2000   21.8290 N.pl3 171  ARG171      0.1354
     84  NH2      -18.9340  -35.0700   22.8630 N.pl3 171  ARG171      0.1354
@<TRIPOS>BOND
     1    38    37   ar
     2    38    36   ar
     3    37    35   ar
     4     4     3    2
     5     3     2    1
     6    36    34   ar
     7    35    34   ar
     8    29    30    1
     9    34    33    1
    10    17    18    1
    11    45    44    1
    12    45    39    1
    13     1     2    1
    14     2     5    1
    15    30    33    1
    16    30    31    1
    17    44    43    1
    18    18    19    1
    19    18    21    1
    20    20    19    2
    21     5     6    1
    22    19    22   am
    23     6     7    1
    24    39    31   am
    25    39    40    1
    26    31    32    2
    27    24    25    2
    28    24    23    1
    29     9    10    1
    30    43    40    1
    31    22    23    1
    32    22    28    1
    33     8     7    1
    34    40    41    1
    35    23    26    1
    36    28    27    1
    37    10    13    1
    38    10    11    1
    39    41    42    2
    40    12    11    2
    41    26    27    1
    42    13    14    1
    43    46    47    1
    44    14    15    2
    45    14    16   am
    46    50    51    1
    47    50    47    1
    48    51    52   ar
    49    51    53   ar
    50    47    48    1
    51    52    54   ar
    52    67    66    1
    53    53    55   ar
    54    54    56   ar
    55    55    56   ar
    56    56    57    1
    57    66    68    1
    58    66    65    2
    59    48    58   am
    60    48    49    2
    61    58    59    1
    62    64    65    1
    63    64    63    1
    64    62    63    1
    65    62    59    1
    66    59    60    1
    67    73    70    1
    68    60    61    2
    69    69    70    1
    70    70    71    1
    71    83    82    1
    72    71    72    2
    73    84    82    1
    74    82    81    2
    75    81    80    1
    76    80    79    1
    77    79    78    1
    78    74    75    1
    79    78    75    1
    80    75    76    1
    81    76    77    2
