@<TRIPOS>MOLECULE
tmp/4n93A00.pdb
 125 119 0 0 0
SMALL
GASTEIGER

@<TRIPOS>ATOM
      1  N         -7.2100  -29.6710   10.9030 N.3    63  MET63      -0.1245
      2  CA        -8.4980  -30.2960   11.0740 C.3    63  MET63       0.1570
      3  C         -9.0580  -30.7450    9.6940 C.2    63  MET63       0.2261
      4  O         -9.5310  -31.8690    9.5410 O.2    63  MET63      -0.2867
      5  CB        -9.4210  -29.3170   11.8170 C.3    63  MET63       0.0387
      6  CG       -10.8230  -29.8070   11.9670 C.3    63  MET63       0.0595
      7  SD       -11.6390  -28.8620   13.2730 S.3    63  MET63      -0.1393
      8  CE       -13.2010  -29.7080   13.1390 C.3    63  MET63       0.0692
      9  N        -23.0860  -19.8690    7.4940 N.3    83  VAL83      -0.1231
     10  CA       -22.9180  -20.5340    8.7750 C.3    83  VAL83       0.1692
     11  C        -22.1690  -19.5770    9.6930 C.2    83  VAL83       0.2593
     12  O        -21.4150  -18.7100    9.2360 O.2    83  VAL83      -0.2718
     13  CB       -22.1400  -21.8810    8.6090 C.3    83  VAL83       0.0266
     14  CG1      -20.6330  -21.6370    8.3630 C.3    83  VAL83       0.0020
     15  CG2      -22.3650  -22.8080    9.8120 C.3    83  VAL83       0.0020
     16  N        -22.3760  -19.7440   10.9980 N.am   84  GLY84      -0.1942
     17  CA       -21.6990  -18.9130   11.9820 C.3    84  GLY84       0.2014
     18  C        -21.1350  -19.7150   13.1380 C.2    84  GLY84       0.2640
     19  O        -21.3600  -20.9350   13.2410 O.2    84  GLY84      -0.2714
     20  N        -20.4150  -19.0210   14.0200 N.am   85  THR85      -0.1936
     21  CA       -19.8530  -19.6490   15.2230 C.3    85  THR85       0.2028
     22  C        -20.9450  -20.1220   16.1830 C.2    85  THR85       0.2642
     23  O        -20.7350  -21.0810   16.9650 O.2    85  THR85      -0.2714
     24  CB       -18.9180  -18.6880   15.9820 C.3    85  THR85       0.1808
     25  OG1      -19.6050  -17.4630   16.2710 O.3    85  THR85      -0.2208
     26  CG2      -17.6870  -18.3660   15.1750 C.3    85  THR85       0.0379
     27  N        -22.1080  -19.4710   16.1210 N.am   86  GLY86      -0.1954
     28  CA       -23.0990  -19.5900   17.1980 C.3    86  GLY86       0.1869
     29  C        -22.5300  -18.9240   18.4380 C.2    86  GLY86       0.2309
     30  O        -21.5880  -18.1380   18.3370 O.2    86  GLY86      -0.2863
     31  N        -22.3650  -26.2750    5.9820 N.3   113  HIS113     -0.1226
     32  CA       -21.7580  -26.9690    7.1050 C.3   113  HIS113      0.1752
     33  C        -22.6320  -26.5410    8.2600 C.2   113  HIS113      0.2597
     34  O        -23.1870  -25.4220    8.2430 O.2   113  HIS113     -0.2718
     35  CB       -20.3360  -26.4260    7.3090 C.3   113  HIS113      0.0759
     36  CG       -19.4600  -27.2970    8.1600 C.ar  113  HIS113      0.0818
     37  ND1      -18.3500  -26.8110    8.8190 N.ar  113  HIS113     -0.2268
     38  CD2      -19.5160  -28.6170    8.4460 C.ar  113  HIS113      0.1154
     39  CE1      -17.7580  -27.7950    9.4720 C.ar  113  HIS113      0.1986
     40  NE2      -18.4430  -28.9030    9.2610 N.ar  113  HIS113     -0.2212
     41  N        -22.7870  -27.4250    9.2340 N.am  114  GLY114     -0.1942
     42  CA       -23.6200  -27.1240   10.3790 C.3   114  GLY114      0.2014
     43  C        -23.5540  -28.1810   11.4600 C.2   114  GLY114      0.2639
     44  O        -22.9210  -29.2130   11.3190 O.2   114  GLY114     -0.2714
     45  N        -24.2500  -27.9220   12.5500 N.am  115  ASN115     -0.1958
     46  CA       -24.2060  -28.8270   13.6900 C.3   115  ASN115      0.1819
     47  C        -25.4550  -28.5630   14.5360 C.2   115  ASN115      0.2621
     48  O        -26.1190  -27.5230   14.3770 O.2   115  ASN115     -0.2715
     49  CB       -22.9310  -28.5570   14.5140 C.3   115  ASN115      0.1195
     50  CG       -22.4900  -29.7660   15.3520 C.2   115  ASN115      0.2630
     51  OD1      -23.1610  -30.8170   15.3790 O.2   115  ASN115     -0.2716
     52  ND2      -21.3370  -29.6250   16.0240 N.am  115  ASN115     -0.0877
     53  N        -25.7810  -29.5080   15.4020 N.am  116  ARG116     -0.1977
     54  CA       -26.7580  -29.2790   16.4720 C.3   116  ARG116      0.1597
     55  C        -26.4910  -28.0170   17.3190 C.2   116  ARG116      0.2287
     56  O        -25.4020  -27.4210   17.2700 O.2   116  ARG116     -0.2864
     57  CB       -26.8390  -30.5170   17.3710 C.3   116  ARG116      0.0334
     58  CG       -27.2210  -31.7250   16.5710 C.3   116  ARG116      0.0492
     59  CD       -27.9180  -32.7410   17.3980 C.3   116  ARG116      0.2205
     60  NE       -28.1380  -33.9640   16.6380 N.pl3 116  ARG116     -0.0865
     61  CZ       -29.2900  -34.2830   16.0610 C.cat 116  ARG116      0.5346
     62  NH1      -30.3290  -33.4550   16.1440 N.pl3 116  ARG116      0.1354
     63  NH2      -29.3940  -35.4130   15.3960 N.pl3 116  ARG116      0.1354
     64  N        -25.4980  -25.8660   20.4470 N.3   118  ALA118     -0.1245
     65  CA       -24.5180  -25.9980   21.4920 C.3   118  ALA118      0.1562
     66  C        -25.0900  -25.4360   22.7710 C.2   118  ALA118      0.2260
     67  O        -25.2410  -26.1310   23.7280 O.2   118  ALA118     -0.2867
     68  CB       -23.2150  -25.3350   21.1220 C.3   118  ALA118      0.0290
     69  N        -21.3120  -31.8590   10.7660 N.3   156  ALA156     -0.1245
     70  CA       -19.9410  -31.8800   11.3110 C.3   156  ALA156      0.1562
     71  C        -19.4780  -33.1960   11.9600 C.2   156  ALA156      0.2260
     72  O        -18.4240  -33.7270   11.5860 O.2   156  ALA156     -0.2867
     73  CB       -19.7080  -30.6620   12.2590 C.3   156  ALA156      0.0290
     74  N        -16.2140  -35.0520   10.4230 N.3   160  HIS160     -0.1241
     75  CA       -15.0400  -34.8060   11.2560 C.3   160  HIS160      0.1621
     76  C        -14.9440  -35.7660   12.4450 C.2   160  HIS160      0.2264
     77  O        -14.8270  -35.3140   13.5920 O.2   160  HIS160     -0.2867
     78  CB       -15.0530  -33.3790   11.7770 C.3   160  HIS160      0.0745
     79  CG       -14.9050  -32.3460   10.7110 C.ar  160  HIS160      0.0817
     80  ND1      -15.9280  -31.5000   10.3440 N.ar  160  HIS160     -0.2268
     81  CD2      -13.8410  -31.9840    9.9710 C.ar  160  HIS160      0.1154
     82  CE1      -15.5080  -30.6810    9.4010 C.ar  160  HIS160      0.1986
     83  NE2      -14.2410  -30.9540    9.1580 N.ar  160  HIS160     -0.2212
     84  N        -12.2730  -35.3040   15.3370 N.3   163  TYR163     -0.1241
     85  CA       -12.4180  -34.0970   16.1530 C.3   163  TYR163      0.1605
     86  C        -13.1360  -34.4320   17.4650 C.2   163  TYR163      0.2264
     87  O        -13.3720  -33.5580   18.2920 O.2   163  TYR163     -0.2867
     88  CB       -13.2220  -33.0400   15.3790 C.3   163  TYR163      0.0534
     89  CG       -13.3370  -31.6970   16.0710 C.ar  163  TYR163     -0.0201
     90  CD1      -12.2230  -30.8720   16.2110 C.ar  163  TYR163     -0.0009
     91  CD2      -14.5590  -31.2500   16.5850 C.ar  163  TYR163     -0.0009
     92  CE1      -12.3130  -29.6170   16.8010 C.ar  163  TYR163      0.0417
     93  CE2      -14.6690  -29.9790   17.2130 C.ar  163  TYR163      0.0417
     94  CZ       -13.5420  -29.1840   17.3170 C.ar  163  TYR163      0.1957
     95  OH       -13.6160  -27.9520   17.9250 O.3   163  TYR163     -0.2866
     96  N        -14.6130  -29.5680   24.6180 N.3   170  ARG170     -0.1245
     97  CA       -15.3980  -28.3510   24.4620 C.3   170  ARG170      0.1563
     98  C        -16.6810  -28.3790   25.3360 C.2   170  ARG170      0.2260
     99  O        -17.0070  -27.3760   25.9950 O.2   170  ARG170     -0.2867
    100  CB       -15.7370  -28.0770   22.9750 C.3   170  ARG170      0.0307
    101  CG       -16.7910  -26.9520   22.7850 C.3   170  ARG170      0.0489
    102  CD       -17.0730  -26.5420   21.3100 C.3   170  ARG170      0.2205
    103  NE       -18.3010  -25.7440   21.2720 N.pl3 170  ARG170     -0.0865
    104  CZ       -18.8490  -25.2090   20.1770 C.cat 170  ARG170      0.5346
    105  NH1      -18.2830  -25.3720   18.9770 N.pl3 170  ARG170      0.1354
    106  NH2      -19.9880  -24.5210   20.2850 N.pl3 170  ARG170      0.1354
    107  N        -14.2620  -22.7530   19.0830 N.3   180  ASN180     -0.1240
    108  CA       -15.5880  -22.3010   18.5890 C.3   180  ASN180      0.1653
    109  C        -15.5200  -21.6280   17.2000 C.2   180  ASN180      0.2266
    110  O        -16.5370  -21.4700   16.5270 O.2   180  ASN180     -0.2867
    111  CB       -16.2070  -21.3220   19.6110 C.3   180  ASN180      0.1155
    112  CG       -16.6800  -22.0180   20.8700 C.2   180  ASN180      0.2627
    113  OD1      -17.8800  -22.0150   21.1580 O.2   180  ASN180     -0.2716
    114  ND2      -15.7630  -22.6600   21.6090 N.am  180  ASN180     -0.0877
    115  N        -15.5700  -24.5320   13.3250 N.3   183  GLY183     -0.1210
    116  CA       -16.7080  -25.0250   12.4890 C.3   183  GLY183      0.1940
    117  C        -16.8380  -24.3140   11.1430 C.2   183  GLY183      0.2453
    118  O        -16.7170  -24.9340   10.0920 O.2   183  GLY183     -0.2732
    119  N        -17.0640  -22.9960   11.1630 N.am  184  PRO184     -0.2728
    120  CA       -17.1240  -22.1920    9.9580 C.3   184  PRO184      0.1401
    121  C        -15.8880  -22.2800    9.0550 C.2   184  PRO184      0.2269
    122  O        -16.0170  -22.1300    7.8580 O.2   184  PRO184     -0.2865
    123  CB       -17.2790  -20.7570   10.4970 C.3   184  PRO184      0.0296
    124  CG       -17.9410  -20.9140   11.8130 C.3   184  PRO184      0.0237
    125  CD       -17.3160  -22.1880   12.3720 C.3   184  PRO184      0.0939
@<TRIPOS>BOND
     1    31    32    1
     2    32    35    1
     3    32    33    1
     4    35    36    1
     5     9    10    1
     6   122   121    2
     7    36    38   ar
     8    36    37   ar
     9    34    33    2
    10    33    41   am
    11    14    13    1
    12    38    40   ar
    13    13    10    1
    14    13    15    1
    15    10    11    1
    16    37    39   ar
    17   121   120    1
    18    83    82   ar
    19    83    81   ar
    20    41    42    1
    21    12    11    2
    22    40    39   ar
    23    82    80   ar
    24     4     3    2
    25    11    16   am
    26     3     2    1
    27   120   123    1
    28   120   119    1
    29    81    79   ar
    30   118   117    2
    31    80    79   ar
    32    42    43    1
    33    74    75    1
    34   123   124    1
    35    79    78    1
    36    69    70    1
    37     1     2    1
    38    16    17    1
    39     2     5    1
    40   117   119   am
    41   117   116    1
    42   119   125    1
    43    75    78    1
    44    75    76    1
    45    70    71    1
    46    70    73    1
    47    44    43    2
    48    43    45   am
    49    72    71    2
    50   124   125    1
    51     5     6    1
    52     6     7    1
    53    17    18    1
    54    76    77    2
    55   116   115    1
    56    45    46    1
    57    18    19    2
    58    18    20   am
    59     8     7    1
    60    46    49    1
    61    46    47    1
    62    20    21    1
    63    48    47    2
    64    49    50    1
    65    47    53   am
    66    26    24    1
    67    21    24    1
    68    21    22    1
    69    84    85    1
    70    50    51    2
    71    50    52   am
    72    88    89    1
    73    88    85    1
    74    63    61    1
    75    53    54    1
    76    24    25    1
    77    61    62    1
    78    61    60    2
    79    89    90   ar
    80    89    91   ar
    81    27    22   am
    82    27    28    1
    83    85    86    1
    84    22    23    2
    85    90    92   ar
    86    54    55    1
    87    54    57    1
    88   110   109    2
    89    58    57    1
    90    58    59    1
    91    91    93   ar
    92    60    59    1
    93    92    94   ar
    94    28    29    1
    95   109   108    1
    96    93    94   ar
    97    56    55    2
    98    94    95    1
    99    86    87    2
   100    30    29    2
   101   108   107    1
   102   108   111    1
   103   105   104    1
   104   111   112    1
   105   104   106    1
   106   104   103    2
   107    64    65    1
   108   112   113    2
   109   112   114   am
   110    68    65    1
   111   103   102    1
   112   102   101    1
   113    65    66    1
   114    66    67    2
   115   101   100    1
   116   100    97    1
   117    97    96    1
   118    97    98    1
   119    98    99    2
