@<TRIPOS>MOLECULE
tmp/4n94A00.pdb
 94 87 0 0 0
SMALL
GASTEIGER

@<TRIPOS>ATOM
      1  N        -28.3780   -0.2850  -11.2570 N.3   146  ARG146     -0.1245
      2  CA       -28.6400   -1.5120  -12.0210 C.3   146  ARG146      0.1563
      3  C        -27.7350   -2.6270  -11.5310 C.2   146  ARG146      0.2260
      4  O        -26.6480   -2.8500  -12.0550 O.2   146  ARG146     -0.2867
      5  CB       -28.4260   -1.3040  -13.5000 C.3   146  ARG146      0.0307
      6  CG       -29.3430   -0.2670  -14.1040 C.3   146  ARG146      0.0489
      7  CD       -28.5540    0.9370  -14.5880 C.3   146  ARG146      0.2205
      8  NE       -28.1200    0.7600  -15.9700 N.pl3 146  ARG146     -0.0865
      9  CZ       -27.0390    1.3170  -16.5180 C.cat 146  ARG146      0.5346
     10  NH1      -26.2050    2.0900  -15.8070 N.pl3 146  ARG146      0.1354
     11  NH2      -26.7730    1.0540  -17.7980 N.pl3 146  ARG146      0.1354
     12  N        -25.3040   -5.0260  -13.4430 N.3   149  LEU149     -0.1245
     13  CA       -24.0180   -4.5490  -13.9610 C.3   149  LEU149      0.1561
     14  C        -22.8970   -4.6580  -12.9360 C.2   149  LEU149      0.2260
     15  O        -21.7020   -4.6250  -13.2990 O.2   149  LEU149     -0.2867
     16  CB       -24.1480   -3.1140  -14.4920 C.3   149  LEU149      0.0270
     17  CG       -25.1450   -2.9670  -15.6650 C.3   149  LEU149      0.0019
     18  CD1      -25.3550   -1.5080  -16.0610 C.3   149  LEU149      0.0001
     19  CD2      -24.7210   -3.7390  -16.8900 C.3   149  LEU149      0.0001
     20  N        -19.5490   -4.6790  -18.1840 N.3   166  THR166     -0.1218
     21  CA       -19.7510   -3.3160  -18.6080 C.3   166  THR166      0.1862
     22  C        -20.3350   -2.4680  -17.4950 C.2   166  THR166      0.2287
     23  O        -21.0490   -2.9730  -16.6300 O.2   166  THR166     -0.2866
     24  CB       -20.6400   -3.2340  -19.8580 C.3   166  THR166      0.1770
     25  OG1      -20.7050   -1.8700  -20.3060 O.3   166  THR166     -0.2211
     26  CG2      -22.0330   -3.7270  -19.5650 C.3   166  THR166      0.0375
     27  N        -21.8830    0.4740  -18.4830 N.3   168  GLY168     -0.1210
     28  CA       -22.6520    1.3640  -19.3270 C.3   168  GLY168      0.1956
     29  C        -21.8780    2.3980  -20.1120 C.2   168  GLY168      0.2612
     30  O        -22.4390    3.0140  -21.0280 O.2   168  GLY168     -0.2717
     31  N        -20.5910    2.5630  -19.8070 N.am  169  HIS169     -0.1961
     32  CA       -19.7350    3.5460  -20.4660 C.3   169  HIS169      0.1787
     33  C        -18.6120    2.8840  -21.2330 C.2   169  HIS169      0.2620
     34  O        -18.1720    3.3730  -22.2730 O.2   169  HIS169     -0.2715
     35  CB       -19.1460    4.4690  -19.4350 C.3   169  HIS169      0.0785
     36  CG       -20.1810    5.2840  -18.7490 C.ar  169  HIS169      0.0821
     37  ND1      -20.3810    6.6110  -19.0380 N.ar  169  HIS169     -0.2267
     38  CD2      -21.1210    4.9440  -17.8410 C.ar  169  HIS169      0.1154
     39  CE1      -21.3850    7.0620  -18.3180 C.ar  169  HIS169      0.1986
     40  NE2      -21.8520    6.0680  -17.5820 N.ar  169  HIS169     -0.2212
     41  N        -18.1560    1.7570  -20.6970 N.am  170  ARG170     -0.1963
     42  CA       -17.1690    0.9490  -21.3690 C.3   170  ARG170      0.1729
     43  C        -17.5070   -0.5130  -21.1550 C.2   170  ARG170      0.2616
     44  O        -18.1640   -0.8780  -20.1620 O.2   170  ARG170     -0.2715
     45  CB       -15.7340    1.3020  -20.9330 C.3   170  ARG170      0.0348
     46  CG       -15.4940    1.6550  -19.4880 C.3   170  ARG170      0.0492
     47  CD       -15.4050    0.4320  -18.5800 C.3   170  ARG170      0.2205
     48  NE       -15.1790    0.8660  -17.2080 N.pl3 170  ARG170     -0.0865
     49  CZ       -13.9870    1.1100  -16.6730 C.cat 170  ARG170      0.5346
     50  NH1      -12.8660    0.9340  -17.3750 N.pl3 170  ARG170      0.1354
     51  NH2      -13.9200    1.5180  -15.4190 N.pl3 170  ARG170      0.1354
     52  N        -17.1440   -1.3200  -22.1460 N.am  171  LEU171     -0.1977
     53  CA       -17.4860   -2.7320  -22.1540 C.3   171  LEU171      0.1596
     54  C        -16.2790   -3.5640  -22.4840 C.2   171  LEU171      0.2287
     55  O        -15.4840   -3.1400  -23.2910 O.2   171  LEU171     -0.2864
     56  CB       -18.5890   -2.9960  -23.1730 C.3   171  LEU171      0.0297
     57  CG       -19.0060   -4.4660  -23.2920 C.3   171  LEU171      0.0022
     58  CD1      -20.4910   -4.5430  -23.6150 C.3   171  LEU171      0.0001
     59  CD2      -18.1840   -5.2280  -24.3440 C.3   171  LEU171      0.0001
     60  N        -26.8690   -6.6450  -20.7310 N.2   236  PRO236     -0.2584
     61  CA       -26.8180   -6.1930  -22.1230 C.3   236  PRO236      0.1895
     62  C        -26.0470   -7.1200  -23.0680 C.2   236  PRO236      0.2359
     63  O        -25.1260   -7.8410  -22.6640 O.2   236  PRO236     -0.2858
     64  CB       -26.1370   -4.8220  -22.0440 C.2   236  PRO236      0.0071
     65  CG       -25.6580   -4.6430  -20.6540 C.2   236  PRO236      0.0180
     66  CD       -26.1630   -5.7470  -19.7990 C.2   236  PRO236      0.0937
     67  N        -23.3560   -3.7830  -28.7980 N.3   241  VAL241     -0.1245
     68  CA       -22.4720   -2.7250  -28.3470 C.3   241  VAL241      0.1561
     69  C        -21.3160   -2.5800  -29.3200 C.2   241  VAL241      0.2260
     70  O        -20.8350   -1.4770  -29.5080 O.2   241  VAL241     -0.2867
     71  CB       -21.9460   -3.0130  -26.9010 C.3   241  VAL241      0.0252
     72  CG1      -20.9320   -1.9780  -26.4230 C.3   241  VAL241      0.0019
     73  CG2      -23.1030   -3.0490  -25.9330 C.3   241  VAL241      0.0019
     74  N        -18.9180    5.1470  -30.1080 N.3   340  SER340     -0.1217
     75  CA       -17.9630    4.4140  -29.3000 C.3   340  SER340      0.1889
     76  C        -16.8700    3.8250  -30.1800 C.2   340  SER340      0.2288
     77  O        -17.0120    3.6940  -31.3940 O.2   340  SER340     -0.2866
     78  CB       -18.6610    3.3420  -28.4660 C.3   340  SER340      0.2089
     79  OG       -19.5700    3.9450  -27.5440 O.3   340  SER340     -0.2183
     80  N        -14.9650   -1.8590  -25.8560 N.3   354  VAL354     -0.1245
     81  CA       -15.7370   -0.7980  -26.4400 C.3   354  VAL354      0.1561
     82  C        -15.8430    0.3230  -25.4090 C.2   354  VAL354      0.2260
     83  O        -16.0950    0.0600  -24.2300 O.2   354  VAL354     -0.2867
     84  CB       -17.1360   -1.2830  -26.8430 C.3   354  VAL354      0.0252
     85  CG1      -17.9410   -0.1550  -27.4650 C.3   354  VAL354      0.0019
     86  CG2      -17.0140   -2.4520  -27.8210 C.3   354  VAL354      0.0019
     87  N        -17.2440    4.4710  -24.8640 N.3   356  MET356     -0.1245
     88  CA       -17.9270    5.6650  -25.3460 C.3   356  MET356      0.1570
     89  C        -16.9580    6.8230  -25.4020 C.2   356  MET356      0.2261
     90  O        -16.0800    6.9200  -24.5540 O.2   356  MET356     -0.2867
     91  CB       -19.0180    6.1510  -24.3970 C.3   356  MET356      0.0387
     92  CG       -20.2190    5.2780  -24.1310 C.3   356  MET356      0.0595
     93  SD       -21.2100    6.1720  -22.8900 S.3   356  MET356     -0.1393
     94  CE       -22.7650    5.2870  -23.0170 C.3   356  MET356      0.0692
@<TRIPOS>BOND
     1    77    76    2
     2    76    75    1
     3    74    75    1
     4    70    69    2
     5    69    68    1
     6    75    78    1
     7    67    68    1
     8    78    79    1
     9    68    71    1
    10    86    84    1
    11    85    84    1
    12    71    72    1
    13    71    73    1
    14    84    81    1
    15    81    80    1
    16    81    82    1
    17    82    83    2
    18    89    88    1
    19    89    90    2
    20    88    87    1
    21    88    91    1
    22    91    92    1
    23    59    57    1
    24    92    93    1
    25    58    57    1
    26    57    56    1
    27    55    54    2
    28    56    53    1
    29    62    63    2
    30    62    61    1
    31    94    93    1
    32    54    53    1
    33    34    33    2
    34    53    52    1
    35    52    43   am
    36    61    64    1
    37    61    60    1
    38    64    65    2
    39    42    43    1
    40    42    45    1
    41    42    41    1
    42    33    41   am
    43    33    32    1
    44    43    44    2
    45    30    29    2
    46    45    46    1
    47    60    66    2
    48    65    66    1
    49    32    31    1
    50    32    35    1
    51    25    24    1
    52    29    31   am
    53    29    28    1
    54    24    26    1
    55    24    21    1
    56    46    47    1
    57    35    36    1
    58    28    27    1
    59    37    36   ar
    60    37    39   ar
    61    36    38   ar
    62    21    20    1
    63    21    22    1
    64    47    48    1
    65    39    40   ar
    66    38    40   ar
    67    11     9    1
    68    22    23    2
    69    50    49    1
    70    48    49    2
    71    19    17    1
    72    49    51    1
    73     9     8    2
    74     9    10    1
    75    18    17    1
    76     8     7    1
    77    17    16    1
    78     7     6    1
    79    16    13    1
    80     6     5    1
    81    13    12    1
    82    13    14    1
    83     5     2    1
    84    15    14    2
    85     4     3    2
    86     2     3    1
    87     2     1    1
