@<TRIPOS>MOLECULE
tmp/4n95B00.pdb
 94 87 0 0 0
SMALL
GASTEIGER

@<TRIPOS>ATOM
      1  N        -28.6430    0.8680  -12.2720 N.3   146  ARG146     -0.1245
      2  CA       -28.7920   -0.2980  -13.1360 C.3   146  ARG146      0.1563
      3  C        -28.0040   -1.4300  -12.4890 C.2   146  ARG146      0.2260
      4  O        -26.8400   -1.6680  -12.8200 O.2   146  ARG146     -0.2867
      5  CB       -28.3010   -0.0220  -14.5550 C.3   146  ARG146      0.0307
      6  CG       -29.1530    0.9950  -15.3050 C.3   146  ARG146      0.0489
      7  CD       -28.4010    2.2700  -15.6570 C.3   146  ARG146      0.2205
      8  NE       -27.9830    2.2650  -17.0600 N.pl3 146  ARG146     -0.0865
      9  CZ       -26.7370    2.4370  -17.5080 C.cat 146  ARG146      0.5346
     10  NH1      -25.7090    2.6590  -16.6780 N.pl3 146  ARG146      0.1354
     11  NH2      -26.5250    2.4030  -18.8210 N.pl3 146  ARG146      0.1354
     12  N        -25.6860   -4.0870  -14.0350 N.3   149  LEU149     -0.1245
     13  CA       -24.3650   -3.7170  -14.5560 C.3   149  LEU149      0.1561
     14  C        -23.2550   -3.8140  -13.5100 C.2   149  LEU149      0.2260
     15  O        -22.0690   -3.7220  -13.8620 O.2   149  LEU149     -0.2867
     16  CB       -24.3770   -2.3080  -15.1460 C.3   149  LEU149      0.0270
     17  CG       -25.3240   -2.0450  -16.3170 C.3   149  LEU149      0.0019
     18  CD1      -25.1550   -0.6150  -16.8070 C.3   149  LEU149      0.0001
     19  CD2      -25.1180   -3.0380  -17.4490 C.3   149  LEU149      0.0001
     20  N        -19.8280   -3.9010  -18.6060 N.3   166  THR166     -0.1218
     21  CA       -20.0780   -2.5460  -19.0520 C.3   166  THR166      0.1862
     22  C        -20.6840   -1.7070  -17.9240 C.2   166  THR166      0.2287
     23  O        -21.3770   -2.2290  -17.0500 O.2   166  THR166     -0.2866
     24  CB       -20.9830   -2.5040  -20.2980 C.3   166  THR166      0.1770
     25  OG1      -21.0870   -1.1450  -20.7650 O.3   166  THR166     -0.2211
     26  CG2      -22.3860   -3.0340  -19.9770 C.3   166  THR166      0.0375
     27  N        -22.0820    1.3280  -18.9620 N.3   168  GLY168     -0.1210
     28  CA       -22.8840    2.2360  -19.7800 C.3   168  GLY168      0.1956
     29  C        -22.0810    3.2150  -20.6150 C.2   168  GLY168      0.2612
     30  O        -22.6150    3.8040  -21.5530 O.2   168  GLY168     -0.2717
     31  N        -20.7980    3.3580  -20.2810 N.am  169  HIS169     -0.1961
     32  CA       -19.8700    4.2880  -20.9350 C.3   169  HIS169      0.1787
     33  C        -18.7620    3.5930  -21.6890 C.2   169  HIS169      0.2620
     34  O        -18.2800    4.0960  -22.7150 O.2   169  HIS169     -0.2715
     35  CB       -19.2380    5.1770  -19.8870 C.3   169  HIS169      0.0785
     36  CG       -20.2370    5.9780  -19.1310 C.ar  169  HIS169      0.0821
     37  ND1      -20.5380    7.2790  -19.4620 N.ar  169  HIS169     -0.2267
     38  CD2      -21.0620    5.6420  -18.1150 C.ar  169  HIS169      0.1154
     39  CE1      -21.4700    7.7280  -18.6460 C.ar  169  HIS169      0.1986
     40  NE2      -21.8140    6.7520  -17.8250 N.ar  169  HIS169     -0.2212
     41  N        -18.3340    2.4540  -21.1530 N.am  170  ARG170     -0.1963
     42  CA       -17.3620    1.6050  -21.8390 C.3   170  ARG170      0.1729
     43  C        -17.7110    0.1400  -21.6150 C.2   170  ARG170      0.2616
     44  O        -18.3420   -0.2230  -20.6090 O.2   170  ARG170     -0.2715
     45  CB       -15.9150    1.9290  -21.4120 C.3   170  ARG170      0.0348
     46  CG       -15.7100    2.2780  -19.9460 C.3   170  ARG170      0.0492
     47  CD       -15.6250    1.0810  -19.0150 C.3   170  ARG170      0.2205
     48  NE       -15.4220    1.5240  -17.6340 N.pl3 170  ARG170     -0.0865
     49  CZ       -14.2510    1.8200  -17.0780 C.cat 170  ARG170      0.5346
     50  NH1      -13.1060    1.6590  -17.7380 N.pl3 170  ARG170      0.1354
     51  NH2      -14.2210    2.2240  -15.8160 N.pl3 170  ARG170      0.1354
     52  N        -17.3200   -0.6890  -22.5750 N.am  171  LEU171     -0.1977
     53  CA       -17.6170   -2.0990  -22.5630 C.3   171  LEU171      0.1596
     54  C        -16.3570   -2.8910  -22.8480 C.2   171  LEU171      0.2287
     55  O        -15.5450   -2.4700  -23.6630 O.2   171  LEU171     -0.2864
     56  CB       -18.6840   -2.4120  -23.6010 C.3   171  LEU171      0.0297
     57  CG       -19.1420   -3.8630  -23.7540 C.3   171  LEU171      0.0022
     58  CD1      -20.6480   -3.9190  -24.0110 C.3   171  LEU171      0.0001
     59  CD2      -18.3720   -4.5910  -24.8610 C.3   171  LEU171      0.0001
     60  N        -27.2170   -5.8370  -21.2570 N.3   236  PRO236     -0.2116
     61  CA       -27.1830   -5.4010  -22.6580 C.3   236  PRO236      0.1372
     62  C        -26.4430   -6.3690  -23.6020 C.2   236  PRO236      0.2244
     63  O        -25.5740   -7.1310  -23.1750 O.2   236  PRO236     -0.2868
     64  CB       -26.4850   -4.0380  -22.6010 C.3   236  PRO236      0.0268
     65  CG       -25.9280   -3.8950  -21.2340 C.3   236  PRO236      0.0207
     66  CD       -26.6850   -4.8210  -20.3340 C.3   236  PRO236      0.0892
     67  N        -23.5300   -3.0260  -29.3020 N.3   241  VAL241     -0.1245
     68  CA       -22.6570   -1.9800  -28.8090 C.3   241  VAL241      0.1561
     69  C        -21.4480   -1.8180  -29.7390 C.2   241  VAL241      0.2260
     70  O        -20.9470   -0.7030  -29.9110 O.2   241  VAL241     -0.2867
     71  CB       -22.1970   -2.3060  -27.3650 C.3   241  VAL241      0.0252
     72  CG1      -21.2540   -1.2430  -26.8220 C.3   241  VAL241      0.0019
     73  CG2      -23.3980   -2.4510  -26.4400 C.3   241  VAL241      0.0019
     74  N        -19.0420    5.8310  -30.4800 N.3   340  SER340     -0.1217
     75  CA       -18.0720    5.0630  -29.7080 C.3   340  SER340      0.1889
     76  C        -17.0230    4.4440  -30.6280 C.2   340  SER340      0.2288
     77  O        -17.2820    4.2040  -31.8190 O.2   340  SER340     -0.2866
     78  CB       -18.7710    3.9570  -28.9030 C.3   340  SER340      0.2089
     79  OG       -19.7780    4.4790  -28.0470 O.3   340  SER340     -0.2183
     80  N        -15.1020   -1.2170  -26.2350 N.3   354  VAL354     -0.1245
     81  CA       -15.8760   -0.1590  -26.8630 C.3   354  VAL354      0.1561
     82  C        -15.9240    0.9730  -25.8440 C.2   354  VAL354      0.2260
     83  O        -16.2140    0.7560  -24.6660 O.2   354  VAL354     -0.2867
     84  CB       -17.2940   -0.6110  -27.2730 C.3   354  VAL354      0.0252
     85  CG1      -18.0580    0.5260  -27.9280 C.3   354  VAL354      0.0019
     86  CG2      -17.2570   -1.8270  -28.1960 C.3   354  VAL354      0.0019
     87  N        -17.2480    5.0400  -25.3390 N.3   356  MET356     -0.1245
     88  CA       -17.9650    6.2280  -25.7840 C.3   356  MET356      0.1570
     89  C        -17.0140    7.4220  -25.7870 C.2   356  MET356      0.2261
     90  O        -16.1140    7.4840  -24.9620 O.2   356  MET356     -0.2867
     91  CB       -19.1240    6.5730  -24.8330 C.3   356  MET356      0.0387
     92  CG       -20.3290    5.6530  -24.8620 C.3   356  MET356      0.0595
     93  SD       -21.6250    6.2700  -23.7540 S.3   356  MET356     -0.1393
     94  CE       -22.2800    7.6410  -24.7030 C.3   356  MET356      0.0692
@<TRIPOS>BOND
     1    77    76    2
     2    76    75    1
     3    74    75    1
     4    70    69    2
     5    69    68    1
     6    75    78    1
     7    67    68    1
     8    78    79    1
     9    68    71    1
    10    86    84    1
    11    85    84    1
    12    71    72    1
    13    71    73    1
    14    84    81    1
    15    81    80    1
    16    81    82    1
    17    82    83    2
    18    89    88    1
    19    89    90    2
    20    88    87    1
    21    88    91    1
    22    92    91    1
    23    92    93    1
    24    59    57    1
    25    94    93    1
    26    58    57    1
    27    57    56    1
    28    55    54    2
    29    62    63    2
    30    62    61    1
    31    56    53    1
    32    54    53    1
    33    34    33    2
    34    61    64    1
    35    61    60    1
    36    64    65    1
    37    52    53    1
    38    52    43   am
    39    42    43    1
    40    42    45    1
    41    42    41    1
    42    33    41   am
    43    33    32    1
    44    43    44    2
    45    30    29    2
    46    45    46    1
    47    60    66    1
    48    65    66    1
    49    32    31    1
    50    32    35    1
    51    25    24    1
    52    29    31   am
    53    29    28    1
    54    24    26    1
    55    24    21    1
    56    46    47    1
    57    35    36    1
    58    28    27    1
    59    37    36   ar
    60    37    39   ar
    61    36    38   ar
    62    21    20    1
    63    21    22    1
    64    47    48    1
    65    11     9    1
    66    39    40   ar
    67    38    40   ar
    68    22    23    2
    69    50    49    1
    70    48    49    2
    71     9     8    2
    72     9    10    1
    73    19    17    1
    74    49    51    1
    75     8     7    1
    76    18    17    1
    77    17    16    1
    78     7     6    1
    79     6     5    1
    80    16    13    1
    81    13    12    1
    82    13    14    1
    83     5     2    1
    84    15    14    2
    85     2     3    1
    86     2     1    1
    87     4     3    2
