@<TRIPOS>MOLECULE
tmp/4n95B04.pdb
 91 89 0 0 0
SMALL
GASTEIGER

@<TRIPOS>ATOM
      1  N        -24.7220   -5.3060  -30.1550 N.3   240  ARG240     -0.1231
      2  CA       -25.3410   -4.0320  -30.5460 C.3   240  ARG240      0.1694
      3  C        -24.5580   -2.7990  -30.1090 C.2   240  ARG240      0.2592
      4  O        -24.8690   -1.6750  -30.5210 O.2   240  ARG240     -0.2718
      5  CB       -26.7560   -3.9770  -29.9920 C.3   240  ARG240      0.0321
      6  CG       -27.6200   -5.0260  -30.6530 C.3   240  ARG240      0.0489
      7  CD       -28.8350   -5.3840  -29.8370 C.3   240  ARG240      0.2205
      8  NE       -29.8000   -4.3050  -29.7960 N.pl3 240  ARG240     -0.0865
      9  CZ       -31.0540   -4.4440  -29.3830 C.cat 240  ARG240      0.5346
     10  NH1      -31.5070   -5.6270  -28.9650 N.pl3 240  ARG240      0.1354
     11  NH2      -31.8560   -3.3950  -29.3880 N.pl3 240  ARG240      0.1354
     12  N        -23.5300   -3.0260  -29.3020 N.am  241  VAL241     -0.1966
     13  CA       -22.6570   -1.9800  -28.8090 C.3   241  VAL241      0.1727
     14  C        -21.4480   -1.8180  -29.7390 C.2   241  VAL241      0.2616
     15  O        -20.9470   -0.7030  -29.9110 O.2   241  VAL241     -0.2715
     16  CB       -22.1970   -2.3060  -27.3650 C.3   241  VAL241      0.0290
     17  CG1      -21.2540   -1.2430  -26.8220 C.3   241  VAL241      0.0023
     18  CG2      -23.3980   -2.4510  -26.4400 C.3   241  VAL241      0.0023
     19  N        -20.9890   -2.9170  -30.3440 N.am  242  LEU242     -0.1964
     20  CA       -19.8440   -2.8760  -31.2580 C.3   242  LEU242      0.1713
     21  C        -20.1660   -1.9470  -32.4360 C.2   242  LEU242      0.2458
     22  O        -21.2620   -2.0030  -32.9750 O.2   242  LEU242     -0.2730
     23  CB       -19.5060   -4.2720  -31.7860 C.3   242  LEU242      0.0310
     24  CG       -19.1210   -5.3750  -30.7920 C.3   242  LEU242      0.0022
     25  CD1      -18.8640   -6.6800  -31.5440 C.3   242  LEU242      0.0001
     26  CD2      -17.8940   -4.9830  -29.9870 C.3   242  LEU242      0.0001
     27  N        -19.2350   -1.0560  -32.8030 N.am  243  PRO243     -0.2716
     28  CA       -19.4660   -0.2370  -33.9990 C.3   243  PRO243      0.1536
     29  C        -19.7510   -1.0810  -35.2420 C.2   243  PRO243      0.2598
     30  O        -18.9840   -1.9690  -35.5620 O.2   243  PRO243     -0.2715
     31  CB       -18.1580    0.5370  -34.1410 C.3   243  PRO243      0.0310
     32  CG       -17.6820    0.7050  -32.7360 C.3   243  PRO243      0.0237
     33  CD       -18.1060   -0.5420  -32.0010 C.3   243  PRO243      0.0939
     34  N        -20.8400   -0.7930  -35.9470 N.am  244  LYS244     -0.1964
     35  CA       -21.2720   -1.6510  -37.0600 C.3   244  LYS244      0.1728
     36  C        -20.4360   -1.4660  -38.3260 C.2   244  LYS244      0.2616
     37  O        -20.2300   -2.4200  -39.0810 O.2   244  LYS244     -0.2715
     38  CB       -22.7670   -1.4400  -37.3570 C.3   244  LYS244      0.0311
     39  CG       -23.6260   -1.5570  -36.1350 C.3   244  LYS244      0.0038
     40  CD       -25.0790   -1.6740  -36.4840 C.3   244  LYS244      0.0206
     41  CE       -25.8980   -1.7520  -35.2060 C.3   244  LYS244      0.1093
     42  NZ       -25.2680   -2.7190  -34.2510 N.3   244  LYS244     -0.1314
     43  N        -19.9460   -0.2590  -38.5730 N.am  245  ASN245     -0.1972
     44  CA       -19.1860   -0.0030  -39.8010 C.3   245  ASN245      0.1688
     45  C        -18.1440    1.1100  -39.6650 C.2   245  ASN245      0.2292
     46  O        -18.2380    2.1460  -40.3400 O.2   245  ASN245     -0.2864
     47  CB       -20.1590    0.3130  -40.9350 C.3   245  ASN245      0.1181
     48  CG       -19.4920    0.3850  -42.2890 C.2   245  ASN245      0.2629
     49  OD1      -18.5410   -0.3420  -42.5680 O.2   245  ASN245     -0.2716
     50  ND2      -20.0060    1.2540  -43.1560 N.am  245  ASN245     -0.0877
     51  N        -15.7020    5.8970  -36.2430 N.3   335  THR335     -0.1218
     52  CA       -16.7880    6.1750  -37.1710 C.3   335  THR335      0.1862
     53  C        -16.9090    7.6820  -37.3940 C.2   335  THR335      0.2287
     54  O        -16.6920    8.1590  -38.5100 O.2   335  THR335     -0.2866
     55  CB       -18.0940    5.5530  -36.6360 C.3   335  THR335      0.1770
     56  OG1      -17.9280    4.1310  -36.6040 O.3   335  THR335     -0.2211
     57  CG2      -19.2730    5.8880  -37.5230 C.3   335  THR335      0.0375
     58  N        -19.0400   11.6480  -32.6110 N.3   338  VAL338     -0.1231
     59  CA       -20.0480   11.4080  -31.5850 C.3   338  VAL338      0.1692
     60  C        -20.4040    9.9280  -31.4200 C.2   338  VAL338      0.2593
     61  O        -21.3880    9.5990  -30.7750 O.2   338  VAL338     -0.2718
     62  CB       -21.3430   12.2340  -31.8370 C.3   338  VAL338      0.0266
     63  CG1      -21.0600   13.7240  -31.7110 C.3   338  VAL338      0.0020
     64  CG2      -21.9640   11.9050  -33.1920 C.3   338  VAL338      0.0020
     65  N        -19.5900    9.0340  -31.9770 N.am  339  SER339     -0.1938
     66  CA       -19.8480    7.6100  -31.8990 C.3   339  SER339      0.2055
     67  C        -18.7130    6.9380  -31.1420 C.2   339  SER339      0.2643
     68  O        -17.5730    7.4250  -31.1520 O.2   339  SER339     -0.2714
     69  CB       -19.9760    7.0250  -33.3070 C.3   339  SER339      0.2130
     70  OG       -21.1340    7.5320  -33.9440 O.3   339  SER339     -0.2179
     71  N        -19.0420    5.8310  -30.4800 N.am  340  SER340     -0.1949
     72  CA       -18.0720    5.0630  -29.7080 C.3   340  SER340      0.1924
     73  C        -17.0230    4.4440  -30.6280 C.2   340  SER340      0.2314
     74  O        -17.2820    4.2040  -31.8190 O.2   340  SER340     -0.2863
     75  CB       -18.7710    3.9570  -28.9030 C.3   340  SER340      0.2116
     76  OG       -19.7780    4.4790  -28.0470 O.3   340  SER340     -0.2180
     77  N        -17.2480    5.0400  -25.3390 N.3   356  MET356     -0.1231
     78  CA       -17.9650    6.2280  -25.7840 C.3   356  MET356      0.1687
     79  C        -17.0140    7.4220  -25.7870 C.2   356  MET356      0.2434
     80  O        -16.1140    7.4840  -24.9620 O.2   356  MET356     -0.2733
     81  CB       -19.1240    6.5730  -24.8330 C.3   356  MET356      0.0400
     82  CG       -20.3290    5.6530  -24.8620 C.3   356  MET356      0.0596
     83  SD       -21.6250    6.2700  -23.7540 S.3   356  MET356     -0.1393
     84  CE       -22.2800    7.6410  -24.7030 C.3   356  MET356      0.0692
     85  N        -17.2390    8.3920  -26.6850 N.am  357  PRO357     -0.2729
     86  CA       -16.4230    9.5960  -26.6700 C.3   357  PRO357      0.1401
     87  C        -16.8560   10.5670  -25.5690 C.2   357  PRO357      0.2269
     88  O        -17.9760   10.4670  -25.0670 O.2   357  PRO357     -0.2865
     89  CB       -16.6710   10.1990  -28.0500 C.3   357  PRO357      0.0296
     90  CG       -18.0480    9.7630  -28.4140 C.3   357  PRO357      0.0237
     91  CD       -18.3260    8.4700  -27.6750 C.3   357  PRO357      0.0939
@<TRIPOS>BOND
     1    50    48   am
     2    49    48    2
     3    48    47    1
     4    47    44    1
     5    46    45    2
     6    44    45    1
     7    44    43    1
     8    37    36    2
     9    43    36   am
    10    54    53    2
    11    36    35    1
    12    57    55    1
    13    53    52    1
    14    38    35    1
    15    38    39    1
    16    52    55    1
    17    52    51    1
    18    35    34    1
    19    55    56    1
    20    40    39    1
    21    40    41    1
    22    34    29   am
    23    30    29    2
    24    29    28    1
    25    41    42    1
    26    31    28    1
    27    31    32    1
    28    28    27    1
    29    70    69    1
    30    69    66    1
    31    64    62    1
    32    22    21    2
    33    27    21   am
    34    27    33    1
    35    32    33    1
    36    58    59    1
    37    21    20    1
    38    65    66    1
    39    65    60   am
    40    66    67    1
    41    62    63    1
    42    62    59    1
    43    74    73    2
    44    23    20    1
    45    23    24    1
    46    59    60    1
    47    25    24    1
    48    60    61    2
    49    20    19    1
    50    68    67    2
    51    67    71   am
    52    24    26    1
    53     6     5    1
    54     6     7    1
    55    73    72    1
    56     2     1    1
    57     2     3    1
    58     2     5    1
    59     4     3    2
    60    71    72    1
    61    19    14   am
    62     3    12   am
    63    15    14    2
    64     7     8    1
    65     8     9    2
    66    14    13    1
    67    72    75    1
    68    11     9    1
    69     9    10    1
    70    12    13    1
    71    75    76    1
    72    13    16    1
    73    90    89    1
    74    90    91    1
    75    89    86    1
    76    91    85    1
    77    16    17    1
    78    16    18    1
    79    85    86    1
    80    85    79   am
    81    86    87    1
    82    79    78    1
    83    79    80    2
    84    78    77    1
    85    78    81    1
    86    87    88    2
    87    82    81    1
    88    82    83    1
    89    84    83    1
