@<TRIPOS>MOLECULE
tmp/4n96A00.pdb
 101 95 0 0 0
SMALL
GASTEIGER

@<TRIPOS>ATOM
      1  N        -28.5370   -0.1580  -11.1950 N.3   142  ARG142     -0.1245
      2  CA       -28.7180   -1.4030  -11.9530 C.3   142  ARG142      0.1563
      3  C        -27.7640   -2.4910  -11.4530 C.2   142  ARG142      0.2260
      4  O        -26.6890   -2.7210  -12.0240 O.2   142  ARG142     -0.2867
      5  CB       -28.4980   -1.1680  -13.4400 C.3   142  ARG142      0.0307
      6  CG       -29.4390   -0.1460  -14.0540 C.3   142  ARG142      0.0489
      7  CD       -28.7000    1.1010  -14.5070 C.3   142  ARG142      0.2205
      8  NE       -28.2290    0.9510  -15.8760 N.pl3 142  ARG142     -0.0865
      9  CZ       -27.1140    1.4690  -16.3880 C.cat 142  ARG142      0.5346
     10  NH1      -26.2520    2.1810  -15.6550 N.pl3 142  ARG142      0.1354
     11  NH2      -26.8490    1.2320  -17.6630 N.pl3 142  ARG142      0.1354
     12  N        -25.3820   -4.8910  -13.4580 N.3   145  LEU145     -0.1245
     13  CA       -24.0900   -4.4280  -13.9590 C.3   145  LEU145      0.1561
     14  C        -22.9910   -4.5020  -12.9110 C.2   145  LEU145      0.2260
     15  O        -21.8100   -4.4240  -13.2500 O.2   145  LEU145     -0.2867
     16  CB       -24.1840   -3.0000  -14.5150 C.3   145  LEU145      0.0270
     17  CG       -25.0430   -2.8180  -15.7760 C.3   145  LEU145      0.0019
     18  CD1      -24.9210   -1.3860  -16.2770 C.3   145  LEU145      0.0001
     19  CD2      -24.6860   -3.7790  -16.8980 C.3   145  LEU145      0.0001
     20  N        -19.5800   -4.5800  -18.1420 N.3   162  THR162     -0.1218
     21  CA       -19.7810   -3.1800  -18.5330 C.3   162  THR162      0.1862
     22  C        -20.3700   -2.3370  -17.4210 C.2   162  THR162      0.2287
     23  O        -21.0860   -2.8580  -16.5730 O.2   162  THR162     -0.2866
     24  CB       -20.6600   -3.0480  -19.7870 C.3   162  THR162      0.1770
     25  OG1      -20.7870   -1.6650  -20.1160 O.3   162  THR162     -0.2211
     26  CG2      -22.0500   -3.6160  -19.5470 C.3   162  THR162      0.0375
     27  N        -21.8360    0.6640  -18.4370 N.3   164  GLY164     -0.1210
     28  CA       -22.6470    1.5640  -19.2650 C.3   164  GLY164      0.1956
     29  C        -21.8520    2.5620  -20.0910 C.2   164  GLY164      0.2612
     30  O        -22.3740    3.1320  -21.0350 O.2   164  GLY164     -0.2717
     31  N        -20.5830    2.7530  -19.7520 N.am  165  HIS165     -0.1961
     32  CA       -19.7030    3.7020  -20.4470 C.3   165  HIS165      0.1787
     33  C        -18.5710    3.0280  -21.2020 C.2   165  HIS165      0.2620
     34  O        -18.1250    3.5230  -22.2510 O.2   165  HIS165     -0.2715
     35  CB       -19.1490    4.6730  -19.4290 C.3   165  HIS165      0.0785
     36  CG       -20.2290    5.4500  -18.7510 C.ar  165  HIS165      0.0821
     37  ND1      -20.5110    6.7570  -19.0710 N.ar  165  HIS165     -0.2267
     38  CD2      -21.1630    5.0700  -17.8460 C.ar  165  HIS165      0.1154
     39  CE1      -21.5340    7.1720  -18.3540 C.ar  165  HIS165      0.1986
     40  NE2      -21.9600    6.1640  -17.6100 N.ar  165  HIS165     -0.2212
     41  N        -18.1340    1.8800  -20.6880 N.am  166  ARG166     -0.1963
     42  CA       -17.1750    1.0570  -21.3970 C.3   166  ARG166      0.1729
     43  C        -17.5110   -0.4030  -21.1840 C.2   166  ARG166      0.2616
     44  O        -18.1240   -0.7650  -20.1720 O.2   166  ARG166     -0.2715
     45  CB       -15.7340    1.3850  -20.9760 C.3   166  ARG166      0.0348
     46  CG       -15.5390    1.7280  -19.5060 C.3   166  ARG166      0.0492
     47  CD       -15.3830    0.4930  -18.6270 C.3   166  ARG166      0.2205
     48  NE       -15.1280    0.8750  -17.2420 N.pl3 166  ARG166     -0.0865
     49  CZ       -13.9340    1.1650  -16.7310 C.cat 166  ARG166      0.5346
     50  NH1      -12.8420    1.1200  -17.4890 N.pl3 166  ARG166      0.1354
     51  NH2      -13.8370    1.5190  -15.4530 N.pl3 166  ARG166      0.1354
     52  N        -17.1390   -1.2310  -22.1650 N.am  167  LEU167     -0.1977
     53  CA       -17.4780   -2.6500  -22.1650 C.3   167  LEU167      0.1596
     54  C        -16.2710   -3.4880  -22.5120 C.2   167  LEU167      0.2287
     55  O        -15.4360   -3.0850  -23.3170 O.2   167  LEU167     -0.2864
     56  CB       -18.6080   -2.9320  -23.1490 C.3   167  LEU167      0.0297
     57  CG       -19.0080   -4.4040  -23.2890 C.3   167  LEU167      0.0022
     58  CD1      -20.4920   -4.5290  -23.5660 C.3   167  LEU167      0.0001
     59  CD2      -18.2150   -5.0740  -24.4060 C.3   167  LEU167      0.0001
     60  N        -26.9260   -6.4140  -20.7580 N.3   232  PRO232     -0.2116
     61  CA       -26.8220   -5.9670  -22.1560 C.3   232  PRO232      0.1372
     62  C        -26.1300   -6.9750  -23.0890 C.2   232  PRO232      0.2244
     63  O        -25.2630   -7.7430  -22.6580 O.2   232  PRO232     -0.2868
     64  CB       -26.0070   -4.6700  -22.0640 C.3   232  PRO232      0.0268
     65  CG       -25.9210   -4.3120  -20.6240 C.3   232  PRO232      0.0207
     66  CD       -26.1720   -5.5550  -19.8310 C.3   232  PRO232      0.0892
     67  N        -23.4010   -3.6110  -28.7820 N.3   237  VAL237     -0.1245
     68  CA       -22.5280   -2.5720  -28.3120 C.3   237  VAL237      0.1561
     69  C        -21.3640   -2.4370  -29.2770 C.2   237  VAL237      0.2260
     70  O        -20.8730   -1.3420  -29.4650 O.2   237  VAL237     -0.2867
     71  CB       -22.0150   -2.8710  -26.8840 C.3   237  VAL237      0.0252
     72  CG1      -21.0560   -1.7910  -26.4020 C.3   237  VAL237      0.0019
     73  CG2      -23.1880   -2.9900  -25.9290 C.3   237  VAL237      0.0019
     74  N        -18.8740    5.3370  -30.1090 N.3   336  SER336     -0.1217
     75  CA       -17.8740    4.5990  -29.3400 C.3   336  SER336      0.1889
     76  C        -16.8280    3.9710  -30.2480 C.2   336  SER336      0.2288
     77  O        -17.0620    3.7470  -31.4260 O.2   336  SER336     -0.2866
     78  CB       -18.5310    3.5100  -28.5200 C.3   336  SER336      0.2089
     79  OG       -19.5210    4.0590  -27.6480 O.3   336  SER336     -0.2183
     80  N        -15.0350   -1.7670  -25.9530 N.3   350  VAL350     -0.1231
     81  CA       -15.7900   -0.6760  -26.5310 C.3   350  VAL350      0.1692
     82  C        -15.9050    0.4320  -25.4900 C.2   350  VAL350      0.2592
     83  O        -16.2520    0.1780  -24.3190 O.2   350  VAL350     -0.2718
     84  CB       -17.2000   -1.0960  -26.9770 C.3   350  VAL350      0.0266
     85  CG1      -17.8860    0.0700  -27.6550 C.3   350  VAL350      0.0020
     86  CG2      -17.1350   -2.2980  -27.9030 C.3   350  VAL350      0.0020
     87  N        -15.5850    1.6570  -25.9080 N.am  351  VAL351     -0.1966
     88  CA       -15.4780    2.7920  -24.9970 C.3   351  VAL351      0.1727
     89  C        -16.2130    3.9770  -25.6000 C.2   351  VAL351      0.2616
     90  O        -15.9610    4.3500  -26.7380 O.2   351  VAL351     -0.2715
     91  CB       -14.0070    3.1870  -24.7210 C.3   351  VAL351      0.0290
     92  CG1      -13.9150    4.3190  -23.7060 C.3   351  VAL351      0.0023
     93  CG2      -13.1930    1.9730  -24.2500 C.3   351  VAL351      0.0023
     94  N        -17.1280    4.5610  -24.8380 N.am  352  MET352     -0.1977
     95  CA       -17.8240    5.7770  -25.2780 C.3   352  MET352      0.1605
     96  C        -16.8510    6.9470  -25.4380 C.2   352  MET352      0.2287
     97  O        -15.8770    7.0470  -24.6880 O.2   352  MET352     -0.2864
     98  CB       -18.8550    6.2270  -24.2480 C.3   352  MET352      0.0413
     99  CG       -20.1660    5.4780  -24.2400 C.3   352  MET352      0.0598
    100  SD       -21.2920    6.2060  -23.0160 S.3   352  MET352     -0.1393
    101  CE       -22.7050    5.1690  -23.4010 C.3   352  MET352      0.0692
@<TRIPOS>BOND
     1    77    76    2
     2    76    75    1
     3    74    75    1
     4    70    69    2
     5    75    78    1
     6    69    68    1
     7    67    68    1
     8    78    79    1
     9    68    71    1
    10    86    84    1
    11    85    84    1
    12    84    81    1
    13    71    72    1
    14    71    73    1
    15    90    89    2
    16    81    80    1
    17    81    82    1
    18    87    82   am
    19    87    88    1
    20    89    88    1
    21    89    94   am
    22    82    83    2
    23    96    95    1
    24    96    97    2
    25    95    94    1
    26    95    98    1
    27    88    91    1
    28    91    93    1
    29    91    92    1
    30    59    57    1
    31    98    99    1
    32    99   100    1
    33    58    57    1
    34   101   100    1
    35    55    54    2
    36    57    56    1
    37    56    53    1
    38    62    63    2
    39    62    61    1
    40    54    53    1
    41    34    33    2
    42    52    53    1
    43    52    43   am
    44    61    64    1
    45    61    60    1
    46    64    65    1
    47    42    43    1
    48    42    45    1
    49    42    41    1
    50    33    41   am
    51    33    32    1
    52    43    44    2
    53    30    29    2
    54    45    46    1
    55    60    66    1
    56    65    66    1
    57    32    31    1
    58    32    35    1
    59    25    24    1
    60    29    31   am
    61    29    28    1
    62    24    26    1
    63    24    21    1
    64    46    47    1
    65    35    36    1
    66    28    27    1
    67    37    36   ar
    68    37    39   ar
    69    36    38   ar
    70    47    48    1
    71    21    20    1
    72    21    22    1
    73    39    40   ar
    74    38    40   ar
    75    11     9    1
    76    50    49    1
    77    22    23    2
    78    48    49    2
    79    19    17    1
    80    49    51    1
    81     9     8    2
    82     9    10    1
    83    18    17    1
    84     8     7    1
    85    17    16    1
    86    16    13    1
    87     7     6    1
    88     6     5    1
    89    13    12    1
    90    13    14    1
    91     5     2    1
    92    15    14    2
    93     4     3    2
    94     2     3    1
    95     2     1    1
