@<TRIPOS>MOLECULE
tmp/4n97A00.pdb
 75 68 0 0 0
SMALL
GASTEIGER

@<TRIPOS>ATOM
      1  N        -28.4570    0.1210  -11.1400 N.3   147  ARG147     -0.1245
      2  CA       -28.6760   -1.0190  -12.0370 C.3   147  ARG147      0.1563
      3  C        -27.8520   -2.2150  -11.5610 C.2   147  ARG147      0.2260
      4  O        -26.7830   -2.5200  -12.1070 O.2   147  ARG147     -0.2867
      5  CB       -28.3170   -0.6450  -13.4740 C.3   147  ARG147      0.0307
      6  CG       -29.2320    0.4150  -14.0720 C.3   147  ARG147      0.0489
      7  CD       -28.4590    1.4830  -14.8220 C.3   147  ARG147      0.2205
      8  NE       -28.2720    1.1620  -16.2300 N.pl3 147  ARG147     -0.0865
      9  CZ       -27.1760    1.4400  -16.9350 C.cat 147  ARG147      0.5346
     10  NH1      -26.1130    2.0230  -16.3680 N.pl3 147  ARG147      0.1354
     11  NH2      -27.1250    1.1030  -18.2200 N.pl3 147  ARG147      0.1354
     12  N        -19.7240   -4.3250  -18.0170 N.3   167  THR167     -0.1218
     13  CA       -19.9540   -2.9410  -18.4230 C.3   167  THR167      0.1862
     14  C        -20.5770   -2.0860  -17.3200 C.2   167  THR167      0.2287
     15  O        -21.3040   -2.5900  -16.4590 O.2   167  THR167     -0.2866
     16  CB       -20.8280   -2.8550  -19.6910 C.3   167  THR167      0.1770
     17  OG1      -20.8650   -1.4920  -20.1550 O.3   167  THR167     -0.2211
     18  CG2      -22.2460   -3.3600  -19.4230 C.3   167  THR167      0.0375
     19  N        -21.9890    1.0100  -18.3450 N.3   169  GLY169     -0.1210
     20  CA       -22.8980    1.8520  -19.0950 C.3   169  GLY169      0.1956
     21  C        -22.1700    2.8460  -19.9720 C.2   169  GLY169      0.2611
     22  O        -22.7880    3.4880  -20.8070 O.2   169  GLY169     -0.2717
     23  N        -20.8530    2.9430  -19.7740 N.am  170  HIS170     -0.1975
     24  CA       -20.0030    3.9420  -20.4190 C.3   170  HIS170      0.1656
     25  C        -18.8870    3.3070  -21.1740 C.2   170  HIS170      0.2291
     26  O        -18.5310    3.7680  -22.2640 O.2   170  HIS170     -0.2864
     27  CB       -19.4610    4.8630  -19.3450 C.3   170  HIS170      0.0771
     28  CG       -20.5470    5.5160  -18.5660 C.ar  170  HIS170      0.0820
     29  ND1      -21.0270    6.7680  -18.8720 N.ar  170  HIS170     -0.2267
     30  CD2      -21.3110    5.0540  -17.5470 C.ar  170  HIS170      0.1154
     31  CE1      -22.0270    7.0600  -18.0610 C.ar  170  HIS170      0.1986
     32  NE2      -22.2160    6.0380  -17.2420 N.ar  170  HIS170     -0.2212
     33  N        -17.4650   -0.9020  -22.0110 N.3   172  LEU172     -0.1245
     34  CA       -17.8310   -2.3050  -22.0060 C.3   172  LEU172      0.1561
     35  C        -16.6370   -3.1200  -22.4410 C.2   172  LEU172      0.2260
     36  O        -15.8500   -2.6710  -23.2700 O.2   172  LEU172     -0.2867
     37  CB       -19.0090   -2.5740  -22.9460 C.3   172  LEU172      0.0270
     38  CG       -19.3700   -4.0530  -23.2380 C.3   172  LEU172      0.0019
     39  CD1      -20.8480   -4.1930  -23.5460 C.3   172  LEU172      0.0001
     40  CD2      -18.5670   -4.6640  -24.3840 C.3   172  LEU172      0.0001
     41  N        -27.2340   -6.2000  -20.5260 N.3   237  PRO237     -0.2116
     42  CA       -27.3000   -5.7230  -21.9190 C.3   237  PRO237      0.1372
     43  C        -26.5680   -6.6430  -22.9030 C.2   237  PRO237      0.2244
     44  O        -25.7600   -7.4720  -22.5060 O.2   237  PRO237     -0.2868
     45  CB       -26.6530   -4.3340  -21.8630 C.3   237  PRO237      0.0268
     46  CG       -25.8440   -4.3220  -20.6190 C.3   237  PRO237      0.0207
     47  CD       -26.5000   -5.2690  -19.6500 C.3   237  PRO237      0.0892
     48  N        -24.0250   -3.2220  -28.5500 N.3   242  VAL242     -0.1245
     49  CA       -23.1390   -2.1680  -28.0370 C.3   242  VAL242      0.1561
     50  C        -21.9600   -1.9720  -28.9760 C.2   242  VAL242      0.2260
     51  O        -21.4870   -0.8530  -29.1290 O.2   242  VAL242     -0.2867
     52  CB       -22.6360   -2.4940  -26.6070 C.3   242  VAL242      0.0252
     53  CG1      -21.6870   -1.4240  -26.0820 C.3   242  VAL242      0.0019
     54  CG2      -23.8170   -2.6630  -25.6670 C.3   242  VAL242      0.0019
     55  N        -19.3160    5.9750  -30.0080 N.3   341  SER341     -0.1217
     56  CA       -18.3820    5.1540  -29.2450 C.3   341  SER341      0.1889
     57  C        -17.3340    4.5470  -30.1450 C.2   341  SER341      0.2288
     58  O        -17.4930    4.5090  -31.3520 O.2   341  SER341     -0.2866
     59  CB       -19.1140    4.0440  -28.5040 C.3   341  SER341      0.2089
     60  OG       -19.9110    4.5980  -27.4780 O.3   341  SER341     -0.2183
     61  N        -15.4380   -1.2750  -25.7600 N.3   355  VAL355     -0.1245
     62  CA       -16.2110   -0.1900  -26.3300 C.3   355  VAL355      0.1561
     63  C        -16.2220    0.9150  -25.2880 C.2   355  VAL355      0.2260
     64  O        -16.4880    0.6790  -24.1010 O.2   355  VAL355     -0.2867
     65  CB       -17.6340   -0.6410  -26.7450 C.3   355  VAL355      0.0252
     66  CG1      -18.4110    0.5080  -27.3600 C.3   355  VAL355      0.0019
     67  CG2      -17.5470   -1.7880  -27.7440 C.3   355  VAL355      0.0019
     68  N        -17.4350    5.0320  -24.6920 N.3   357  MET357     -0.1245
     69  CA       -18.1690    6.1980  -25.1470 C.3   357  MET357      0.1570
     70  C        -17.2470    7.3940  -25.2370 C.2   357  MET357      0.2261
     71  O        -16.3110    7.5120  -24.4490 O.2   357  MET357     -0.2867
     72  CB       -19.2730    6.5950  -24.1680 C.3   357  MET357      0.0387
     73  CG       -20.5000    5.7300  -24.1460 C.3   357  MET357      0.0595
     74  SD       -21.6260    6.3670  -22.8820 S.3   357  MET357     -0.1393
     75  CE       -23.0510    5.3160  -23.1700 C.3   357  MET357      0.0692
@<TRIPOS>BOND
     1    58    57    2
     2    57    56    1
     3    55    56    1
     4    56    59    1
     5    51    50    2
     6    50    49    1
     7    48    49    1
     8    59    60    1
     9    49    52    1
    10    67    65    1
    11    66    65    1
    12    65    62    1
    13    52    53    1
    14    52    54    1
    15    62    61    1
    16    62    63    1
    17    63    64    2
    18    70    69    1
    19    70    71    2
    20    69    68    1
    21    69    72    1
    22    40    38    1
    23    72    73    1
    24    73    74    1
    25    39    38    1
    26    36    35    2
    27    38    37    1
    28    75    74    1
    29    37    34    1
    30    43    44    2
    31    43    42    1
    32    35    34    1
    33    26    25    2
    34    33    34    1
    35    42    45    1
    36    42    41    1
    37    45    46    1
    38    25    24    1
    39    22    21    2
    40    46    47    1
    41    41    47    1
    42    24    23    1
    43    24    27    1
    44    17    16    1
    45    21    23   am
    46    21    20    1
    47    16    18    1
    48    16    13    1
    49    27    28    1
    50    20    19    1
    51    29    28   ar
    52    29    31   ar
    53    28    30   ar
    54    13    12    1
    55    13    14    1
    56    11     9    1
    57    31    32   ar
    58    30    32   ar
    59    14    15    2
    60     9    10    1
    61     9     8    2
    62     8     7    1
    63     7     6    1
    64     6     5    1
    65     5     2    1
    66     4     3    2
    67     2     3    1
    68     2     1    1
