@<TRIPOS>MOLECULE
tmp/4n98A00.pdb
 100 95 0 0 0
SMALL
GASTEIGER

@<TRIPOS>ATOM
      1  N         12.3380  -13.6130   -2.9110 N.3   146  ARG146     -0.1245
      2  CA        13.4600  -12.8300   -3.3820 C.3   146  ARG146      0.1563
      3  C         13.9070  -12.0610   -2.1660 C.2   146  ARG146      0.2260
      4  O         13.4130  -10.9800   -1.8920 O.2   146  ARG146     -0.2867
      5  CB        13.0780  -11.8680   -4.5150 C.3   146  ARG146      0.0307
      6  CG        12.4420  -12.5360   -5.7130 C.3   146  ARG146      0.0489
      7  CD        10.9660  -12.2140   -5.7930 C.3   146  ARG146      0.2205
      8  NE        10.6490  -11.4050   -6.9430 N.pl3 146  ARG146     -0.0865
      9  CZ         9.5050  -10.7540   -7.1370 C.cat 146  ARG146      0.5346
     10  NH1        8.5200  -10.7670   -6.2400 N.pl3 146  ARG146      0.1354
     11  NH2        9.3610  -10.0610   -8.2550 N.pl3 146  ARG146      0.1354
     12  N         16.3440  -10.3480   -1.4630 N.3   148  TYR148     -0.1227
     13  CA        16.9290   -9.0210   -1.7200 C.3   148  TYR148      0.1736
     14  C         15.8830   -7.8850   -1.6880 C.2   148  TYR148      0.2595
     15  O         16.2410   -6.7110   -1.5750 O.2   148  TYR148     -0.2718
     16  CB        17.7480   -9.0140   -3.0360 C.3   148  TYR148      0.0548
     17  CG        17.0190   -9.4420   -4.3060 C.ar  148  TYR148     -0.0200
     18  CD1       16.2370   -8.5430   -5.0160 C.ar  148  TYR148     -0.0009
     19  CD2       17.1320  -10.7440   -4.7990 C.ar  148  TYR148     -0.0009
     20  CE1       15.5700   -8.9230   -6.1730 C.ar  148  TYR148      0.0417
     21  CE2       16.4710  -11.1310   -5.9590 C.ar  148  TYR148      0.0417
     22  CZ        15.6920  -10.2240   -6.6390 C.ar  148  TYR148      0.1957
     23  OH        15.0270  -10.5990   -7.7850 O.3   148  TYR148     -0.2866
     24  N         14.6050   -8.2490   -1.7670 N.am  149  LEU149     -0.1980
     25  CA        13.5020   -7.2820   -1.7230 C.3   149  LEU149      0.1596
     26  C         12.9920   -7.0260   -0.3020 C.2   149  LEU149      0.2287
     27  O         12.2130   -6.0850   -0.1110 O.2   149  LEU149     -0.2864
     28  CB        12.3270   -7.7670   -2.5850 C.3   149  LEU149      0.0297
     29  CG        12.5280   -7.8900   -4.0950 C.3   149  LEU149      0.0022
     30  CD1       11.1950   -8.2130   -4.7450 C.3   149  LEU149      0.0001
     31  CD2       13.1160   -6.6220   -4.7030 C.3   149  LEU149      0.0001
     32  N         11.1850   -1.8910   -3.0320 N.3   166  THR166     -0.1218
     33  CA        10.1760   -2.4650   -3.9110 C.3   166  THR166      0.1862
     34  C          9.8820   -3.8830   -3.5150 C.2   166  THR166      0.2287
     35  O         10.7360   -4.5580   -2.9470 O.2   166  THR166     -0.2866
     36  CB        10.6090   -2.4250   -5.3910 C.3   166  THR166      0.1770
     37  OG1        9.5380   -2.8770   -6.2350 O.3   166  THR166     -0.2211
     38  CG2       11.8310   -3.2730   -5.6440 C.3   166  THR166      0.0375
     39  N          8.2800   -5.8550   -5.9160 N.3   168  GLY168     -0.1210
     40  CA         8.0210   -6.4780   -7.2020 C.3   168  GLY168      0.1956
     41  C          6.7250   -6.0240   -7.8580 C.2   168  GLY168      0.2612
     42  O          6.4610   -6.3960   -8.9900 O.2   168  GLY168     -0.2717
     43  N          5.9110   -5.2540   -7.1340 N.am  169  HIS169     -0.1961
     44  CA         4.6240   -4.7580   -7.6400 C.3   169  HIS169      0.1787
     45  C          4.5330   -3.2380   -7.6450 C.2   169  HIS169      0.2620
     46  O          3.9170   -2.6440   -8.5380 O.2   169  HIS169     -0.2715
     47  CB         3.4870   -5.3320   -6.8080 C.3   169  HIS169      0.0785
     48  CG         3.4800   -6.8290   -6.7570 C.ar  169  HIS169      0.0821
     49  ND1        3.1440   -7.6090   -7.8440 N.ar  169  HIS169     -0.2267
     50  CD2        3.7950   -7.6870   -5.7580 C.ar  169  HIS169      0.1154
     51  CE1        3.2470   -8.8870   -7.5130 C.ar  169  HIS169      0.1986
     52  NE2        3.6340   -8.9590   -6.2500 N.ar  169  HIS169     -0.2212
     53  N          5.1530   -2.6190   -6.6520 N.am  170  ARG170     -0.1963
     54  CA         5.2200   -1.1710   -6.5560 C.3   170  ARG170      0.1729
     55  C          6.6070   -0.8300   -6.0310 C.2   170  ARG170      0.2616
     56  O          7.2510   -1.6640   -5.3890 O.2   170  ARG170     -0.2715
     57  CB         4.1050   -0.6270   -5.6630 C.3   170  ARG170      0.0348
     58  CG         3.8050   -1.4520   -4.4090 C.3   170  ARG170      0.0492
     59  CD         4.7210   -1.1070   -3.2400 C.3   170  ARG170      0.2205
     60  NE         4.3260   -1.8380   -2.0420 N.pl3 170  ARG170     -0.0865
     61  CZ         3.3550   -1.4910   -1.2000 C.cat 170  ARG170      0.5346
     62  NH1        2.6630   -0.3740   -1.3680 N.pl3 170  ARG170      0.1354
     63  NH2        3.0890   -2.2660   -0.1560 N.pl3 170  ARG170      0.1354
     64  N          7.0730    0.3700   -6.3280 N.am  171  LEU171     -0.1977
     65  CA         8.4280    0.7760   -5.9870 C.3   171  LEU171      0.1596
     66  C          8.4280    2.2220   -5.4780 C.2   171  LEU171      0.2287
     67  O          7.6420    3.0400   -5.9220 O.2   171  LEU171     -0.2864
     68  CB         9.3530    0.6050   -7.2090 C.3   171  LEU171      0.0297
     69  CG        10.7900    1.1560   -7.1490 C.3   171  LEU171      0.0022
     70  CD1       11.7430    0.3280   -7.9970 C.3   171  LEU171      0.0001
     71  CD2       10.8480    2.6360   -7.5300 C.3   171  LEU171      0.0001
     72  N         16.8480   -4.8280   -8.0130 N.3   236  PRO236     -0.2116
     73  CA        16.4480   -4.2270   -9.2890 C.3   236  PRO236      0.1372
     74  C         16.9080   -2.7890   -9.4490 C.2   236  PRO236      0.2244
     75  O         17.1920   -2.1110   -8.4670 O.2   236  PRO236     -0.2868
     76  CB        14.9130   -4.2690   -9.2330 C.3   236  PRO236      0.0268
     77  CG        14.5960   -4.3340   -7.7900 C.3   236  PRO236      0.0207
     78  CD        15.6770   -5.1810   -7.2010 C.3   236  PRO236      0.0892
     79  N         12.3560    0.5990  -13.7540 N.3   241  VAL241     -0.1245
     80  CA        10.9950    0.5390  -13.2770 C.3   241  VAL241      0.1561
     81  C         10.2940    1.8640  -13.5600 C.2   241  VAL241      0.2260
     82  O          9.0890    1.8760  -13.8450 O.2   241  VAL241     -0.2867
     83  CB        10.9410    0.1830  -11.7730 C.3   241  VAL241      0.0252
     84  CG1        9.5140    0.2620  -11.2560 C.3   241  VAL241      0.0019
     85  CG2       11.5070   -1.2210  -11.5350 C.3   241  VAL241      0.0019
     86  N          6.2650    4.1380   -8.1870 N.3   354  VAL354     -0.1245
     87  CA         5.8260    3.4670   -9.3940 C.3   354  VAL354      0.1561
     88  C          4.9310    2.3160   -8.9870 C.2   354  VAL354      0.2260
     89  O          5.2980    1.4970   -8.1270 O.2   354  VAL354     -0.2867
     90  CB         7.0030    2.9510  -10.2270 C.3   354  VAL354      0.0252
     91  CG1        6.4950    2.2280  -11.4750 C.3   354  VAL354      0.0019
     92  CG2        7.9240    4.1030  -10.6100 C.3   354  VAL354      0.0019
     93  N          2.5500   -0.8520  -10.6370 N.3   356  MET356     -0.1245
     94  CA         2.2010   -1.6400  -11.8190 C.3   356  MET356      0.1570
     95  C          0.6880   -1.6370  -12.0400 C.2   356  MET356      0.2261
     96  O         -0.0820   -1.5690  -11.0990 O.2   356  MET356     -0.2867
     97  CB         2.7000   -3.0900  -11.6910 C.3   356  MET356      0.0387
     98  CG         4.1920   -3.2600  -11.9240 C.3   356  MET356      0.0595
     99  SD         4.7710   -2.5860  -13.5000 S.3   356  MET356     -0.1393
    100  CE         4.4670   -3.9660  -14.6010 C.3   356  MET356      0.0692
@<TRIPOS>BOND
     1   100    99    1
     2    82    81    2
     3    79    80    1
     4    81    80    1
     5    99    98    1
     6    80    83    1
     7    95    94    1
     8    95    96    2
     9    98    97    1
    10    94    97    1
    11    94    93    1
    12    83    85    1
    13    83    84    1
    14    91    90    1
    15    92    90    1
    16    90    87    1
    17    74    73    1
    18    74    75    2
    19    87    88    1
    20    87    86    1
    21    73    76    1
    22    73    72    1
    23    76    77    1
    24    42    41    2
    25    88    89    2
    26    46    45    2
    27    11     9    1
    28    72    78    1
    29    70    69    1
    30    41    40    1
    31    41    43   am
    32    49    51   ar
    33    49    48   ar
    34    77    78    1
    35    23    22    1
    36    45    44    1
    37    45    53   am
    38    44    43    1
    39    44    47    1
    40    71    69    1
    41    51    52   ar
    42    68    69    1
    43    68    65    1
    44    40    39    1
    45     9     8    2
    46     9    10    1
    47     8     7    1
    48    47    48    1
    49    48    50   ar
    50    53    54    1
    51    22    20   ar
    52    22    21   ar
    53    54    55    1
    54    54    57    1
    55    64    55   am
    56    64    65    1
    57    52    50   ar
    58    37    36    1
    59    20    18   ar
    60    55    56    2
    61    65    66    1
    62    21    19   ar
    63    67    66    2
    64     7     6    1
    65     6     5    1
    66    57    58    1
    67    38    36    1
    68    36    33    1
    69    18    17   ar
    70    19    17   ar
    71    30    29    1
    72    31    29    1
    73     5     2    1
    74    58    59    1
    75    17    16    1
    76    29    28    1
    77    33    34    1
    78    33    32    1
    79    34    35    2
    80     2     1    1
    81     2     3    1
    82    59    60    1
    83    16    13    1
    84    28    25    1
    85     3     4    2
    86    60    61    2
    87    24    25    1
    88    24    14   am
    89    25    26    1
    90    13    14    1
    91    13    12    1
    92    14    15    2
    93    62    61    1
    94    61    63    1
    95    26    27    2
