@<TRIPOS>MOLECULE
tmp/4n99B10.pdb
 80 72 0 0 0
SMALL
GASTEIGER

@<TRIPOS>ATOM
      1  N         13.6570  -11.7880   18.8720 N.3   260  ASP260     -0.1239
      2  CA        12.6360  -12.2930   17.9580 C.3   260  ASP260      0.1674
      3  C         11.6550  -13.2400   18.6490 C.2   260  ASP260      0.2266
      4  O         10.4660  -13.2320   18.3380 O.2   260  ASP260     -0.2867
      5  CB        13.2660  -12.9630   16.7320 C.3   260  ASP260      0.1410
      6  CG        12.3340  -12.9720   15.5290 C.2   260  ASP260      0.3668
      7  OD1       11.7940  -11.9020   15.1760 O.co2 260  ASP260     -0.2456
      8  OD2       12.1470  -14.0490   14.9260 O.co2 260  ASP260     -0.2456
      9  N          9.4180  -11.0470   20.5750 N.3   263  LYS263     -0.1231
     10  CA         8.5780  -10.3300   19.6150 C.3   263  LYS263      0.1693
     11  C          7.4030  -11.1810   19.1270 C.2   263  LYS263      0.2591
     12  O          6.2510  -10.7380   19.1620 O.2   263  LYS263     -0.2718
     13  CB         9.4210   -9.8630   18.4230 C.3   263  LYS263      0.0285
     14  CG         8.8040   -8.7330   17.6110 C.3   263  LYS263      0.0035
     15  CD         9.4040   -8.6360   16.2120 C.3   263  LYS263      0.0206
     16  CE        10.8430   -8.1390   16.2280 C.3   263  LYS263      0.1093
     17  NZ        11.3330   -7.8080   14.8590 N.3   263  LYS263     -0.1314
     18  N          7.7010  -12.4020   18.6880 N.am  264  GLN264     -0.1979
     19  CA         6.6850  -13.2860   18.1180 C.3   264  GLN264      0.1601
     20  C          5.7140  -13.8330   19.1660 C.2   264  GLN264      0.2287
     21  O          4.5870  -14.1990   18.8340 O.2   264  GLN264     -0.2864
     22  CB         7.3280  -14.4260   17.3160 C.3   264  GLN264      0.0394
     23  CG         8.3300  -13.9880   16.2480 C.3   264  GLN264      0.0908
     24  CD         7.7970  -12.9310   15.2880 C.2   264  GLN264      0.2608
     25  OE1        6.5960  -12.8570   15.0210 O.2   264  GLN264     -0.2717
     26  NE2        8.7000  -12.1100   14.7590 N.am  264  GLN264     -0.0878
     27  N          3.4110  -10.7400   19.7840 N.3   267  ALA267     -0.1245
     28  CA         2.5540  -10.5710   18.6100 C.3   267  ALA267      0.1562
     29  C          1.4060  -11.5800   18.5770 C.2   267  ALA267      0.2260
     30  O          0.2780  -11.2230   18.2390 O.2   267  ALA267     -0.2867
     31  CB         3.3740  -10.6460   17.3300 C.3   267  ALA267      0.0290
     32  N         -1.0220  -10.6340   21.4430 N.3   270  ALA270     -0.1231
     33  CA        -1.7370   -9.3870   21.1380 C.3   270  ALA270      0.1694
     34  C         -3.0850   -9.6160   20.4570 C.2   270  ALA270      0.2591
     35  O         -4.0200   -8.8330   20.6450 O.2   270  ALA270     -0.2718
     36  CB        -0.8690   -8.4770   20.2810 C.3   270  ALA270      0.0304
     37  N         -3.1690  -10.6930   19.6750 N.am  271  ILE271     -0.1980
     38  CA        -4.3650  -11.0350   18.9020 C.3   271  ILE271      0.1595
     39  C         -5.6040  -11.1570   19.7880 C.2   271  ILE271      0.2287
     40  O         -6.7080  -10.8010   19.3720 O.2   271  ILE271     -0.2864
     41  CB        -4.1610  -12.3400   18.0940 C.3   271  ILE271      0.0276
     42  CG1       -2.8930  -12.2500   17.2330 C.3   271  ILE271      0.0022
     43  CG2       -5.3740  -12.6390   17.2190 C.3   271  ILE271      0.0022
     44  CD1       -2.3700  -13.5850   16.7430 C.3   271  ILE271      0.0001
     45  N         -5.2340   -2.8910   24.5380 N.3   278  ARG278     -0.1245
     46  CA        -4.0880   -3.6990   24.0800 C.3   278  ARG278      0.1563
     47  C         -3.1960   -4.2090   25.2190 C.2   278  ARG278      0.2260
     48  O         -1.9690   -4.2170   25.1080 O.2   278  ARG278     -0.2867
     49  CB        -3.2610   -2.9230   23.0390 C.3   278  ARG278      0.0307
     50  CG        -3.9970   -2.5970   21.7440 C.3   278  ARG278      0.0489
     51  CD        -3.8910   -3.7230   20.7230 C.3   278  ARG278      0.2205
     52  NE        -2.5320   -3.8650   20.1980 N.pl3 278  ARG278     -0.0865
     53  CZ        -2.1470   -4.7920   19.3240 C.cat 278  ARG278      0.5346
     54  NH1       -3.0140   -5.6820   18.8560 N.pl3 278  ARG278      0.1354
     55  NH2       -0.8870   -4.8280   18.9150 N.pl3 278  ARG278      0.1354
     56  N          5.9380   -4.0990   21.3630 N.3   324  LEU324     -0.1245
     57  CA         6.2240   -4.5090   19.9830 C.3   324  LEU324      0.1561
     58  C          6.9340   -3.4160   19.1810 C.2   324  LEU324      0.2260
     59  O          7.8060   -3.7110   18.3620 O.2   324  LEU324     -0.2867
     60  CB         4.9450   -4.9600   19.2630 C.3   324  LEU324      0.0270
     61  CG         4.3250   -6.3090   19.6580 C.3   324  LEU324      0.0019
     62  CD1        2.8750   -6.3850   19.2040 C.3   324  LEU324      0.0001
     63  CD2        5.1190   -7.4900   19.1140 C.3   324  LEU324      0.0001
     64  N         10.6600   -4.1010   17.6210 N.3   328  ASN328     -0.1240
     65  CA        10.8610   -3.8970   16.1840 C.3   328  ASN328      0.1653
     66  C         11.9340   -2.8550   15.8800 C.2   328  ASN328      0.2266
     67  O         12.6150   -2.9430   14.8590 O.2   328  ASN328     -0.2867
     68  CB         9.5440   -3.5300   15.4830 C.3   328  ASN328      0.1155
     69  CG         8.7510   -4.7500   15.0420 C.2   328  ASN328      0.2627
     70  OD1        9.3000   -5.6970   14.4750 O.2   328  ASN328     -0.2716
     71  ND2        7.4460   -4.7240   15.2850 N.am  328  ASN328     -0.0877
     72  N         15.8260   -4.5050   16.6860 N.3   331  LYS331     -0.1245
     73  CA        16.3080   -5.3890   15.6120 C.3   331  LYS331      0.1561
     74  C         17.6760   -6.0140   15.9170 C.2   331  LYS331      0.2260
     75  O         18.6010   -5.9610   15.1020 O.2   331  LYS331     -0.2867
     76  CB        16.3190   -4.6560   14.2620 C.3   331  LYS331      0.0271
     77  CG        16.6180   -5.5320   13.0560 C.3   331  LYS331      0.0035
     78  CD        15.5120   -6.4370   12.5900 C.3   331  LYS331      0.0206
     79  CE        14.4910   -5.7650   11.6980 C.3   331  LYS331      0.1093
     80  NZ        13.5020   -6.7410   11.1470 N.3   331  LYS331     -0.1314
@<TRIPOS>BOND
     1    80    79    1
     2    79    78    1
     3    78    77    1
     4    77    76    1
     5    76    73    1
     6    70    69    2
     7    26    24   am
     8    67    66    2
     9    17    16    1
    10     8     6   ar
    11    25    24    2
    12    69    71   am
    13    69    68    1
    14    75    74    2
    15     7     6   ar
    16    24    23    1
    17    68    65    1
    18     6     5    1
    19    73    74    1
    20    73    72    1
    21    66    65    1
    22    65    64    1
    23    15    16    1
    24    15    14    1
    25    23    22    1
    26     5     2    1
    27    44    42    1
    28    43    41    1
    29    42    41    1
    30    22    19    1
    31    31    28    1
    32    14    13    1
    33     2     3    1
    34     2     1    1
    35    41    38    1
    36    19    18    1
    37    19    20    1
    38    30    29    2
    39     4     3    2
    40    59    58    2
    41    13    10    1
    42    29    28    1
    43    28    27    1
    44    18    11   am
    45    21    20    2
    46    54    53    1
    47    38    37    1
    48    38    39    1
    49    55    53    1
    50    63    61    1
    51    11    12    2
    52    11    10    1
    53    58    57    1
    54    62    61    1
    55    60    61    1
    56    60    57    1
    57    53    52    2
    58    40    39    2
    59    10     9    1
    60    37    34   am
    61    57    56    1
    62    52    51    1
    63    36    33    1
    64    34    35    2
    65    34    33    1
    66    51    50    1
    67    33    32    1
    68    50    49    1
    69    49    46    1
    70    46    45    1
    71    46    47    1
    72    48    47    2
