@<TRIPOS>MOLECULE
tmp/4n99B02.pdb
 101 94 0 0 0
SMALL
GASTEIGER

@<TRIPOS>ATOM
      1  N         22.7120   12.7620   20.2320 N.3   167  ARG167     -0.1245
      2  CA        21.6160   12.0310   20.8660 C.3   167  ARG167      0.1563
      3  C         20.2400   12.4800   20.3660 C.2   167  ARG167      0.2260
      4  O         20.0200   13.6670   20.1100 O.2   167  ARG167     -0.2867
      5  CB        21.7140   12.1820   22.3920 C.3   167  ARG167      0.0307
      6  CG        20.5440   11.6190   23.1900 C.3   167  ARG167      0.0489
      7  CD        20.9010   11.3590   24.6490 C.3   167  ARG167      0.2205
      8  NE        21.4550   12.5300   25.3270 N.pl3 167  ARG167     -0.0865
      9  CZ        22.7130   12.6340   25.7440 C.cat 167  ARG167      0.5346
     10  NH1       23.5690   11.6360   25.5640 N.pl3 167  ARG167      0.1354
     11  NH2       23.1160   13.7420   26.3470 N.pl3 167  ARG167      0.1354
     12  N         15.1770    6.9330   23.6200 N.3   178  VAL178     -0.1231
     13  CA        16.3890    7.7530   23.6240 C.3   178  VAL178      0.1692
     14  C         17.5740    6.9650   23.0620 C.2   178  VAL178      0.2592
     15  O         17.8300    5.8320   23.4750 O.2   178  VAL178     -0.2718
     16  CB        16.6970    8.3420   25.0310 C.3   178  VAL178      0.0266
     17  CG1       16.7000    7.2630   26.1090 C.3   178  VAL178      0.0020
     18  CG2       18.0100    9.1120   25.0330 C.3   178  VAL178      0.0020
     19  N         18.2770    7.5720   22.1080 N.am  179  CYS179     -0.1956
     20  CA        19.4140    6.9350   21.4470 C.3   179  CYS179      0.1843
     21  C         20.6200    7.8690   21.3740 C.2   179  CYS179      0.2626
     22  O         20.4840    9.0360   21.0120 O.2   179  CYS179     -0.2714
     23  CB        19.0230    6.4710   20.0420 C.3   179  CYS179      0.0997
     24  SG        20.2970    5.5250   19.1740 S.3   179  CYS179     -0.0797
     25  N         21.7940    7.3430   21.7200 N.am  180  SER180     -0.1950
     26  CA        23.0480    8.0940   21.6510 C.3   180  SER180      0.1924
     27  C         24.0530    7.3930   20.7490 C.2   180  SER180      0.2314
     28  O         24.1740    6.1670   20.7770 O.2   180  SER180     -0.2863
     29  CB        23.6500    8.2690   23.0440 C.3   180  SER180      0.2116
     30  OG        22.7400    8.9100   23.9180 O.3   180  SER180     -0.2180
     31  N         15.0730   13.2010   29.7370 N.3   243  TYR243     -0.1241
     32  CA        15.0040   11.7420   29.7540 C.3   243  TYR243      0.1605
     33  C         15.6290   11.1530   31.0190 C.2   243  TYR243      0.2264
     34  O         15.2520   10.0620   31.4530 O.2   243  TYR243     -0.2867
     35  CB        15.6500   11.1470   28.4950 C.3   243  TYR243      0.0534
     36  CG        17.1660   11.1600   28.4750 C.ar  243  TYR243     -0.0201
     37  CD1       17.8720   12.3130   28.1240 C.ar  243  TYR243     -0.0009
     38  CD2       17.8960   10.0120   28.7880 C.ar  243  TYR243     -0.0009
     39  CE1       19.2590   12.3240   28.0990 C.ar  243  TYR243      0.0417
     40  CE2       19.2830   10.0140   28.7660 C.ar  243  TYR243      0.0417
     41  CZ        19.9590   11.1710   28.4200 C.ar  243  TYR243      0.1957
     42  OH        21.3350   11.1760   28.3960 O.3   243  TYR243     -0.2866
     43  N         13.9280    7.8340   33.1190 N.3   247  LEU247     -0.1245
     44  CA        14.5970    6.5410   33.2670 C.3   247  LEU247      0.1561
     45  C         14.4640    6.0170   34.6980 C.2   247  LEU247      0.2260
     46  O         14.7640    6.7450   35.6490 O.2   247  LEU247     -0.2867
     47  CB        16.0830    6.6470   32.9020 C.3   247  LEU247      0.0270
     48  CG        16.5390    6.9780   31.4780 C.3   247  LEU247      0.0019
     49  CD1       18.0290    7.2840   31.4830 C.3   247  LEU247      0.0001
     50  CD2       16.2260    5.8580   30.4950 C.3   247  LEU247      0.0001
     51  N         14.5520   -4.2520   32.0760 N.3   338  MET338     -0.1245
     52  CA        14.9830   -3.8220   33.4080 C.3   338  MET338      0.1570
     53  C         13.7790   -3.4240   34.2670 C.2   338  MET338      0.2261
     54  O         13.2030   -2.3460   34.0920 O.2   338  MET338     -0.2867
     55  CB        15.9920   -2.6720   33.2910 C.3   338  MET338      0.0387
     56  CG        17.2620   -3.0320   32.5250 C.3   338  MET338      0.0595
     57  SD        17.9750   -1.6710   31.5700 S.3   338  MET338     -0.1393
     58  CE        18.6690   -0.6450   32.8660 C.3   338  MET338      0.0692
     59  N         12.6120   -0.4260   31.7900 N.3   347  GLN347     -0.1245
     60  CA        13.6130    0.0270   30.8390 C.3   347  GLN347      0.1566
     61  C         13.9880   -1.1300   29.9200 C.2   347  GLN347      0.2260
     62  O         14.4670   -2.1700   30.3760 O.2   347  GLN347     -0.2867
     63  CB        14.8470    0.5930   31.5460 C.3   347  GLN347      0.0367
     64  CG        15.8330    1.2700   30.6020 C.3   347  GLN347      0.0905
     65  CD        16.8210    2.1750   31.3120 C.2   347  GLN347      0.2608
     66  OE1       17.9950    2.2230   30.9540 O.2   347  GLN347     -0.2717
     67  NE2       16.3500    2.9060   32.3180 N.am  347  GLN347     -0.0878
     68  N         16.3070   -2.3000   26.7610 N.3   349  GLU349     -0.1245
     69  CA        17.5160   -1.9910   26.0000 C.3   349  GLU349      0.1567
     70  C         17.9300   -3.1800   25.1490 C.2   349  GLU349      0.2260
     71  O         17.4890   -4.3070   25.3830 O.2   349  GLU349     -0.2867
     72  CB        18.6780   -1.6570   26.9430 C.3   349  GLU349      0.0388
     73  CG        18.5300   -0.3760   27.7490 C.3   349  GLU349      0.1160
     74  CD        19.7560   -0.0690   28.5940 C.2   349  GLU349      0.3649
     75  OE1       19.7260    0.9390   29.3270 O.co2 349  GLU349     -0.2457
     76  OE2       20.7510   -0.8260   28.5300 O.co2 349  GLU349     -0.2457
     77  N         24.1470   -0.1340   25.3080 N.3   354  GLN354     -0.1231
     78  CA        23.4490    0.8750   26.1050 C.3   354  GLN354      0.1698
     79  C         23.1420    2.1390   25.2980 C.2   354  GLN354      0.2593
     80  O         22.6000    3.1080   25.8370 O.2   354  GLN354     -0.2718
     81  CB        24.2670    1.2360   27.3490 C.3   354  GLN354      0.0381
     82  CG        24.3560    0.1330   28.3940 C.3   354  GLN354      0.0905
     83  CD        25.1990    0.5300   29.5930 C.2   354  GLN354      0.2608
     84  OE1       24.7060    0.5820   30.7210 O.2   354  GLN354     -0.2717
     85  NE2       26.4760    0.8190   29.3540 N.am  354  GLN354     -0.0878
     86  N         23.4820    2.1180   24.0090 N.am  355  SER355     -0.1938
     87  CA        23.3080    3.2750   23.1260 C.3   355  SER355      0.2055
     88  C         21.8420    3.6690   22.9270 C.2   355  SER355      0.2643
     89  O         21.5380    4.8420   22.7080 O.2   355  SER355     -0.2714
     90  CB        23.9870    3.0340   21.7740 C.3   355  SER355      0.2130
     91  OG        23.4820    1.8710   21.1450 O.3   355  SER355     -0.2179
     92  N         20.9450    2.6880   23.0040 N.am  356  ALA356     -0.1963
     93  CA        19.5050    2.9400   22.9500 C.3   356  ALA356      0.1728
     94  C         18.7990    2.3740   24.1820 C.2   356  ALA356      0.2616
     95  O         19.1000    1.2660   24.6270 O.2   356  ALA356     -0.2715
     96  CB        18.9060    2.3660   21.6760 C.3   356  ALA356      0.0334
     97  N         17.8660    3.1490   24.7270 N.am  357  ALA357     -0.1977
     98  CA        17.0870    2.7360   25.8900 C.3   357  ALA357      0.1597
     99  C         15.6390    3.1810   25.7470 C.2   357  ALA357      0.2287
    100  O         15.3620    4.2660   25.2330 O.2   357  ALA357     -0.2864
    101  CB        17.6950    3.2940   27.1690 C.3   357  ALA357      0.0319
@<TRIPOS>BOND
     1    24    23    1
     2    23    20    1
     3     4     3    2
     4     1     2    1
     5     3     2    1
     6    27    28    2
     7    27    26    1
     8     2     5    1
     9    22    21    2
    10    91    90    1
    11    21    20    1
    12    21    25   am
    13    20    19    1
    14    26    25    1
    15    26    29    1
    16    96    93    1
    17    90    87    1
    18    19    14   am
    19     5     6    1
    20    89    88    2
    21    88    92   am
    22    88    87    1
    23    93    92    1
    24    93    94    1
    25    29    30    1
    26    14    15    2
    27    14    13    1
    28    87    86    1
    29     6     7    1
    30    12    13    1
    31    13    16    1
    32    86    79   am
    33    94    95    2
    34    94    97   am
    35     7     8    1
    36    97    98    1
    37    16    18    1
    38    16    17    1
    39    70    71    2
    40    70    69    1
    41   100    99    2
    42    79    80    2
    43    79    78    1
    44    77    78    1
    45     8     9    2
    46    10     9    1
    47     9    11    1
    48    99    98    1
    49    98   101    1
    50    69    68    1
    51    69    72    1
    52    78    81    1
    53    72    73    1
    54    81    82    1
    55    73    74    1
    56    39    37   ar
    57    39    41   ar
    58    37    36   ar
    59    82    83    1
    60    42    41    1
    61    41    40   ar
    62    36    35    1
    63    36    38   ar
    64    35    32    1
    65    76    74   ar
    66    74    75   ar
    67    40    38   ar
    68    85    83   am
    69    83    84    2
    70    31    32    1
    71    32    33    1
    72    61    62    2
    73    61    60    1
    74    50    48    1
    75    64    65    1
    76    64    63    1
    77    60    63    1
    78    60    59    1
    79    66    65    2
    80    33    34    2
    81    65    67   am
    82    48    49    1
    83    48    47    1
    84    57    56    1
    85    57    58    1
    86    51    52    1
    87    56    55    1
    88    47    44    1
    89    43    44    1
    90    44    45    1
    91    55    52    1
    92    52    53    1
    93    54    53    2
    94    45    46    2
