@<TRIPOS>MOLECULE
tmp/4n99B07.pdb
 93 83 0 0 0
SMALL
GASTEIGER

@<TRIPOS>ATOM
      1  N         15.4840   27.9730  -10.3730 N.3    35  GLN35      -0.1245
      2  CA        16.4660   29.0340  -10.5830 C.3    35  GLN35       0.1566
      3  C         17.6340   28.5200  -11.4150 C.2    35  GLN35       0.2260
      4  O         18.2410   27.5040  -11.0760 O.2    35  GLN35      -0.2867
      5  CB        17.0120   29.5480   -9.2450 C.3    35  GLN35       0.0367
      6  CG        15.9940   30.1540   -8.2910 C.3    35  GLN35       0.0905
      7  CD        16.5830   30.4190   -6.9140 C.2    35  GLN35       0.2608
      8  OE1       16.6590   31.5650   -6.4700 O.2    35  GLN35      -0.2717
      9  NE2       17.0170   29.3590   -6.2380 N.am   35  GLN35      -0.0878
     10  N         13.6370   24.2800   -5.2880 N.3    44  THR44      -0.1218
     11  CA        13.2670   24.4690   -3.8820 C.3    44  THR44       0.1862
     12  C         11.7810   24.2030   -3.6290 C.2    44  THR44       0.2287
     13  O         10.9180   24.6850   -4.3650 O.2    44  THR44      -0.2866
     14  CB        13.6300   25.8900   -3.3850 C.3    44  THR44       0.1770
     15  OG1       14.9920   26.1850   -3.7160 O.3    44  THR44      -0.2211
     16  CG2       13.4490   26.0100   -1.8710 C.3    44  THR44       0.0375
     17  N         12.5690   23.9430    4.2650 N.3    51  GLU51      -0.1245
     18  CA        12.9210   24.0010    2.8530 C.3    51  GLU51       0.1567
     19  C         13.7950   22.8250    2.4510 C.2    51  GLU51       0.2260
     20  O         14.6840   22.4130    3.2000 O.2    51  GLU51      -0.2867
     21  CB        13.6740   25.2940    2.5400 C.3    51  GLU51       0.0388
     22  CG        12.8000   26.5220    2.3690 C.3    51  GLU51       0.1160
     23  CD        13.5980   27.7580    1.9940 C.2    51  GLU51       0.3649
     24  OE1       14.8480   27.6870    1.9830 O.co2  51  GLU51      -0.2457
     25  OE2       12.9710   28.8030    1.7060 O.co2  51  GLU51      -0.2457
     26  N         16.2710   21.9420   -0.7390 N.3    53  VAL53      -0.1245
     27  CA        16.9400   22.5080   -1.9100 C.3    53  VAL53       0.1561
     28  C         17.7760   21.4470   -2.6230 C.2    53  VAL53       0.2260
     29  O         18.4990   20.6820   -1.9840 O.2    53  VAL53      -0.2867
     30  CB        17.8300   23.7190   -1.5330 C.3    53  VAL53       0.0252
     31  CG1       18.4470   24.3540   -2.7730 C.3    53  VAL53       0.0019
     32  CG2       17.0300   24.7580   -0.7580 C.3    53  VAL53       0.0019
     33  N         20.4840   21.0810   -6.0160 N.3    55  ARG55      -0.1245
     34  CA        21.2780   21.7590   -7.0350 C.3    55  ARG55       0.1563
     35  C         21.6850   20.7790   -8.1270 C.2    55  ARG55       0.2260
     36  O         22.2200   19.7040   -7.8450 O.2    55  ARG55      -0.2867
     37  CB        22.4930   22.4570   -6.4150 C.3    55  ARG55       0.0307
     38  CG        22.1300   23.2870   -5.1920 C.3    55  ARG55       0.0489
     39  CD        23.1360   24.3750   -4.8600 C.3    55  ARG55       0.2205
     40  NE        22.7950   24.9900   -3.5740 N.pl3  55  ARG55      -0.0865
     41  CZ        21.9030   25.9660   -3.4070 C.cat  55  ARG55       0.5346
     42  NH1       21.2510   26.4770   -4.4470 N.pl3  55  ARG55       0.1354
     43  NH2       21.6660   26.4380   -2.1900 N.pl3  55  ARG55       0.1354
     44  N         10.6530   32.7380    1.3710 N.3   117  ASN117     -0.1225
     45  CA        12.0890   32.7020    1.5960 C.3   117  ASN117      0.1785
     46  C         12.3860   32.6920    3.0930 C.2   117  ASN117      0.2597
     47  O         12.2060   33.7070    3.7740 O.2   117  ASN117     -0.2718
     48  CB        12.7440   33.9130    0.9120 C.3   117  ASN117      0.1169
     49  CG        14.2640   33.8380    0.8880 C.2   117  ASN117      0.2627
     50  OD1       14.9160   33.6640    1.9220 O.2   117  ASN117     -0.2716
     51  ND2       14.8370   33.9990   -0.3000 N.am  117  ASN117     -0.0877
     52  N         12.8240   31.5400    3.6030 N.am  118  LEU118     -0.1980
     53  CA        13.2290   31.4190    5.0020 C.3   118  LEU118      0.1596
     54  C         14.3950   32.3540    5.2950 C.2   118  LEU118      0.2287
     55  O         15.4100   32.3320    4.5890 O.2   118  LEU118     -0.2864
     56  CB        13.6170   29.9780    5.3520 C.3   118  LEU118      0.0297
     57  CG        12.5350   28.9200    5.5900 C.3   118  LEU118      0.0022
     58  CD1       13.1900   27.5920    5.9410 C.3   118  LEU118      0.0001
     59  CD2       11.5660   29.3410    6.6850 C.3   118  LEU118      0.0001
     60  N         17.6500   34.3130    6.6940 N.3   120  ASP120     -0.1239
     61  CA        19.0110   33.8930    7.0100 C.3   120  ASP120      0.1674
     62  C         19.1830   33.7440    8.5170 C.2   120  ASP120      0.2266
     63  O         18.5100   34.4150    9.3030 O.2   120  ASP120     -0.2867
     64  CB        20.0350   34.8960    6.4660 C.3   120  ASP120      0.1410
     65  CG        20.0070   35.0080    4.9470 C.2   120  ASP120      0.3668
     66  OD1       19.5200   34.0720    4.2720 O.co2 120  ASP120     -0.2456
     67  OD2       20.4840   36.0390    4.4260 O.co2 120  ASP120     -0.2456
     68  N         20.0850   22.8360    9.8410 N.3   223  ARG223     -0.1245
     69  CA        20.4130   22.6090    8.4380 C.3   223  ARG223      0.1563
     70  C         21.1590   21.2880    8.2610 C.2   223  ARG223      0.2260
     71  O         22.0820   20.9810    9.0180 O.2   223  ARG223     -0.2867
     72  CB        21.2360   23.7790    7.8810 C.3   223  ARG223      0.0307
     73  CG        21.5500   23.6960    6.3940 C.3   223  ARG223      0.0489
     74  CD        21.9940   25.0350    5.8200 C.3   223  ARG223      0.2205
     75  NE        20.8940   26.0010    5.7680 N.pl3 223  ARG223     -0.0865
     76  CZ        20.8620   27.0780    4.9860 C.cat 223  ARG223      0.5346
     77  NH1       21.8680   27.3470    4.1620 N.pl3 223  ARG223      0.1354
     78  NH2       19.8100   27.8860    5.0210 N.pl3 223  ARG223      0.1354
     79  N         20.3700   20.3740    0.1390 N.3   230  ILE230     -0.1245
     80  CA        20.4380   21.1640    1.3700 C.3   230  ILE230      0.1561
     81  C         19.0500   21.2710    1.9980 C.2   230  ILE230      0.2260
     82  O         18.1110   21.7750    1.3750 O.2   230  ILE230     -0.2867
     83  CB        21.0240   22.5780    1.1330 C.3   230  ILE230      0.0252
     84  CG1       22.3920   22.4940    0.4440 C.3   230  ILE230      0.0019
     85  CG2       21.1440   23.3390    2.4490 C.3   230  ILE230      0.0019
     86  CD1       22.8620   23.7900   -0.1840 C.3   230  ILE230      0.0001
     87  N         16.8590   22.7540    5.2070 N.3   232  THR232     -0.1218
     88  CA        16.7770   23.7030    6.3140 C.3   232  THR232      0.1862
     89  C         15.3880   23.6350    6.9370 C.2   232  THR232      0.2287
     90  O         14.3830   23.5630    6.2290 O.2   232  THR232     -0.2866
     91  CB        17.0700   25.1530    5.8680 C.3   232  THR232      0.1770
     92  OG1       18.2630   25.1910    5.0780 O.3   232  THR232     -0.2211
     93  CG2       17.2550   26.0620    7.0770 C.3   232  THR232      0.0375
@<TRIPOS>BOND
     1     3     4    2
     2     3     2    1
     3     2     1    1
     4     2     5    1
     5     5     6    1
     6     6     7    1
     7    35    36    2
     8    35    34    1
     9    34    37    1
    10    34    33    1
    11     7     8    2
    12     7     9   am
    13    37    38    1
    14    10    11    1
    15    38    39    1
    16    39    40    1
    17    42    41    1
    18    13    12    2
    19    11    12    1
    20    11    14    1
    21    15    14    1
    22    40    41    2
    23    41    43    1
    24    14    16    1
    25    31    30    1
    26    28    29    2
    27    28    27    1
    28    27    30    1
    29    27    26    1
    30    30    32    1
    31    51    49   am
    32    86    84    1
    33    79    80    1
    34    84    83    1
    35    49    48    1
    36    49    50    2
    37    48    45    1
    38    83    80    1
    39    83    85    1
    40    80    81    1
    41    44    45    1
    42    82    81    2
    43    45    46    1
    44    25    23   ar
    45    24    23   ar
    46    23    22    1
    47    22    21    1
    48    19    18    1
    49    19    20    2
    50    21    18    1
    51    18    17    1
    52    46    52   am
    53    46    47    2
    54    52    53    1
    55    77    76    1
    56    66    65   ar
    57    67    65   ar
    58    55    54    2
    59    65    64    1
    60    76    78    1
    61    76    75    2
    62    53    54    1
    63    53    56    1
    64    92    91    1
    65    87    88    1
    66    56    57    1
    67    57    58    1
    68    57    59    1
    69    75    74    1
    70    74    73    1
    71    91    88    1
    72    91    93    1
    73    90    89    2
    74    88    89    1
    75    73    72    1
    76    64    61    1
    77    60    61    1
    78    61    62    1
    79    72    69    1
    80    70    69    1
    81    70    71    2
    82    69    68    1
    83    62    63    2
