@<TRIPOS>MOLECULE
tmp/4n99A00.pdb
 128 121 0 0 0
SMALL
GASTEIGER

@<TRIPOS>ATOM
      1  N        -28.5630   -0.1940  -11.1900 N.3   146  ARG146     -0.1245
      2  CA       -28.8250   -1.3600  -12.0240 C.3   146  ARG146      0.1563
      3  C        -27.9250   -2.5020  -11.5600 C.2   146  ARG146      0.2260
      4  O        -26.7850   -2.6450  -12.0130 O.2   146  ARG146     -0.2867
      5  CB       -28.5960   -1.0310  -13.5000 C.3   146  ARG146      0.0307
      6  CG       -29.6180   -0.0620  -14.0720 C.3   146  ARG146      0.0489
      7  CD       -28.9310    1.0710  -14.8110 C.3   146  ARG146      0.2205
      8  NE       -28.6240    0.7450  -16.2010 N.pl3 146  ARG146     -0.0865
      9  CZ       -27.6600    1.3270  -16.9090 C.cat 146  ARG146      0.5346
     10  NH1      -26.8860    2.2530  -16.3550 N.pl3 146  ARG146      0.1354
     11  NH2      -27.4560    0.9710  -18.1690 N.pl3 146  ARG146      0.1354
     12  N        -27.7830   -5.6610  -12.0300 N.3   148  TYR148     -0.1227
     13  CA       -27.3370   -6.6600  -13.0050 C.3   148  TYR148      0.1736
     14  C        -25.9990   -6.3130  -13.6730 C.2   148  TYR148      0.2595
     15  O        -25.3530   -7.1790  -14.2720 O.2   148  TYR148     -0.2718
     16  CB       -28.4250   -6.9200  -14.0600 C.3   148  TYR148      0.0548
     17  CG       -28.9430   -5.6800  -14.7610 C.ar  148  TYR148     -0.0200
     18  CD1      -28.3260   -5.1990  -15.9160 C.ar  148  TYR148     -0.0009
     19  CD2      -30.0590   -4.9940  -14.2750 C.ar  148  TYR148     -0.0009
     20  CE1      -28.7980   -4.0680  -16.5620 C.ar  148  TYR148      0.0417
     21  CE2      -30.5370   -3.8610  -14.9140 C.ar  148  TYR148      0.0417
     22  CZ       -29.9030   -3.4030  -16.0560 C.ar  148  TYR148      0.1957
     23  OH       -30.3700   -2.2810  -16.6990 O.3   148  TYR148     -0.2866
     24  N        -25.5930   -5.0500  -13.5620 N.am  149  LEU149     -0.1980
     25  CA       -24.3100   -4.5950  -14.0950 C.3   149  LEU149      0.1596
     26  C        -23.1790   -4.7430  -13.0740 C.2   149  LEU149      0.2287
     27  O        -22.0030   -4.7510  -13.4410 O.2   149  LEU149     -0.2864
     28  CB       -24.4030   -3.1450  -14.5870 C.3   149  LEU149      0.0297
     29  CG       -25.3880   -2.7930  -15.7080 C.3   149  LEU149      0.0022
     30  CD1      -25.3700   -1.2940  -15.9630 C.3   149  LEU149      0.0001
     31  CD2      -25.1000   -3.5590  -16.9940 C.3   149  LEU149      0.0001
     32  N        -19.9070   -4.5170  -18.3720 N.3   166  THR166     -0.1218
     33  CA       -20.2280   -3.1500  -18.7900 C.3   166  THR166      0.1862
     34  C        -20.7580   -2.2790  -17.6470 C.2   166  THR166      0.2287
     35  O        -21.5310   -2.7410  -16.8000 O.2   166  THR166     -0.2866
     36  CB       -21.2080   -3.1210  -19.9920 C.3   166  THR166      0.1770
     37  OG1      -21.5950   -1.7700  -20.2680 O.3   166  THR166     -0.2211
     38  CG2      -22.4540   -3.9580  -19.7230 C.3   166  THR166      0.0375
     39  N        -21.9760    0.7510  -18.6860 N.3   168  GLY168     -0.1210
     40  CA       -22.8480    1.5950  -19.4970 C.3   168  GLY168      0.1956
     41  C        -22.1180    2.6620  -20.2910 C.2   168  GLY168      0.2612
     42  O        -22.7000    3.2960  -21.1740 O.2   168  GLY168     -0.2717
     43  N        -20.8420    2.8590  -19.9680 N.am  169  HIS169     -0.1961
     44  CA       -19.9950    3.8340  -20.6540 C.3   169  HIS169      0.1787
     45  C        -18.9190    3.1220  -21.4570 C.2   169  HIS169      0.2620
     46  O        -18.5190    3.5860  -22.5260 O.2   169  HIS169     -0.2715
     47  CB       -19.3660    4.7900  -19.6430 C.3   169  HIS169      0.0785
     48  CG       -20.3690    5.5880  -18.8730 C.ar  169  HIS169      0.0821
     49  ND1      -20.6910    6.8880  -19.1990 N.ar  169  HIS169     -0.2267
     50  CD2      -21.1390    5.2640  -17.8080 C.ar  169  HIS169      0.1154
     51  CE1      -21.6090    7.3340  -18.3600 C.ar  169  HIS169      0.1986
     52  NE2      -21.8990    6.3680  -17.5070 N.ar  169  HIS169     -0.2212
     53  N        -18.4570    1.9940  -20.9250 N.am  170  ARG170     -0.1963
     54  CA       -17.5210    1.1140  -21.6200 C.3   170  ARG170      0.1729
     55  C        -17.8860   -0.3550  -21.4170 C.2   170  ARG170      0.2616
     56  O        -18.3820   -0.7430  -20.3560 O.2   170  ARG170     -0.2715
     57  CB       -16.0640    1.3930  -21.2100 C.3   170  ARG170      0.0348
     58  CG       -15.8400    1.7960  -19.7580 C.3   170  ARG170      0.0492
     59  CD       -15.6460    0.5970  -18.8430 C.3   170  ARG170      0.2205
     60  NE       -15.3960    1.0050  -17.4620 N.pl3 170  ARG170     -0.0865
     61  CZ       -14.1890    1.1460  -16.9170 C.cat 170  ARG170      0.5346
     62  NH1      -13.0910    0.9080  -17.6290 N.pl3 170  ARG170      0.1354
     63  NH2      -14.0780    1.5230  -15.6510 N.pl3 170  ARG170      0.1354
     64  N        -17.6440   -1.1600  -22.4460 N.am  171  LEU171     -0.1977
     65  CA       -17.9630   -2.5850  -22.4180 C.3   171  LEU171      0.1596
     66  C        -16.7410   -3.4160  -22.7980 C.2   171  LEU171      0.2287
     67  O        -15.8950   -2.9690  -23.5740 O.2   171  LEU171     -0.2864
     68  CB       -19.1570   -2.8830  -23.3400 C.3   171  LEU171      0.0297
     69  CG       -19.6210   -4.3260  -23.5730 C.3   171  LEU171      0.0022
     70  CD1      -21.1370   -4.4300  -23.6210 C.3   171  LEU171      0.0001
     71  CD2      -19.0090   -4.8880  -24.8440 C.3   171  LEU171      0.0001
     72  N        -31.6750   -8.9210  -16.4090 N.3   230  ARG230     -0.1245
     73  CA       -31.4610   -8.9870  -17.8590 C.3   230  ARG230      0.1563
     74  C        -30.2310   -8.1880  -18.2900 C.2   230  ARG230      0.2260
     75  O        -30.1950   -6.9600  -18.1600 O.2   230  ARG230     -0.2867
     76  CB       -32.7030   -8.5010  -18.6130 C.3   230  ARG230      0.0307
     77  CG       -32.7550   -8.9550  -20.0400 C.3   230  ARG230      0.0489
     78  CD       -33.9080   -8.2950  -20.7800 C.3   230  ARG230      0.2205
     79  NE       -33.6930   -6.8590  -20.9620 N.pl3 230  ARG230     -0.0865
     80  CZ       -32.8740   -6.3280  -21.8680 C.cat 230  ARG230      0.5346
     81  NH1      -32.2050   -7.1130  -22.7120 N.pl3 230  ARG230      0.1354
     82  NH2      -32.7430   -5.0100  -21.9420 N.pl3 230  ARG230      0.1354
     83  N        -27.4350   -6.6540  -20.9410 N.3   232  PRO232     -0.2116
     84  CA       -27.3640   -6.0990  -22.2960 C.3   232  PRO232      0.1372
     85  C        -26.5870   -6.9780  -23.2710 C.2   232  PRO232      0.2244
     86  O        -25.5500   -7.5370  -22.9120 O.2   232  PRO232     -0.2868
     87  CB       -26.6250   -4.7670  -22.0990 C.3   232  PRO232      0.0268
     88  CG       -25.9730   -4.8670  -20.7610 C.3   232  PRO232      0.0207
     89  CD       -26.9090   -5.7030  -19.9470 C.3   232  PRO232      0.0892
     90  N        -25.0470   -5.8060  -29.9010 N.3   236  ARG236     -0.1231
     91  CA       -25.6900   -4.5520  -30.2880 C.3   236  ARG236      0.1694
     92  C        -24.9670   -3.3290  -29.7130 C.2   236  ARG236      0.2591
     93  O        -25.2970   -2.1890  -30.0470 O.2   236  ARG236     -0.2718
     94  CB       -27.1720   -4.5550  -29.8890 C.3   236  ARG236      0.0321
     95  CG       -27.9720   -5.6970  -30.5030 C.3   236  ARG236      0.0489
     96  CD       -29.3900   -5.2780  -30.8550 C.3   236  ARG236      0.2205
     97  NE       -30.2360   -5.0920  -29.6770 N.pl3 236  ARG236     -0.0865
     98  CZ       -31.5060   -4.6950  -29.7160 C.cat 236  ARG236      0.5346
     99  NH1      -32.0960   -4.4330  -30.8760 N.pl3 236  ARG236      0.1354
    100  NH2      -32.1890   -4.5560  -28.5900 N.pl3 236  ARG236      0.1354
    101  N        -23.9820   -3.5780  -28.8530 N.am  237  VAL237     -0.1980
    102  CA       -23.1430   -2.5190  -28.2880 C.3   237  VAL237      0.1595
    103  C        -21.9670   -2.2220  -29.2230 C.2   237  VAL237      0.2287
    104  O        -21.5390   -1.0700  -29.3450 O.2   237  VAL237     -0.2864
    105  CB       -22.6440   -2.8800  -26.8680 C.3   237  VAL237      0.0276
    106  CG1      -21.6990   -1.8180  -26.3240 C.3   237  VAL237      0.0022
    107  CG2      -23.8230   -3.0600  -25.9220 C.3   237  VAL237      0.0022
    108  N        -19.3730    5.4640  -30.6610 N.3   336  SER336     -0.1217
    109  CA       -18.5060    4.6110  -29.8550 C.3   336  SER336      0.1889
    110  C        -17.3740    4.0170  -30.6870 C.2   336  SER336      0.2288
    111  O        -17.4700    3.9230  -31.9120 O.2   336  SER336     -0.2866
    112  CB       -19.3160    3.5000  -29.1850 C.3   336  SER336      0.2089
    113  OG       -20.1380    4.0270  -28.1600 O.3   336  SER336     -0.2183
    114  N        -15.3470   -1.6190  -26.0850 N.3   350  VAL350     -0.1245
    115  CA       -16.1320   -0.5120  -26.6270 C.3   350  VAL350      0.1561
    116  C        -16.1770    0.6300  -25.6140 C.2   350  VAL350      0.2260
    117  O        -16.5990    0.4390  -24.4730 O.2   350  VAL350     -0.2867
    118  CB       -17.5660   -0.9550  -27.0130 C.3   350  VAL350      0.0252
    119  CG1      -18.3540    0.2050  -27.6020 C.3   350  VAL350      0.0019
    120  CG2      -17.5270   -2.1090  -28.0010 C.3   350  VAL350      0.0019
    121  N        -17.4090    4.7280  -24.9970 N.3   352  MET352     -0.1245
    122  CA       -18.1650    5.9090  -25.4020 C.3   352  MET352      0.1570
    123  C        -17.2320    7.0920  -25.6500 C.2   352  MET352      0.2261
    124  O        -16.1990    7.2100  -24.9900 O.2   352  MET352     -0.2867
    125  CB       -19.1760    6.2980  -24.3190 C.3   352  MET352      0.0387
    126  CG       -20.5250    5.6080  -24.4180 C.3   352  MET352      0.0595
    127  SD       -21.6660    6.1820  -23.1420 S.3   352  MET352     -0.1393
    128  CE       -23.2130    5.5060  -23.7430 C.3   352  MET352      0.0692
@<TRIPOS>BOND
     1   111   110    2
     2    99    98    1
     3    96    95    1
     4    96    97    1
     5   110   109    1
     6   108   109    1
     7    95    94    1
     8    91    90    1
     9    91    94    1
    10    91    92    1
    11    93    92    2
    12   109   112    1
    13    98    97    2
    14    98   100    1
    15    92   101   am
    16   104   103    2
    17   103   102    1
    18   112   113    1
    19   101   102    1
    20   102   105    1
    21   120   118    1
    22   119   118    1
    23   118   115    1
    24   105   106    1
    25   105   107    1
    26   115   114    1
    27   115   116    1
    28   123   122    1
    29   123   124    2
    30   116   117    2
    31   122   121    1
    32   122   125    1
    33    71    69    1
    34   126   125    1
    35   126   127    1
    36   128   127    1
    37    70    69    1
    38    67    66    2
    39    69    68    1
    40    68    65    1
    41    85    86    2
    42    85    84    1
    43    66    65    1
    44    81    80    1
    45    46    45    2
    46    64    65    1
    47    64    55   am
    48    84    87    1
    49    84    83    1
    50    87    88    1
    51    82    80    1
    52    80    79    2
    53    54    55    1
    54    54    57    1
    55    54    53    1
    56    45    53   am
    57    45    44    1
    58    55    56    2
    59    57    58    1
    60    42    41    2
    61    79    78    1
    62    83    89    1
    63    78    77    1
    64    88    89    1
    65    44    43    1
    66    44    47    1
    67    41    43   am
    68    41    40    1
    69    37    36    1
    70    77    76    1
    71    36    38    1
    72    36    33    1
    73    58    59    1
    74    47    48    1
    75    40    39    1
    76    49    48   ar
    77    49    51   ar
    78    48    50   ar
    79    59    60    1
    80    33    32    1
    81    33    34    1
    82    76    73    1
    83    51    52   ar
    84    74    75    2
    85    74    73    1
    86    11     9    1
    87    73    72    1
    88    50    52   ar
    89    34    35    2
    90    62    61    1
    91    60    61    2
    92    31    29    1
    93    61    63    1
    94     9    10    1
    95     9     8    2
    96    23    22    1
    97    20    22   ar
    98    20    18   ar
    99     8     7    1
   100    22    21   ar
   101    30    29    1
   102    18    17   ar
   103    29    28    1
   104    21    19   ar
   105     7     6    1
   106    17    19   ar
   107    17    16    1
   108    28    25    1
   109    15    14    2
   110    25    24    1
   111    25    26    1
   112     6     5    1
   113    16    13    1
   114    14    24   am
   115    14    13    1
   116     5     2    1
   117    27    26    2
   118    13    12    1
   119     2     3    1
   120     2     1    1
   121     4     3    2
