@<TRIPOS>MOLECULE
tmp/4n9aA01.pdb
 100 95 0 0 0
SMALL
GASTEIGER

@<TRIPOS>ATOM
      1  N         12.4120  -13.7500   -2.6390 N.3   144  ARG144     -0.1245
      2  CA        13.5490  -12.9570   -3.0920 C.3   144  ARG144      0.1563
      3  C         13.9220  -12.1120   -1.8930 C.2   144  ARG144      0.2260
      4  O         13.3630  -11.0410   -1.7060 O.2   144  ARG144     -0.2867
      5  CB        13.1540  -12.0740   -4.2820 C.3   144  ARG144      0.0307
      6  CG        12.6740  -12.8430   -5.5140 C.3   144  ARG144      0.0489
      7  CD        11.9060  -11.9440   -6.4750 C.3   144  ARG144      0.2205
      8  NE        10.5720  -11.6420   -5.9680 N.pl3 144  ARG144     -0.0865
      9  CZ         9.5750  -11.1310   -6.6910 C.cat 144  ARG144      0.5346
     10  NH1        9.7430  -10.8370   -7.9790 N.pl3 144  ARG144      0.1354
     11  NH2        8.3980  -10.8980   -6.1190 N.pl3 144  ARG144      0.1354
     12  N         16.2580  -10.2410   -0.7770 N.3   146  TYR146     -0.1227
     13  CA        16.8390   -8.9060   -0.8800 C.3   146  TYR146      0.1736
     14  C         15.7520   -7.8450   -1.0470 C.2   146  TYR146      0.2595
     15  O         16.0030   -6.6770   -0.7780 O.2   146  TYR146     -0.2718
     16  CB        17.8550   -8.8440   -2.0410 C.3   146  TYR146      0.0548
     17  CG        17.3280   -9.4100   -3.3290 C.ar  146  TYR146     -0.0200
     18  CD1       16.5930   -8.6120   -4.1940 C.ar  146  TYR146     -0.0009
     19  CD2       17.5200  -10.7600   -3.6710 C.ar  146  TYR146     -0.0009
     20  CE1       16.0730   -9.1170   -5.3530 C.ar  146  TYR146      0.0417
     21  CE2       16.9950  -11.2790   -4.8450 C.ar  146  TYR146      0.0417
     22  CZ        16.2830  -10.4450   -5.6820 C.ar  146  TYR146      0.1957
     23  OH        15.7390  -10.8870   -6.8460 O.3   146  TYR146     -0.2866
     24  N         14.5570   -8.2450   -1.4870 N.am  147  LEU147     -0.1980
     25  CA        13.3900   -7.3230   -1.5280 C.3   147  LEU147      0.1596
     26  C         12.7360   -7.0860   -0.1630 C.2   147  LEU147      0.2287
     27  O         11.9310   -6.1640   -0.0160 O.2   147  LEU147     -0.2864
     28  CB        12.3120   -7.8230   -2.4970 C.3   147  LEU147      0.0297
     29  CG        12.7480   -8.0460   -3.9360 C.3   147  LEU147      0.0022
     30  CD1       11.5180   -8.3930   -4.7610 C.3   147  LEU147      0.0001
     31  CD2       13.4550   -6.8100   -4.4870 C.3   147  LEU147      0.0001
     32  N         11.0250   -2.0530   -2.9930 N.3   164  THR164     -0.1218
     33  CA        10.0720   -2.6150   -3.9060 C.3   164  THR164      0.1862
     34  C          9.7550   -4.0460   -3.5480 C.2   164  THR164      0.2287
     35  O         10.5990   -4.7610   -3.0120 O.2   164  THR164     -0.2866
     36  CB        10.5470   -2.4890   -5.3680 C.3   164  THR164      0.1770
     37  OG1        9.4990   -2.8970   -6.2710 O.3   164  THR164     -0.2211
     38  CG2       11.8060   -3.3020   -5.6160 C.3   164  THR164      0.0375
     39  N          8.1360   -5.9640   -6.0810 N.3   166  GLY166     -0.1210
     40  CA         7.8100   -6.5580   -7.3740 C.3   166  GLY166      0.1956
     41  C          6.5860   -5.9560   -8.0460 C.2   166  GLY166      0.2612
     42  O          6.4720   -6.0250   -9.2630 O.2   166  GLY166     -0.2717
     43  N          5.6870   -5.3650   -7.2540 N.am  167  HIS167     -0.1961
     44  CA         4.3950   -4.8630   -7.7160 C.3   167  HIS167      0.1787
     45  C          4.3290   -3.3330   -7.7040 C.2   167  HIS167      0.2620
     46  O          3.6440   -2.7230   -8.5300 O.2   167  HIS167     -0.2715
     47  CB         3.2920   -5.4050   -6.8110 C.3   167  HIS167      0.0785
     48  CG         3.2750   -6.8970   -6.7140 C.ar  167  HIS167      0.0821
     49  ND1        3.0570   -7.7100   -7.8070 N.ar  167  HIS167     -0.2267
     50  CD2        3.4430   -7.7240   -5.6580 C.ar  167  HIS167      0.1154
     51  CE1        3.0970   -8.9730   -7.4300 C.ar  167  HIS167      0.1986
     52  NE2        3.3320   -9.0100   -6.1300 N.ar  167  HIS167     -0.2212
     53  N          5.0210   -2.7310   -6.7420 N.am  168  ARG168     -0.1963
     54  CA         5.1830   -1.2920   -6.6680 C.3   168  ARG168      0.1729
     55  C          6.5630   -0.9650   -6.1300 C.2   168  ARG168      0.2616
     56  O          7.1970   -1.7930   -5.4860 O.2   168  ARG168     -0.2715
     57  CB         4.1130   -0.6500   -5.7850 C.3   168  ARG168      0.0348
     58  CG         3.7370   -1.4320   -4.5400 C.3   168  ARG168      0.0492
     59  CD         4.7110   -1.2430   -3.3760 C.3   168  ARG168      0.2205
     60  NE         4.2700   -2.0020   -2.2160 N.pl3 168  ARG168     -0.0865
     61  CZ         3.3200   -1.6250   -1.3540 C.cat 168  ARG168      0.5346
     62  NH1        2.6710   -0.4650   -1.4770 N.pl3 168  ARG168      0.1354
     63  NH2        3.0280   -2.4100   -0.3430 N.pl3 168  ARG168      0.1354
     64  N          6.9980    0.2610   -6.3790 N.am  169  LEU169     -0.1977
     65  CA         8.3340    0.6850   -6.0340 C.3   169  LEU169      0.1596
     66  C          8.3400    2.1030   -5.4980 C.2   169  LEU169      0.2287
     67  O          7.5770    2.9480   -5.9460 O.2   169  LEU169     -0.2864
     68  CB         9.2430    0.5630   -7.2620 C.3   169  LEU169      0.0297
     69  CG        10.6830    1.1020   -7.1880 C.3   169  LEU169      0.0022
     70  CD1       11.6140    0.2360   -8.0130 C.3   169  LEU169      0.0001
     71  CD2       10.7930    2.5500   -7.6740 C.3   169  LEU169      0.0001
     72  N         16.8840   -4.9040   -7.8300 N.3   234  PRO234     -0.2116
     73  CA        16.5310   -4.3750   -9.1480 C.3   234  PRO234      0.1372
     74  C         16.9410   -2.9230   -9.3360 C.2   234  PRO234      0.2244
     75  O         17.2170   -2.2180   -8.3610 O.2   234  PRO234     -0.2868
     76  CB        15.0010   -4.5020   -9.1790 C.3   234  PRO234      0.0268
     77  CG        14.5900   -4.5710   -7.7520 C.3   234  PRO234      0.0207
     78  CD        15.6910   -5.3230   -7.0750 C.3   234  PRO234      0.0892
     79  N         12.5680    0.4950  -13.8640 N.3   239  VAL239     -0.1245
     80  CA        11.1980    0.4290  -13.4190 C.3   239  VAL239      0.1561
     81  C         10.4930    1.7490  -13.7100 C.2   239  VAL239      0.2260
     82  O          9.3220    1.7530  -14.0550 O.2   239  VAL239     -0.2867
     83  CB        11.1230    0.0840  -11.9180 C.3   239  VAL239      0.0252
     84  CG1        9.6920    0.2050  -11.4110 C.3   239  VAL239      0.0019
     85  CG2       11.6750   -1.3220  -11.6680 C.3   239  VAL239      0.0019
     86  N          6.2960    4.0220   -8.2660 N.3   352  VAL352     -0.1245
     87  CA         5.8400    3.3350   -9.4670 C.3   352  VAL352      0.1561
     88  C          4.8990    2.1860   -9.0730 C.2   352  VAL352      0.2260
     89  O          5.2110    1.3800   -8.1870 O.2   352  VAL352     -0.2867
     90  CB         7.0280    2.8270  -10.3250 C.3   352  VAL352      0.0252
     91  CG1        6.5280    2.1690  -11.6140 C.3   352  VAL352      0.0019
     92  CG2        7.9620    3.9660  -10.6750 C.3   352  VAL352      0.0019
     93  N          2.4430   -0.9030  -10.7420 N.3   354  MET354     -0.1245
     94  CA         2.0910   -1.6720  -11.9240 C.3   354  MET354      0.1570
     95  C          0.5690   -1.7060  -12.1140 C.2   354  MET354      0.2261
     96  O         -0.1920   -1.7380  -11.1460 O.2   354  MET354     -0.2867
     97  CB         2.6450   -3.1150  -11.8480 C.3   354  MET354      0.0387
     98  CG         4.1600   -3.2620  -11.9710 C.3   354  MET354      0.0595
     99  SD         4.9030   -2.7290  -13.5420 S.3   354  MET354     -0.1393
    100  CE         4.2450   -3.9010  -14.7340 C.3   354  MET354      0.0692
@<TRIPOS>BOND
     1   100    99    1
     2    82    81    2
     3    79    80    1
     4    81    80    1
     5    99    98    1
     6    80    83    1
     7    95    94    1
     8    95    96    2
     9    98    97    1
    10    94    97    1
    11    94    93    1
    12    83    85    1
    13    83    84    1
    14    91    90    1
    15    92    90    1
    16    90    87    1
    17    87    88    1
    18    87    86    1
    19    74    73    1
    20    74    75    2
    21    42    41    2
    22    76    73    1
    23    76    77    1
    24    73    72    1
    25    88    89    2
    26    46    45    2
    27    41    40    1
    28    41    43   am
    29    70    69    1
    30    10     9    1
    31    72    78    1
    32    49    51   ar
    33    49    48   ar
    34    77    78    1
    35    44    45    1
    36    44    43    1
    37    44    47    1
    38    45    53   am
    39    71    69    1
    40    51    52   ar
    41    40    39    1
    42    68    69    1
    43    68    65    1
    44    23    22    1
    45    47    48    1
    46    53    54    1
    47    48    50   ar
    48     9    11    1
    49     9     8    2
    50    54    55    1
    51    54    57    1
    52     7     8    1
    53     7     6    1
    54    64    55   am
    55    64    65    1
    56    37    36    1
    57    52    50   ar
    58    55    56    2
    59    65    66    1
    60    67    66    2
    61    57    58    1
    62    22    20   ar
    63    22    21   ar
    64    38    36    1
    65     6     5    1
    66    36    33    1
    67    20    18   ar
    68    21    19   ar
    69    30    29    1
    70    58    59    1
    71    31    29    1
    72     5     2    1
    73    18    17   ar
    74    29    28    1
    75    33    34    1
    76    33    32    1
    77    19    17   ar
    78    34    35    2
    79    59    60    1
    80    17    16    1
    81     2     1    1
    82     2     3    1
    83    28    25    1
    84    60    61    2
    85    16    13    1
    86     3     4    2
    87    25    24    1
    88    25    26    1
    89    24    14   am
    90    62    61    1
    91    61    63    1
    92    14    13    1
    93    14    15    2
    94    13    12    1
    95    26    27    2
