@<TRIPOS>MOLECULE
tmp/4n9bB00.pdb
 117 110 0 0 0
SMALL
GASTEIGER

@<TRIPOS>ATOM
      1  N         13.4780   -6.6490   37.8900 N.3   174  HIS174     -0.1241
      2  CA        12.2390   -6.0380   37.4260 C.3   174  HIS174      0.1621
      3  C         12.2940   -5.7410   35.9290 C.2   174  HIS174      0.2264
      4  O         13.3490   -5.4040   35.3920 O.2   174  HIS174     -0.2867
      5  CB        11.9600   -4.7530   38.2060 C.3   174  HIS174      0.0745
      6  CG        10.5060   -4.4180   38.3190 C.ar  174  HIS174      0.0817
      7  ND1        9.7370   -4.8010   39.3970 N.ar  174  HIS174     -0.2268
      8  CD2        9.6800   -3.7370   37.4900 C.ar  174  HIS174      0.1154
      9  CE1        8.5000   -4.3680   39.2290 C.ar  174  HIS174      0.1986
     10  NE2        8.4390   -3.7180   38.0800 N.ar  174  HIS174     -0.2212
     11  N         11.6790   -3.5370   32.7990 N.3   176  PHE176     -0.1241
     12  CA        11.5070   -2.1410   32.4000 C.3   176  PHE176      0.1605
     13  C         11.4000   -2.0080   30.8830 C.2   176  PHE176      0.2264
     14  O         11.3960   -0.8980   30.3500 O.2   176  PHE176     -0.2867
     15  CB        12.6890   -1.2890   32.8760 C.3   176  PHE176      0.0534
     16  CG        12.7620   -1.1040   34.3690 C.ar  176  PHE176     -0.0203
     17  CD1       13.8480   -0.4570   34.9390 C.ar  176  PHE176     -0.0042
     18  CD2       11.7570   -1.5690   35.2010 C.ar  176  PHE176     -0.0042
     19  CE1       13.9300   -0.2770   36.3050 C.ar  176  PHE176     -0.0003
     20  CE2       11.8350   -1.3940   36.5700 C.ar  176  PHE176     -0.0003
     21  CZ        12.9240   -0.7480   37.1220 C.ar  176  PHE176     -0.0000
     22  N          9.1980   -2.3030   28.4610 N.3   178  TYR178     -0.1227
     23  CA         7.9790   -2.0370   27.7040 C.3   178  TYR178      0.1736
     24  C          8.2660   -1.0440   26.5760 C.2   178  TYR178      0.2595
     25  O          7.8540   -1.2490   25.4350 O.2   178  TYR178     -0.2718
     26  CB         6.8750   -1.5050   28.6250 C.3   178  TYR178      0.0548
     27  CG         5.4620   -1.6700   28.0920 C.ar  178  TYR178     -0.0200
     28  CD1        5.2250   -1.9650   26.7560 C.ar  178  TYR178     -0.0009
     29  CD2        4.3660   -1.5300   28.9320 C.ar  178  TYR178     -0.0009
     30  CE1        3.9400   -2.1140   26.2720 C.ar  178  TYR178      0.0417
     31  CE2        3.0760   -1.6780   28.4570 C.ar  178  TYR178      0.0417
     32  CZ         2.8700   -1.9700   27.1260 C.ar  178  TYR178      0.1957
     33  OH         1.5910   -2.1200   26.6450 O.3   178  TYR178     -0.2866
     34  N          8.9830    0.0270   26.8980 N.am  179  ARG179     -0.1980
     35  CA         9.3040    1.0480   25.9090 C.3   179  ARG179      0.1597
     36  C         10.4650    0.6070   25.0240 C.2   179  ARG179      0.2287
     37  O         10.7030    1.1860   23.9640 O.2   179  ARG179     -0.2864
     38  CB         9.6580    2.3630   26.6010 C.3   179  ARG179      0.0334
     39  CG        11.0520    2.3810   27.2040 C.3   179  ARG179      0.0492
     40  CD        11.2790    3.6210   28.0480 C.3   179  ARG179      0.2205
     41  NE        10.3310    3.7030   29.1550 N.pl3 179  ARG179     -0.0865
     42  CZ        10.4140    4.5860   30.1440 C.cat 179  ARG179      0.5346
     43  NH1       11.4080    5.4630   30.1700 N.pl3 179  ARG179      0.1354
     44  NH2        9.5050    4.5880   31.1110 N.pl3 179  ARG179      0.1354
     45  N          6.9000   -4.2320   34.9360 N.3   202  ASP202     -0.1239
     46  CA         6.2330   -2.9610   34.6830 C.3   202  ASP202      0.1674
     47  C          5.5390   -2.9920   33.3280 C.2   202  ASP202      0.2266
     48  O          4.6790   -2.1590   33.0360 O.2   202  ASP202     -0.2867
     49  CB         7.2210   -1.7960   34.7540 C.3   202  ASP202      0.1410
     50  CG         7.1310   -1.0360   36.0640 C.2   202  ASP202      0.3668
     51  OD1        6.7500   -1.6520   37.0830 O.co2 202  ASP202     -0.2456
     52  OD2        7.4340    0.1760   36.0750 O.co2 202  ASP202     -0.2456
     53  N          3.9140   -4.6070   41.0510 N.3   224  SER224     -0.1202
     54  CA         4.7690   -3.4280   40.9900 C.3   224  SER224      0.2020
     55  C          4.4840   -2.4870   42.1570 C.2   224  SER224      0.2618
     56  O          3.5160   -2.6700   42.8960 O.2   224  SER224     -0.2717
     57  CB         4.5870   -2.6930   39.6610 C.3   224  SER224      0.2103
     58  OG         5.5080   -1.6210   39.5410 O.3   224  SER224     -0.2182
     59  N          5.3370   -1.4800   42.3160 N.am  225  VAL225     -0.1979
     60  CA         5.2060   -0.5190   43.4050 C.3   225  VAL225      0.1595
     61  C          5.2070    0.9050   42.8550 C.2   225  VAL225      0.2287
     62  O          5.6950    1.1410   41.7490 O.2   225  VAL225     -0.2864
     63  CB         6.3550   -0.6750   44.4280 C.3   225  VAL225      0.0276
     64  CG1        6.2860   -2.0380   45.1030 C.3   225  VAL225      0.0022
     65  CG2        7.7040   -0.4720   43.7530 C.3   225  VAL225      0.0022
     66  N          6.4540    4.2290   41.8430 N.3   227  ALA227     -0.1231
     67  CA         7.8000    4.7110   41.5640 C.3   227  ALA227      0.1694
     68  C          7.7700    6.0640   40.8640 C.2   227  ALA227      0.2592
     69  O          6.7200    6.5130   40.4030 O.2   227  ALA227     -0.2718
     70  CB         8.5710    3.6970   40.7340 C.3   227  ALA227      0.0304
     71  N          8.9290    6.7070   40.7880 N.am  228  ALA228     -0.1966
     72  CA         9.0350    8.0210   40.1690 C.3   228  ALA228      0.1728
     73  C          9.8800    7.9780   38.9020 C.2   228  ALA228      0.2616
     74  O         10.7720    7.1400   38.7670 O.2   228  ALA228     -0.2715
     75  CB         9.6140    9.0250   41.1560 C.3   228  ALA228      0.0334
     76  N          9.5850    8.8810   37.9730 N.am  229  GLU229     -0.1977
     77  CA        10.4120    9.0580   36.7880 C.3   229  GLU229      0.1602
     78  C         11.0660   10.4310   36.8490 C.2   229  GLU229      0.2287
     79  O         10.8350   11.1900   37.7890 O.2   229  GLU229     -0.2864
     80  CB         9.5840    8.9110   35.5090 C.3   229  GLU229      0.0415
     81  CG         8.6450   10.0700   35.2270 C.3   229  GLU229      0.1163
     82  CD         7.8590    9.8780   33.9440 C.2   229  GLU229      0.3649
     83  OE1        7.2420   10.8530   33.4670 O.co2 229  GLU229     -0.2457
     84  OE2        7.8570    8.7480   33.4120 O.co2 229  GLU229     -0.2457
     85  N          9.7080    3.8090   45.0550 N.3   258  SER258     -0.1217
     86  CA        11.0060    3.9750   44.4180 C.3   258  SER258      0.1889
     87  C         11.1570    5.3830   43.8590 C.2   258  SER258      0.2288
     88  O         10.3060    5.8560   43.1090 O.2   258  SER258     -0.2866
     89  CB        11.1990    2.9440   43.3080 C.3   258  SER258      0.2089
     90  OG        12.4010    3.1810   42.5950 O.3   258  SER258     -0.2183
     91  N         12.9940    3.0850   48.2700 N.3   292  ILE292     -0.1245
     92  CA        13.9240    2.4510   47.3470 C.3   292  ILE292      0.1561
     93  C         14.5810    3.4890   46.4420 C.2   292  ILE292      0.2260
     94  O         13.9510    4.0220   45.5310 O.2   292  ILE292     -0.2867
     95  CB        13.2280    1.3780   46.4890 C.3   292  ILE292      0.0252
     96  CG1       12.2960    0.5260   47.3530 C.3   292  ILE292      0.0019
     97  CG2       14.2570    0.5060   45.7920 C.3   292  ILE292      0.0019
     98  CD1       11.5240   -0.5190   46.5750 C.3   292  ILE292      0.0001
     99  N         16.7500    4.9140   43.4980 N.3   294  ARG294     -0.1245
    100  CA        17.0290    4.4200   42.1540 C.3   294  ARG294      0.1563
    101  C         18.0070    5.3050   41.3850 C.2   294  ARG294      0.2260
    102  O         17.6270    6.3620   40.8830 O.2   294  ARG294     -0.2867
    103  CB        15.7280    4.2720   41.3590 C.3   294  ARG294      0.0307
    104  CG        15.8960    3.5760   40.0160 C.3   294  ARG294      0.0489
    105  CD        14.5510    3.2970   39.3580 C.3   294  ARG294      0.2205
    106  NE        13.9380    4.5060   38.8160 N.pl3 294  ARG294     -0.0865
    107  CZ        14.0780    4.9150   37.5580 C.cat 294  ARG294      0.5346
    108  NH1       13.4860    6.0280   37.1500 N.pl3 294  ARG294      0.1354
    109  NH2       14.8120    4.2100   36.7080 N.pl3 294  ARG294      0.1354
    110  N         17.6650    0.1960   44.0200 N.3   334  ILE334     -0.1245
    111  CA        17.3880   -0.4990   42.7670 C.3   334  ILE334      0.1561
    112  C         18.1410    0.1060   41.5790 C.2   334  ILE334      0.2260
    113  O         18.0010    1.2890   41.2660 O.2   334  ILE334     -0.2867
    114  CB        15.8640   -0.6240   42.4750 C.3   334  ILE334      0.0252
    115  CG1       15.6310   -1.4790   41.2280 C.3   334  ILE334      0.0019
    116  CG2       15.2020    0.7460   42.3380 C.3   334  ILE334      0.0019
    117  CD1       14.1940   -1.8920   41.0310 C.3   334  ILE334      0.0001
@<TRIPOS>BOND
     1    37    36    2
     2    36    35    1
     3    25    24    2
     4    35    38    1
     5    35    34    1
     6    30    28   ar
     7    30    32   ar
     8    24    34   am
     9    24    23    1
    10    38    39    1
    11    33    32    1
    12    28    27   ar
    13    32    31   ar
    14    39    40    1
    15    23    22    1
    16    23    26    1
    17    40    41    1
    18    27    26    1
    19    27    29   ar
    20    31    29   ar
    21    41    42    2
    22    42    43    1
    23    42    44    1
    24    14    13    2
    25    13    12    1
    26    12    11    1
    27    12    15    1
    28    15    16    1
    29    48    47    2
    30    47    46    1
    31    84    82   ar
    32    83    82   ar
    33    82    81    1
    34    16    17   ar
    35    16    18   ar
    36    46    49    1
    37    46    45    1
    38    49    50    1
    39    17    19   ar
    40    18    20   ar
    41    81    80    1
    42     4     3    2
    43    80    77    1
    44     3     2    1
    45    50    52   ar
    46    50    51   ar
    47    19    21   ar
    48    20    21   ar
    49   109   107    1
    50    77    78    1
    51    77    76    1
    52    78    79    2
    53   108   107    1
    54     2     1    1
    55     2     5    1
    56     8    10   ar
    57     8     6   ar
    58   107   106    2
    59    76    73   am
    60    10     9   ar
    61     5     6    1
    62     6     7   ar
    63    74    73    2
    64   106   105    1
    65    73    72    1
    66     9     7   ar
    67   105   104    1
    68    58    57    1
    69    57    54    1
    70   104   103    1
    71    72    71    1
    72    72    75    1
    73    69    68    2
    74    70    67    1
    75    71    68   am
    76    68    67    1
    77   102   101    2
    78    54    53    1
    79    54    55    1
    80   117   115    1
    81   115   114    1
    82   113   112    2
    83   103   100    1
    84   101   100    1
    85    67    66    1
    86   112   111    1
    87    62    61    2
    88   100    99    1
    89    55    59   am
    90    55    56    2
    91    59    60    1
    92   116   114    1
    93   114   111    1
    94    90    89    1
    95   111   110    1
    96    61    60    1
    97    88    87    2
    98    89    86    1
    99    60    63    1
   100    65    63    1
   101    87    86    1
   102    86    85    1
   103    63    64    1
   104    94    93    2
   105    97    95    1
   106    93    92    1
   107    95    92    1
   108    95    96    1
   109    98    96    1
   110    92    91    1
