@<TRIPOS>MOLECULE
tmp/4n9cA00.pdb
 102 94 0 0 0
SMALL
GASTEIGER

@<TRIPOS>ATOM
      1  N         11.6030   -4.0000   43.1420 N.3   171  TYR171     -0.1241
      2  CA        11.4080   -2.5720   42.8700 C.3   171  TYR171      0.1605
      3  C         12.7260   -1.8510   42.5520 C.2   171  TYR171      0.2264
      4  O         12.7670   -0.6250   42.4780 O.2   171  TYR171     -0.2867
      5  CB        10.6550   -1.8740   44.0340 C.3   171  TYR171      0.0534
      6  CG         9.2100   -2.3220   44.1390 C.ar  171  TYR171     -0.0201
      7  CD1        8.2370   -1.7940   43.2960 C.ar  171  TYR171     -0.0009
      8  CD2        8.8260   -3.2960   45.0550 C.ar  171  TYR171     -0.0009
      9  CE1        6.9230   -2.2180   43.3610 C.ar  171  TYR171      0.0417
     10  CE2        7.5080   -3.7290   45.1290 C.ar  171  TYR171      0.0417
     11  CZ         6.5610   -3.1820   44.2840 C.ar  171  TYR171      0.1957
     12  OH         5.2500   -3.6060   44.3440 O.3   171  TYR171     -0.2866
     13  N         13.3080    0.4000   37.7810 N.3   174  HIS174     -0.1241
     14  CA        12.0730    1.0060   37.3160 C.3   174  HIS174      0.1621
     15  C         12.1650    1.3160   35.8180 C.2   174  HIS174      0.2264
     16  O         13.2010    1.7540   35.3240 O.2   174  HIS174     -0.2867
     17  CB        11.8030    2.3030   38.0860 C.3   174  HIS174      0.0745
     18  CG        10.3590    2.6980   38.1250 C.ar  174  HIS174      0.0817
     19  ND1        9.5180    2.3240   39.1520 N.ar  174  HIS174     -0.2268
     20  CD2        9.6110    3.4420   37.2750 C.ar  174  HIS174      0.1154
     21  CE1        8.3140    2.8170   38.9300 C.ar  174  HIS174      0.1986
     22  NE2        8.3420    3.5030   37.7990 N.ar  174  HIS174     -0.2212
     23  N         11.5780    3.5370   32.8950 N.3   176  PHE176     -0.1241
     24  CA        11.4200    4.9410   32.5170 C.3   176  PHE176      0.1605
     25  C         11.4160    5.0940   30.9920 C.2   176  PHE176      0.2264
     26  O         11.7340    6.1690   30.4780 O.2   176  PHE176     -0.2867
     27  CB        12.6180    5.7650   33.0190 C.3   176  PHE176      0.0534
     28  CG        12.6510    6.0000   34.5130 C.ar  176  PHE176     -0.0203
     29  CD1       11.5440    5.7770   35.3080 C.ar  176  PHE176     -0.0042
     30  CD2       13.8140    6.4700   35.1110 C.ar  176  PHE176     -0.0042
     31  CE1       11.6040    6.0120   36.6860 C.ar  176  PHE176     -0.0003
     32  CE2       13.8750    6.7080   36.4720 C.ar  176  PHE176     -0.0003
     33  CZ        12.7740    6.4690   37.2580 C.ar  176  PHE176     -0.0000
     34  N          6.8360    3.1830   34.8850 N.3   202  ASP202     -0.1239
     35  CA         6.1310    4.4020   34.5120 C.3   202  ASP202      0.1674
     36  C          5.5140    4.2570   33.1290 C.2   202  ASP202      0.2266
     37  O          4.8340    5.1680   32.6380 O.2   202  ASP202     -0.2867
     38  CB         7.0700    5.6220   34.5420 C.3   202  ASP202      0.1410
     39  CG         6.9910    6.3880   35.8460 C.2   202  ASP202      0.3668
     40  OD1        6.8860    5.7530   36.9250 O.co2 202  ASP202     -0.2456
     41  OD2        7.0380    7.6340   35.7980 O.co2 202  ASP202     -0.2456
     42  N          3.7570    2.6210   40.5180 N.3   224  SER224     -0.1202
     43  CA         4.6380    3.7810   40.5510 C.3   224  SER224      0.2020
     44  C          4.3710    4.6550   41.7800 C.2   224  SER224      0.2618
     45  O          3.4590    4.3810   42.5690 O.2   224  SER224     -0.2717
     46  CB         4.4990    4.6100   39.2700 C.3   224  SER224      0.2103
     47  OG         5.5740    5.5250   39.1500 O.3   224  SER224     -0.2182
     48  N          5.1770    5.7020   41.9300 N.am  225  VAL225     -0.1979
     49  CA         5.0140    6.6690   43.0120 C.3   225  VAL225      0.1595
     50  C          5.0550    8.0820   42.4410 C.2   225  VAL225      0.2287
     51  O          5.5730    8.2970   41.3400 O.2   225  VAL225     -0.2864
     52  CB         6.1250    6.5420   44.0880 C.3   225  VAL225      0.0276
     53  CG1        6.0840    5.1690   44.7700 C.3   225  VAL225      0.0022
     54  CG2        7.4900    6.8450   43.4910 C.3   225  VAL225      0.0022
     55  N          6.3950   11.6300   41.5330 N.3   227  ALA227     -0.1231
     56  CA         7.7580   12.0210   41.2540 C.3   227  ALA227      0.1694
     57  C          7.7530   13.3010   40.4460 C.2   227  ALA227      0.2591
     58  O          6.8160   13.5620   39.6770 O.2   227  ALA227     -0.2718
     59  CB         8.4880   10.9140   40.4910 C.3   227  ALA227      0.0304
     60  N          8.8090   14.0900   40.6230 N.am  228  ALA228     -0.1980
     61  CA         8.9840   15.3390   39.8920 C.3   228  ALA228      0.1597
     62  C          9.7270   15.1170   38.5750 C.2   228  ALA228      0.2287
     63  O         10.4410   14.1340   38.4150 O.2   228  ALA228     -0.2864
     64  CB         9.7360   16.3350   40.7500 C.3   228  ALA228      0.0319
     65  N          9.7120   10.8790   44.6520 N.3   258  SER258     -0.1217
     66  CA        11.0120   11.0640   44.0330 C.3   258  SER258      0.1889
     67  C         11.1180   12.5000   43.5280 C.2   258  SER258      0.2288
     68  O         10.1910   13.0170   42.9130 O.2   258  SER258     -0.2866
     69  CB        11.1820   10.0760   42.8770 C.3   258  SER258      0.2089
     70  OG        12.2860   10.4240   42.0610 O.3   258  SER258     -0.2183
     71  N         12.9020   10.2550   47.8900 N.3   292  ILE292     -0.1245
     72  CA        13.8620    9.5920   47.0340 C.3   292  ILE292      0.1561
     73  C         14.5250   10.6770   46.2070 C.2   292  ILE292      0.2260
     74  O         13.8750   11.3230   45.3910 O.2   292  ILE292     -0.2867
     75  CB        13.1680    8.5550   46.1540 C.3   292  ILE292      0.0252
     76  CG1       12.3690    7.5870   47.0390 C.3   292  ILE292      0.0019
     77  CG2       14.1890    7.8130   45.2770 C.3   292  ILE292      0.0019
     78  CD1       11.2480    6.8610   46.3190 C.3   292  ILE292      0.0001
     79  N         16.7580   12.1490   43.3260 N.3   294  ARG294     -0.1245
     80  CA        17.1150   11.6780   41.9970 C.3   294  ARG294      0.1563
     81  C         18.1010   12.6110   41.3030 C.2   294  ARG294      0.2260
     82  O         17.7180   13.6620   40.7920 O.2   294  ARG294     -0.2867
     83  CB        15.8630   11.4940   41.1350 C.3   294  ARG294      0.0307
     84  CG        16.1820   10.9730   39.7250 C.3   294  ARG294      0.0489
     85  CD        14.9430   10.6720   38.8960 C.3   294  ARG294      0.2205
     86  NE        15.3330   10.3110   37.5300 N.pl3 294  ARG294     -0.0865
     87  CZ        14.4840    9.9870   36.5570 C.cat 294  ARG294      0.5346
     88  NH1       14.9440    9.6800   35.3440 N.pl3 294  ARG294      0.1354
     89  NH2       13.1760    9.9730   36.7880 N.pl3 294  ARG294      0.1354
     90  N         17.6380    7.3890   43.7790 N.3   334  ILE334     -0.1245
     91  CA        17.4220    6.6370   42.5430 C.3   334  ILE334      0.1561
     92  C         18.2630    7.2470   41.4290 C.2   334  ILE334      0.2260
     93  O         18.3050    8.4720   41.2600 O.2   334  ILE334     -0.2867
     94  CB        15.9150    6.5550   42.1370 C.3   334  ILE334      0.0252
     95  CG1       15.7470    5.6420   40.9170 C.3   334  ILE334      0.0019
     96  CG2       15.3300    7.9430   41.8930 C.3   334  ILE334      0.0019
     97  CD1       14.3100    5.4130   40.5090 C.3   334  ILE334      0.0001
     98  N         18.1410    2.6900   44.1460 N.3   362  ALA362     -0.1245
     99  CA        17.2970    2.0260   43.1800 C.3   362  ALA362      0.1562
    100  C         17.6860    2.5950   41.8250 C.2   362  ALA362      0.2260
    101  O         18.3580    3.6280   41.7360 O.2   362  ALA362     -0.2867
    102  CB        15.8200    2.2900   43.4680 C.3   362  ALA362      0.0290
@<TRIPOS>BOND
     1    26    25    2
     2    25    24    1
     3    24    23    1
     4    24    27    1
     5    37    36    2
     6    27    28    1
     7    36    35    1
     8    35    38    1
     9    35    34    1
    10    28    30   ar
    11    28    29   ar
    12    38    39    1
    13    30    32   ar
    14    29    31   ar
    15    16    15    2
    16    88    87    1
    17    41    39   ar
    18    15    14    1
    19    39    40   ar
    20    32    33   ar
    21    87    89    1
    22    87    86    2
    23    31    33   ar
    24    20    22   ar
    25    20    18   ar
    26    14    13    1
    27    14    17    1
    28    86    85    1
    29    22    21   ar
    30    17    18    1
    31    18    19   ar
    32    63    62    2
    33    62    61    1
    34    85    84    1
    35    21    19   ar
    36    47    46    1
    37    46    43    1
    38    58    57    2
    39    84    83    1
    40    61    60    1
    41    61    64    1
    42    57    60   am
    43    57    56    1
    44    59    56    1
    45    97    95    1
    46    42    43    1
    47    43    44    1
    48    82    81    2
    49    95    94    1
    50    83    80    1
    51    56    55    1
    52    93    92    2
    53    81    80    1
    54    51    50    2
    55    92    91    1
    56   101   100    2
    57    44    48   am
    58    44    45    2
    59   100    99    1
    60    96    94    1
    61    48    49    1
    62    80    79    1
    63    70    69    1
    64    94    91    1
    65    50    49    1
    66     4     3    2
    67    91    90    1
    68     3     2    1
    69     2     1    1
    70     2     5    1
    71    69    66    1
    72    68    67    2
    73    49    52    1
    74    99   102    1
    75    99    98    1
    76     7     9   ar
    77     7     6   ar
    78     9    11   ar
    79    54    52    1
    80    67    66    1
    81    66    65    1
    82     5     6    1
    83    52    53    1
    84     6     8   ar
    85    11    12    1
    86    11    10   ar
    87     8    10   ar
    88    77    75    1
    89    74    73    2
    90    75    72    1
    91    75    76    1
    92    73    72    1
    93    78    76    1
    94    72    71    1
