@<TRIPOS>MOLECULE
tmp/4n9dB01.pdb
 160 153 0 0 0
SMALL
GASTEIGER

@<TRIPOS>ATOM
      1  N          8.1420    3.6690   46.4640 N.3   171  TYR171     -0.1241
      2  CA         8.3500    2.2430   46.2210 C.3   171  TYR171      0.1605
      3  C          7.1150    1.5560   45.6450 C.2   171  TYR171      0.2264
      4  O          7.0160    0.3240   45.6800 O.2   171  TYR171     -0.2867
      5  CB         8.8180    1.5370   47.5030 C.3   171  TYR171      0.0534
      6  CG        10.2050    1.9750   47.9170 C.ar  171  TYR171     -0.0201
      7  CD1       11.3300    1.5020   47.2450 C.ar  171  TYR171     -0.0009
      8  CD2       10.3840    2.8840   48.9520 C.ar  171  TYR171     -0.0009
      9  CE1       12.6020    1.9140   47.6080 C.ar  171  TYR171      0.0417
     10  CE2       11.6530    3.3040   49.3200 C.ar  171  TYR171      0.0417
     11  CZ        12.7510    2.8170   48.6450 C.ar  171  TYR171      0.1957
     12  OH        14.0110    3.2360   49.0080 O.3   171  TYR171     -0.2866
     13  N          7.5920   -0.7570   40.7980 N.3   174  HIS174     -0.1241
     14  CA         8.9040   -1.3890   40.7300 C.3   174  HIS174      0.1621
     15  C          9.2380   -1.7520   39.2830 C.2   174  HIS174      0.2264
     16  O          8.3990   -2.3210   38.5900 O.2   174  HIS174     -0.2867
     17  CB         8.8940   -2.6590   41.6020 C.3   174  HIS174      0.0745
     18  CG        10.2570   -3.1070   42.0310 C.ar  174  HIS174      0.0817
     19  ND1       10.7680   -2.8420   43.2850 N.ar  174  HIS174     -0.2268
     20  CD2       11.2310   -3.7730   41.3620 C.ar  174  HIS174      0.1154
     21  CE1       11.9840   -3.3420   43.3760 C.ar  174  HIS174      0.1986
     22  NE2       12.2950   -3.9080   42.2190 N.ar  174  HIS174     -0.2212
     23  N         10.4400   -3.9140   36.4930 N.3   176  PHE176     -0.1241
     24  CA        10.6150   -5.3340   36.1860 C.3   176  PHE176      0.1605
     25  C         11.0610   -5.5140   34.7230 C.2   176  PHE176      0.2264
     26  O         10.9990   -6.6280   34.1910 O.2   176  PHE176     -0.2867
     27  CB         9.2730   -6.0760   36.2990 C.3   176  PHE176      0.0534
     28  CG         8.8330   -6.4440   37.7050 C.ar  176  PHE176     -0.0203
     29  CD1        9.4530   -5.9460   38.8440 C.ar  176  PHE176     -0.0042
     30  CD2        7.7520   -7.3180   37.8580 C.ar  176  PHE176     -0.0042
     31  CE1        8.9950   -6.2990   40.1190 C.ar  176  PHE176     -0.0003
     32  CE2        7.3000   -7.6870   39.1200 C.ar  176  PHE176     -0.0003
     33  CZ         7.9170   -7.1800   40.2510 C.ar  176  PHE176     -0.0000
     34  N         13.8710   -5.3550   32.7000 N.3   178  TYR178     -0.1227
     35  CA        15.1870   -5.6380   32.1290 C.3   178  TYR178      0.1736
     36  C         15.0930   -6.6220   30.9410 C.2   178  TYR178      0.2595
     37  O         15.6820   -6.3750   29.8880 O.2   178  TYR178     -0.2718
     38  CB        16.1160   -6.1430   33.2410 C.3   178  TYR178      0.0548
     39  CG        17.6130   -5.9690   33.0350 C.ar  178  TYR178     -0.0200
     40  CD1       18.4860   -6.1470   34.1070 C.ar  178  TYR178     -0.0009
     41  CD2       18.1580   -5.6590   31.7930 C.ar  178  TYR178     -0.0009
     42  CE1       19.8600   -6.0140   33.9500 C.ar  178  TYR178      0.0417
     43  CE2       19.5510   -5.5200   31.6290 C.ar  178  TYR178      0.0417
     44  CZ        20.3840   -5.6950   32.7220 C.ar  178  TYR178      0.1957
     45  OH        21.7550   -5.5700   32.5920 O.3   178  TYR178     -0.2866
     46  N         14.3360   -7.7080   31.0880 N.am  179  ARG179     -0.1980
     47  CA        14.2580   -8.7090   30.0310 C.3   179  ARG179      0.1597
     48  C         13.4050   -8.2590   28.8600 C.2   179  ARG179      0.2287
     49  O         13.5240   -8.8090   27.7660 O.2   179  ARG179     -0.2864
     50  CB        13.7020  -10.0310   30.5660 C.3   179  ARG179      0.0334
     51  CG        12.1630  -10.0280   30.7370 C.3   179  ARG179      0.0492
     52  CD        11.6690  -11.1970   31.5810 C.3   179  ARG179      0.2205
     53  NE        12.2980  -11.1820   32.8970 N.pl3 179  ARG179     -0.0865
     54  CZ        12.0510  -12.0640   33.8560 C.cat 179  ARG179      0.5346
     55  NH1       11.1650  -13.0310   33.6570 N.pl3 179  ARG179      0.1354
     56  NH2       12.6890  -11.9690   35.0200 N.pl3 179  ARG179      0.1354
     57  N         14.5540   -3.5910   39.7040 N.3   202  ASP202     -0.1239
     58  CA        15.3280   -4.8120   39.4890 C.3   202  ASP202      0.1674
     59  C         16.2140   -4.7120   38.2460 C.2   202  ASP202      0.2266
     60  O         16.9550   -5.6440   37.9170 O.2   202  ASP202     -0.2867
     61  CB        14.4130   -6.0480   39.3800 C.3   202  ASP202      0.1410
     62  CG        14.1350   -6.7040   40.7250 C.2   202  ASP202      0.3668
     63  OD1       14.0610   -5.9850   41.7450 O.co2 202  ASP202     -0.2456
     64  OD2       14.0020   -7.9530   40.7530 O.co2 202  ASP202     -0.2456
     65  N         16.7100    0.3420   44.9010 N.3   223  TYR223     -0.1227
     66  CA        16.7830   -0.7670   45.8430 C.3   223  TYR223      0.1736
     67  C         15.8650   -1.9080   45.4520 C.2   223  TYR223      0.2596
     68  O         14.9140   -1.7300   44.6810 O.2   223  TYR223     -0.2718
     69  CB        16.3950   -0.2700   47.2330 C.3   223  TYR223      0.0548
     70  CG        17.2650    0.8610   47.7220 C.ar  223  TYR223     -0.0200
     71  CD1       18.4500    0.6060   48.3970 C.ar  223  TYR223     -0.0009
     72  CD2       16.9080    2.1870   47.4980 C.ar  223  TYR223     -0.0009
     73  CE1       19.2520    1.6430   48.8460 C.ar  223  TYR223      0.0417
     74  CE2       17.7010    3.2290   47.9410 C.ar  223  TYR223      0.0417
     75  CZ        18.8740    2.9510   48.6120 C.ar  223  TYR223      0.1957
     76  OH        19.6710    3.9900   49.0560 O.3   223  TYR223     -0.2866
     77  N         16.1520   -3.0850   45.9920 N.am  224  SER224     -0.1938
     78  CA        15.2610   -4.2260   45.8290 C.3   224  SER224      0.2055
     79  C         15.3110   -5.1460   47.0460 C.2   224  SER224      0.2642
     80  O         15.9670   -4.8380   48.0490 O.2   224  SER224     -0.2714
     81  CB        15.5860   -4.9860   44.5500 C.3   224  SER224      0.2130
     82  OG        14.5270   -5.8770   44.2320 O.3   224  SER224     -0.2179
     83  N         14.5930   -6.2640   46.9710 N.am  225  VAL225     -0.1977
     84  CA        14.5280   -7.2150   48.0850 C.3   225  VAL225      0.1596
     85  C         14.5300   -8.6180   47.4940 C.2   225  VAL225      0.2287
     86  O         14.2860   -8.7850   46.2890 O.2   225  VAL225     -0.2864
     87  CB        13.2450   -7.0220   48.9450 C.3   225  VAL225      0.0276
     88  CG1       13.0870   -5.5670   49.4090 C.3   225  VAL225      0.0022
     89  CG2       12.0200   -7.4830   48.1790 C.3   225  VAL225      0.0022
     90  N         13.2750  -12.1090   46.2240 N.3   227  ALA227     -0.1231
     91  CA        11.9900  -12.4070   45.5930 C.3   227  ALA227      0.1694
     92  C         12.1230  -13.6540   44.7530 C.2   227  ALA227      0.2592
     93  O         13.1680  -13.8820   44.1380 O.2   227  ALA227     -0.2718
     94  CB        11.5310  -11.2350   44.7160 C.3   227  ALA227      0.0304
     95  N         11.0490  -14.4420   44.7070 N.am  228  ALA228     -0.1966
     96  CA        11.0150  -15.6920   43.9600 C.3   228  ALA228      0.1728
     97  C         10.5650  -15.4700   42.5220 C.2   228  ALA228      0.2616
     98  O          9.8830  -14.4870   42.2220 O.2   228  ALA228     -0.2715
     99  CB        10.0890  -16.6900   44.6570 C.3   228  ALA228      0.0334
    100  N         10.9640  -16.3790   41.6390 N.am  229  GLU229     -0.1977
    101  CA        10.4160  -16.4250   40.2860 C.3   229  GLU229      0.1602
    102  C          9.7500  -17.7780   40.1580 C.2   229  GLU229      0.2287
    103  O          9.8420  -18.5970   41.0730 O.2   229  GLU229     -0.2864
    104  CB        11.5220  -16.2590   39.2450 C.3   229  GLU229      0.0415
    105  CG        12.5480  -17.3990   39.1650 C.3   229  GLU229      0.1163
    106  CD        13.5620  -17.1620   38.0440 C.2   229  GLU229      0.3649
    107  OE1       13.8360  -15.9810   37.7330 O.co2 229  GLU229     -0.2457
    108  OE2       14.0720  -18.1500   37.4720 O.co2 229  GLU229     -0.2457
    109  N         12.2200   -8.2590   53.9200 N.3   256  PRO256     -0.2116
    110  CA        11.0060   -8.4450   53.1140 C.3   256  PRO256      0.1372
    111  C         11.2630   -9.4920   52.0360 C.2   256  PRO256      0.2244
    112  O         12.3930   -9.6270   51.5490 O.2   256  PRO256     -0.2868
    113  CB        10.8020   -7.0730   52.4530 C.3   256  PRO256      0.0268
    114  CG        11.5850   -6.1100   53.2980 C.3   256  PRO256      0.0207
    115  CD        12.7560   -6.8900   53.8020 C.3   256  PRO256      0.0892
    116  N          9.3460  -11.3210   48.4760 N.3   258  SER258     -0.1217
    117  CA         8.2070  -11.4730   47.5730 C.3   258  SER258      0.1889
    118  C          8.1810  -12.8960   47.0360 C.2   258  SER258      0.2288
    119  O          9.2080  -13.4290   46.6080 O.2   258  SER258     -0.2866
    120  CB         8.2980  -10.4780   46.4210 C.3   258  SER258      0.2089
    121  OG         7.3190  -10.7630   45.4180 O.3   258  SER258     -0.2183
    122  N          7.9160   -7.9500   55.7670 N.3   290  PRO290     -0.2116
    123  CA         6.6600   -8.5980   55.3880 C.3   290  PRO290      0.1372
    124  C          6.8410   -9.6630   54.3190 C.2   290  PRO290      0.2244
    125  O          7.8190   -9.6330   53.5660 O.2   290  PRO290     -0.2868
    126  CB         5.8490   -7.4450   54.7960 C.3   290  PRO290      0.0268
    127  CG         6.8940   -6.5180   54.2310 C.3   290  PRO290      0.0207
    128  CD         7.9990   -6.5670   55.2630 C.3   290  PRO290      0.0892
    129  N          5.4920  -10.5430   50.8790 N.3   292  ILE292     -0.1245
    130  CA         4.8240   -9.8190   49.8130 C.3   292  ILE292      0.1561
    131  C          4.3430  -10.8670   48.8140 C.2   292  ILE292      0.2260
    132  O          5.1460  -11.5070   48.1400 O.2   292  ILE292     -0.2867
    133  CB         5.7770   -8.8210   49.1390 C.3   292  ILE292      0.0252
    134  CG1        6.3190   -7.8180   50.1660 C.3   292  ILE292      0.0019
    135  CG2        5.0600   -8.0870   47.9940 C.3   292  ILE292      0.0019
    136  CD1        7.6420   -7.1720   49.7690 C.3   292  ILE292      0.0001
    137  N          2.8290  -12.2750   45.4730 N.3   294  ARG294     -0.1245
    138  CA         2.7920  -11.7980   44.0900 C.3   294  ARG294      0.1563
    139  C          1.9380  -12.6720   43.1710 C.2   294  ARG294      0.2260
    140  O          2.3590  -13.7610   42.7580 O.2   294  ARG294     -0.2867
    141  CB         4.2120  -11.6940   43.5310 C.3   294  ARG294      0.0307
    142  CG         4.2810  -11.1480   42.1080 C.3   294  ARG294      0.0489
    143  CD         5.7150  -11.0920   41.6040 C.3   294  ARG294      0.2205
    144  NE         5.7240  -11.2080   40.1440 N.pl3 294  ARG294     -0.0865
    145  CZ         6.5750  -11.9570   39.4560 C.cat 294  ARG294      0.5346
    146  NH1        6.4880  -11.9970   38.1380 N.pl3 294  ARG294      0.1354
    147  NH2        7.5260  -12.6520   40.0790 N.pl3 294  ARG294      0.1354
    148  N          2.0570   -7.4990   45.7420 N.3   334  ILE334     -0.1245
    149  CA         2.5510   -6.8110   44.5510 C.3   334  ILE334      0.1561
    150  C          1.9590   -7.4140   43.2800 C.2   334  ILE334      0.2260
    151  O          2.0240   -8.6310   43.0590 O.2   334  ILE334     -0.2867
    152  CB         4.1040   -6.7600   44.4830 C.3   334  ILE334      0.0252
    153  CG1        4.5410   -5.9030   43.2890 C.3   334  ILE334      0.0019
    154  CG2        4.7140   -8.1600   44.4020 C.3   334  ILE334      0.0019
    155  CD1        6.0290   -5.4710   43.3080 C.3   334  ILE334      0.0001
    156  N          1.6780   -2.7710   45.9100 N.3   362  ALA362     -0.1245
    157  CA         2.6570   -2.1150   45.0510 C.3   362  ALA362      0.1562
    158  C          2.5240   -2.7590   43.6910 C.2   362  ALA362      0.2260
    159  O          1.8800   -3.8050   43.5440 O.2   362  ALA362     -0.2867
    160  CB         4.0690   -2.2790   45.5820 C.3   362  ALA362      0.0290
@<TRIPOS>BOND
     1    49    48    2
     2    48    47    1
     3    37    36    2
     4    47    50    1
     5    47    46    1
     6    50    51    1
     7    51    52    1
     8    36    46   am
     9    36    35    1
    10    52    53    1
    11    43    41   ar
    12    43    44   ar
    13    41    39   ar
    14    35    34    1
    15    35    38    1
    16    45    44    1
    17    44    42   ar
    18    53    54    2
    19    39    38    1
    20    39    40   ar
    21    55    54    1
    22    54    56    1
    23    42    40   ar
    24    26    25    2
    25    25    24    1
    26    24    27    1
    27    24    23    1
    28    27    28    1
    29   108   106   ar
    30    28    30   ar
    31    28    29   ar
    32   107   106   ar
    33    30    32   ar
    34    60    59    2
    35   106   105    1
    36   146   145    1
    37    59    58    1
    38    16    15    2
    39    29    31   ar
    40    32    33   ar
    41   105   104    1
    42   104   101    1
    43    15    14    1
    44    61    58    1
    45    61    62    1
    46   145   147    1
    47   145   144    2
    48    58    57    1
    49    31    33   ar
    50   144   143    1
    51   102   101    1
    52   102   103    2
    53   101   100    1
    54    62    64   ar
    55    62    63   ar
    56    14    13    1
    57    14    17    1
    58    20    18   ar
    59    20    22   ar
    60    17    18    1
    61   143   142    1
    62   100    97   am
    63    18    19   ar
    64   142   141    1
    65    22    21   ar
    66    98    97    2
    67    97    96    1
    68   140   139    2
    69   151   150    2
    70   139   138    1
    71   150   149    1
    72    19    21   ar
    73   153   155    1
    74   153   152    1
    75   141   138    1
    76   159   158    2
    77   158   157    1
    78    96    99    1
    79    96    95    1
    80   138   137    1
    81    93    92    2
    82    82    81    1
    83   154   152    1
    84   152   149    1
    85    81    78    1
    86   149   148    1
    87    68    67    2
    88    95    92   am
    89    94    91    1
    90    92    91    1
    91    65    66    1
    92   157   160    1
    93   157   156    1
    94   121   120    1
    95    67    66    1
    96    67    77   am
    97    91    90    1
    98     3     4    2
    99     3     2    1
   100    78    77    1
   101    78    79    1
   102    66    69    1
   103     2     1    1
   104     2     5    1
   105    86    85    2
   106   120   117    1
   107   119   118    2
   108    83    79   am
   109    83    84    1
   110   118   117    1
   111    79    80    2
   112    69    70    1
   113     7     9   ar
   114     7     6   ar
   115    85    84    1
   116    72    70   ar
   117    72    74   ar
   118     5     6    1
   119   117   116    1
   120     9    11   ar
   121    70    71   ar
   122     6     8   ar
   123    74    75   ar
   124   135   133    1
   125    84    87    1
   126   132   131    2
   127    89    87    1
   128    71    73   ar
   129    75    73   ar
   130    75    76    1
   131    11    12    1
   132    11    10   ar
   133   131   130    1
   134    87    88    1
   135     8    10   ar
   136   133   130    1
   137   133   134    1
   138   136   134    1
   139   130   129    1
   140   112   111    2
   141   111   110    1
   142   113   110    1
   143   113   114    1
   144   110   109    1
   145   114   115    1
   146   125   124    2
   147   115   109    1
   148   127   126    1
   149   127   128    1
   150   124   123    1
   151   126   123    1
   152   128   122    1
   153   123   122    1
