@<TRIPOS>MOLECULE
tmp/4n9eB00.pdb
 71 68 0 0 0
SMALL
GASTEIGER

@<TRIPOS>ATOM
      1  N         10.4670   -2.3980   36.3800 N.3   176  PHE176     -0.1227
      2  CA        10.6700   -3.8120   36.0600 C.3   176  PHE176      0.1736
      3  C         11.1140   -3.9560   34.5880 C.2   176  PHE176      0.2596
      4  O         11.0350   -5.0400   34.0120 O.2   176  PHE176     -0.2718
      5  CB         9.3390   -4.5880   36.1720 C.3   176  PHE176      0.0547
      6  CG         8.8750   -4.9200   37.5780 C.ar  176  PHE176     -0.0202
      7  CD1        9.4720   -4.3950   38.7100 C.ar  176  PHE176     -0.0042
      8  CD2        7.7980   -5.7920   37.7420 C.ar  176  PHE176     -0.0042
      9  CE1        8.9940   -4.7320   39.9870 C.ar  176  PHE176     -0.0003
     10  CE2        7.3280   -6.1370   39.0050 C.ar  176  PHE176     -0.0003
     11  CZ         7.9260   -5.6080   40.1240 C.ar  176  PHE176     -0.0000
     12  N         11.5550   -2.8670   33.9590 N.am  177  GLY177     -0.1957
     13  CA        11.6690   -2.8580   32.5000 C.3   177  GLY177      0.1869
     14  C         12.9480   -3.3380   31.8340 C.2   177  GLY177      0.2309
     15  O         13.0450   -3.3020   30.6020 O.2   177  GLY177     -0.2863
     16  N         14.3720   -6.2100   31.0100 N.3   179  ARG179     -0.1231
     17  CA        14.2860   -7.2210   29.9590 C.3   179  ARG179      0.1694
     18  C         13.4350   -6.7710   28.7810 C.2   179  ARG179      0.2592
     19  O         13.5700   -7.3170   27.6840 O.2   179  ARG179     -0.2718
     20  CB        13.7040   -8.5250   30.5090 C.3   179  ARG179      0.0321
     21  CG        12.1940   -8.4740   30.6820 C.3   179  ARG179      0.0489
     22  CD        11.6880   -9.6300   31.5260 C.3   179  ARG179      0.2205
     23  NE        12.3260   -9.6300   32.8350 N.pl3 179  ARG179     -0.0865
     24  CZ        12.1830  -10.6030   33.7260 C.cat 179  ARG179      0.5346
     25  NH1       11.4060  -11.6390   33.4430 N.pl3 179  ARG179      0.1354
     26  NH2       12.8110  -10.5370   34.8960 N.pl3 179  ARG179      0.1354
     27  N         12.5590   -5.7940   29.0220 N.am  180  GLY180     -0.1957
     28  CA        11.5770   -5.3770   28.0290 C.3   180  GLY180      0.1869
     29  C         11.9670   -4.1540   27.2070 C.2   180  GLY180      0.2309
     30  O         11.1630   -3.6580   26.4130 O.2   180  GLY180     -0.2863
     31  N          2.4900   -6.1480   39.4050 N.3   336  GLY336     -0.1210
     32  CA         3.5670   -5.9250   38.4570 C.3   336  GLY336      0.1956
     33  C          3.2600   -6.4180   37.0550 C.2   336  GLY336      0.2612
     34  O          4.1750   -6.5900   36.2620 O.2   336  GLY336     -0.2717
     35  N          1.9790   -6.6370   36.7460 N.am  337  ASP337     -0.1959
     36  CA         1.5790   -7.1270   35.4170 C.3   337  ASP337      0.1840
     37  C          0.5780   -6.1620   34.7930 C.2   337  ASP337      0.2623
     38  O         -0.3530   -5.7080   35.4720 O.2   337  ASP337     -0.2715
     39  CB         0.9590   -8.5280   35.5490 C.3   337  ASP337      0.1450
     40  CG         0.3910   -9.0580   34.2250 C.2   337  ASP337      0.3671
     41  OD1        1.1800   -9.2290   33.2850 O.co2 337  ASP337     -0.2456
     42  OD2       -0.8400   -9.3050   34.1430 O.co2 337  ASP337     -0.2456
     43  N          0.7810   -5.8350   33.5200 N.am  338  GLY338     -0.1940
     44  CA        -0.1760   -5.0390   32.7710 C.3   338  GLY338      0.2014
     45  C         -0.3110   -3.5850   33.2010 C.2   338  GLY338      0.2638
     46  O         -1.3270   -2.9440   32.9140 O.2   338  GLY338     -0.2714
     47  N          0.7100   -3.0590   33.8780 N.am  339  VAL339     -0.1977
     48  CA         0.6640   -1.6930   34.3910 C.3   339  VAL339      0.1596
     49  C          1.2550   -0.6730   33.4180 C.2   339  VAL339      0.2287
     50  O          2.4400   -0.7410   33.0580 O.2   339  VAL339     -0.2864
     51  CB         1.3960   -1.5730   35.7400 C.3   339  VAL339      0.0276
     52  CG1        1.3500   -0.1260   36.2550 C.3   339  VAL339      0.0022
     53  CG2        0.7530   -2.5130   36.7500 C.3   339  VAL339      0.0022
     54  N          6.2740   -1.7840   36.7400 N.3   365  SER365     -0.1202
     55  CA         5.9240   -1.5770   35.3320 C.3   365  SER365      0.2020
     56  C          7.1900   -1.7420   34.5370 C.2   365  SER365      0.2619
     57  O          8.2450   -1.2720   34.9460 O.2   365  SER365     -0.2717
     58  CB         5.3050   -0.1890   35.1080 C.3   365  SER365      0.2103
     59  OG         4.9150    0.0070   33.7500 O.3   365  SER365     -0.2182
     60  N          7.0910   -2.4240   33.4020 N.am  366  GLY366     -0.1942
     61  CA         8.2700   -2.7050   32.6140 C.3   366  GLY366      0.2014
     62  C          8.1830   -2.0740   31.2480 C.2   366  GLY366      0.2639
     63  O          8.5790   -0.9290   31.0670 O.2   366  GLY366     -0.2714
     64  N          7.6620   -2.8230   30.2810 N.am  367  GLY367     -0.1939
     65  CA         7.4700   -2.2820   28.9480 C.3   367  GLY367      0.2014
     66  C          6.6300   -1.0100   28.9590 C.2   367  GLY367      0.2639
     67  O          6.9100   -0.0560   28.2290 O.2   367  GLY367     -0.2714
     68  N          5.6010   -0.9850   29.7990 N.am  368  GLY368     -0.1954
     69  CA         4.7430    0.1860   29.8810 C.3   368  GLY368      0.1869
     70  C          5.4980    1.4350   30.3220 C.2   368  GLY368      0.2309
     71  O          5.1840    2.5550   29.9020 O.2   368  GLY368     -0.2863
@<TRIPOS>BOND
     1    30    29    2
     2    29    28    1
     3    19    18    2
     4    28    27    1
     5    67    66    2
     6    18    27   am
     7    18    17    1
     8    65    66    1
     9    65    64    1
    10    66    68   am
    11    68    69    1
    12    69    70    1
    13    71    70    2
    14    17    20    1
    15    17    16    1
    16    64    62   am
    17    20    21    1
    18    15    14    2
    19    21    22    1
    20    63    62    2
    21    62    61    1
    22    22    23    1
    23    14    13    1
    24    13    12    1
    25    61    60    1
    26    44    45    1
    27    44    43    1
    28    23    24    2
    29    46    45    2
    30    50    49    2
    31    45    47   am
    32    41    40   ar
    33    60    56   am
    34    49    48    1
    35    25    24    1
    36    43    37   am
    37    24    26    1
    38    59    58    1
    39    47    48    1
    40    12     3   am
    41     4     3    2
    42    42    40   ar
    43    40    39    1
    44    48    51    1
    45    56    57    2
    46    56    55    1
    47     3     2    1
    48    37    36    1
    49    37    38    2
    50    58    55    1
    51    55    54    1
    52    36    39    1
    53    36    35    1
    54    51    52    1
    55    51    53    1
    56     2     5    1
    57     2     1    1
    58     5     6    1
    59    34    33    2
    60    35    33   am
    61    33    32    1
    62     6     8   ar
    63     6     7   ar
    64     8    10   ar
    65    32    31    1
    66     7     9   ar
    67    10    11   ar
    68     9    11   ar
