@<TRIPOS>MOLECULE
tmp/4n9eB01.pdb
 200 192 0 0 0
SMALL
GASTEIGER

@<TRIPOS>ATOM
      1  N          8.2100    5.0570   46.3980 N.3   171  TYR171     -0.1227
      2  CA         8.4380    3.6230   46.1830 C.3   171  TYR171      0.1736
      3  C          7.2420    2.9170   45.5460 C.2   171  TYR171      0.2595
      4  O          7.2360    1.6960   45.4470 O.2   171  TYR171     -0.2718
      5  CB         8.8290    2.9320   47.4970 C.3   171  TYR171      0.0548
      6  CG        10.1860    3.3850   47.9440 C.ar  171  TYR171     -0.0200
      7  CD1       11.3360    2.8690   47.3440 C.ar  171  TYR171     -0.0009
      8  CD2       10.3320    4.3720   48.9160 C.ar  171  TYR171     -0.0009
      9  CE1       12.5910    3.3050   47.7210 C.ar  171  TYR171      0.0417
     10  CE2       11.5940    4.8190   49.2970 C.ar  171  TYR171      0.0417
     11  CZ        12.7100    4.2730   48.6970 C.ar  171  TYR171      0.1957
     12  OH        13.9670    4.6990   49.0600 O.3   171  TYR171     -0.2866
     13  N          6.2550    3.6840   45.0980 N.am  172  LYS172     -0.1980
     14  CA         4.9860    3.1060   44.6270 C.3   172  LYS172      0.1596
     15  C          4.9510    2.6790   43.1680 C.2   172  LYS172      0.2287
     16  O          3.9940    2.0170   42.7390 O.2   172  LYS172     -0.2864
     17  CB         3.8260    4.0700   44.8760 C.3   172  LYS172      0.0298
     18  CG         3.5150    4.2620   46.3510 C.3   172  LYS172      0.0038
     19  CD         2.2930    3.4830   46.7480 C.3   172  LYS172      0.0206
     20  CE         1.9970    3.6240   48.2170 C.3   172  LYS172      0.1093
     21  NZ         2.1690    2.3330   48.9230 N.3   172  LYS172     -0.1314
     22  N          7.6280    0.8270   40.6230 N.3   174  HIS174     -0.1241
     23  CA         8.9530    0.2150   40.5710 C.3   174  HIS174      0.1621
     24  C          9.2770   -0.1770   39.1230 C.2   174  HIS174      0.2264
     25  O          8.4330   -0.7220   38.4160 O.2   174  HIS174     -0.2867
     26  CB         8.9690   -1.0270   41.4770 C.3   174  HIS174      0.0745
     27  CG        10.3480   -1.5040   41.8370 C.ar  174  HIS174      0.0817
     28  ND1       10.9620   -1.1590   43.0190 N.ar  174  HIS174     -0.2268
     29  CD2       11.2320   -2.2910   41.1690 C.ar  174  HIS174      0.1154
     30  CE1       12.1610   -1.7180   43.0730 C.ar  174  HIS174      0.1986
     31  NE2       12.3490   -2.4120   41.9620 N.ar  174  HIS174     -0.2212
     32  N         10.4670   -2.3980   36.3800 N.3   176  PHE176     -0.1241
     33  CA        10.6700   -3.8120   36.0600 C.3   176  PHE176      0.1605
     34  C         11.1140   -3.9560   34.5880 C.2   176  PHE176      0.2264
     35  O         11.0350   -5.0400   34.0120 O.2   176  PHE176     -0.2867
     36  CB         9.3390   -4.5880   36.1720 C.3   176  PHE176      0.0534
     37  CG         8.8750   -4.9200   37.5780 C.ar  176  PHE176     -0.0203
     38  CD1        9.4720   -4.3950   38.7100 C.ar  176  PHE176     -0.0042
     39  CD2        7.7980   -5.7920   37.7420 C.ar  176  PHE176     -0.0042
     40  CE1        8.9940   -4.7320   39.9870 C.ar  176  PHE176     -0.0003
     41  CE2        7.3280   -6.1370   39.0050 C.ar  176  PHE176     -0.0003
     42  CZ         7.9260   -5.6080   40.1240 C.ar  176  PHE176     -0.0000
     43  N         13.9060   -3.8300   32.6200 N.3   178  TYR178     -0.1227
     44  CA        15.2190   -4.1430   32.0590 C.3   178  TYR178      0.1736
     45  C         15.1260   -5.1220   30.8570 C.2   178  TYR178      0.2595
     46  O         15.7410   -4.8810   29.8150 O.2   178  TYR178     -0.2718
     47  CB        16.1250   -4.7020   33.1610 C.3   178  TYR178      0.0548
     48  CG        17.6290   -4.5270   32.9490 C.ar  178  TYR178     -0.0200
     49  CD1       18.5040   -4.7170   34.0110 C.ar  178  TYR178     -0.0009
     50  CD2       18.1720   -4.2240   31.6940 C.ar  178  TYR178     -0.0009
     51  CE1       19.8860   -4.5940   33.8550 C.ar  178  TYR178      0.0417
     52  CE2       19.5760   -4.0870   31.5310 C.ar  178  TYR178      0.0417
     53  CZ        20.4130   -4.2610   32.6340 C.ar  178  TYR178      0.1957
     54  OH        21.7920   -4.1480   32.5180 O.3   178  TYR178     -0.2866
     55  N         14.3720   -6.2100   31.0100 N.am  179  ARG179     -0.1980
     56  CA        14.2860   -7.2210   29.9590 C.3   179  ARG179      0.1597
     57  C         13.4350   -6.7710   28.7810 C.2   179  ARG179      0.2287
     58  O         13.5700   -7.3170   27.6840 O.2   179  ARG179     -0.2864
     59  CB        13.7040   -8.5250   30.5090 C.3   179  ARG179      0.0334
     60  CG        12.1940   -8.4740   30.6820 C.3   179  ARG179      0.0492
     61  CD        11.6880   -9.6300   31.5260 C.3   179  ARG179      0.2205
     62  NE        12.3260   -9.6300   32.8350 N.pl3 179  ARG179     -0.0865
     63  CZ        12.1830  -10.6030   33.7260 C.cat 179  ARG179      0.5346
     64  NH1       11.4060  -11.6390   33.4430 N.pl3 179  ARG179      0.1354
     65  NH2       12.8110  -10.5370   34.8960 N.pl3 179  ARG179      0.1354
     66  N         14.6100   -2.1190   39.4620 N.3   202  ASP202     -0.1239
     67  CA        15.3780   -3.3540   39.2950 C.3   202  ASP202      0.1674
     68  C         16.2990   -3.2720   38.0660 C.2   202  ASP202      0.2266
     69  O         17.0320   -4.2160   37.7570 O.2   202  ASP202     -0.2867
     70  CB        14.4590   -4.5820   39.1810 C.3   202  ASP202      0.1410
     71  CG        14.1720   -5.2390   40.5320 C.2   202  ASP202      0.3668
     72  OD1       13.9940   -4.5200   41.5460 O.co2 202  ASP202     -0.2456
     73  OD2       14.1260   -6.4930   40.5800 O.co2 202  ASP202     -0.2456
     74  N         16.1870   -1.6890   45.7550 N.3   224  SER224     -0.1202
     75  CA        15.2910   -2.8170   45.5510 C.3   224  SER224      0.2020
     76  C         15.2580   -3.7090   46.7870 C.2   224  SER224      0.2618
     77  O         15.8720   -3.3830   47.7950 O.2   224  SER224     -0.2717
     78  CB        15.6900   -3.6130   44.3170 C.3   224  SER224      0.2103
     79  OG        14.6150   -4.4630   43.9420 O.3   224  SER224     -0.2182
     80  N         14.5310   -4.8220   46.7120 N.am  225  VAL225     -0.1979
     81  CA        14.4200   -5.7750   47.8240 C.3   225  VAL225      0.1595
     82  C         14.4430   -7.1840   47.2490 C.2   225  VAL225      0.2287
     83  O         14.1770   -7.3650   46.0540 O.2   225  VAL225     -0.2864
     84  CB        13.0850   -5.6150   48.5900 C.3   225  VAL225      0.0276
     85  CG1       12.9960   -4.2210   49.2630 C.3   225  VAL225      0.0022
     86  CG2       11.9160   -5.8610   47.6580 C.3   225  VAL225      0.0022
     87  N         13.2160  -10.6050   46.0060 N.3   227  ALA227     -0.1231
     88  CA        11.9310  -10.9200   45.4060 C.3   227  ALA227      0.1694
     89  C         12.0830  -12.2130   44.6200 C.2   227  ALA227      0.2592
     90  O         13.1430  -12.4490   44.0310 O.2   227  ALA227     -0.2718
     91  CB        11.5080   -9.8020   44.4680 C.3   227  ALA227      0.0304
     92  N         11.0320  -13.0310   44.6140 N.am  228  ALA228     -0.1966
     93  CA        11.0110  -14.2730   43.8410 C.3   228  ALA228      0.1728
     94  C         10.6080  -14.0290   42.3850 C.2   228  ALA228      0.2616
     95  O         10.0380  -12.9860   42.0440 O.2   228  ALA228     -0.2715
     96  CB        10.0400  -15.2880   44.4820 C.3   228  ALA228      0.0334
     97  N         10.9280  -14.9880   41.5230 N.am  229  GLU229     -0.1977
     98  CA        10.3910  -14.9960   40.1690 C.3   229  GLU229      0.1602
     99  C          9.7670  -16.3630   40.0070 C.2   229  GLU229      0.2287
    100  O          9.9000  -17.2030   40.8940 O.2   229  GLU229     -0.2864
    101  CB        11.4860  -14.7670   39.1090 C.3   229  GLU229      0.0415
    102  CG        12.4890  -15.9260   38.9650 C.3   229  GLU229      0.1163
    103  CD        13.5540  -15.6560   37.8990 C.2   229  GLU229      0.3649
    104  OE1       13.8540  -14.4660   37.6510 O.co2 229  GLU229     -0.2457
    105  OE2       14.0770  -16.6340   37.3080 O.co2 229  GLU229     -0.2457
    106  N         12.3110   -6.7800   53.7820 N.3   256  PRO256     -0.2116
    107  CA        11.0750   -6.9890   53.0140 C.3   256  PRO256      0.1372
    108  C         11.2940   -8.0700   51.9630 C.2   256  PRO256      0.2244
    109  O         12.4040   -8.2080   51.4370 O.2   256  PRO256     -0.2868
    110  CB        10.8590   -5.6360   52.3110 C.3   256  PRO256      0.0268
    111  CG        11.6870   -4.6510   53.0850 C.3   256  PRO256      0.0207
    112  CD        12.8470   -5.4180   53.6060 C.3   256  PRO256      0.0892
    113  N          9.3850   -9.9370   48.4480 N.3   258  SER258     -0.1217
    114  CA         8.2600   -9.9900   47.5180 C.3   258  SER258      0.1889
    115  C          8.1960  -11.3840   46.9370 C.2   258  SER258      0.2288
    116  O          9.2050  -11.9080   46.4880 O.2   258  SER258     -0.2866
    117  CB         8.4690   -8.9850   46.3980 C.3   258  SER258      0.2089
    118  OG         7.5710   -9.2170   45.3150 O.3   258  SER258     -0.2183
    119  N          8.0280   -6.4390   55.6440 N.3   290  PRO290     -0.2116
    120  CA         6.7570   -7.0850   55.3070 C.3   290  PRO290      0.1372
    121  C          6.9240   -8.1580   54.2390 C.2   290  PRO290      0.2244
    122  O          7.9190   -8.1470   53.5130 O.2   290  PRO290     -0.2868
    123  CB         5.9330   -5.9310   54.7200 C.3   290  PRO290      0.0268
    124  CG         6.9660   -5.0060   54.1390 C.3   290  PRO290      0.0207
    125  CD         8.1170   -5.0640   55.1200 C.3   290  PRO290      0.0892
    126  N          5.4990   -9.0480   50.7770 N.3   292  ILE292     -0.1245
    127  CA         4.8010   -8.3470   49.7220 C.3   292  ILE292      0.1561
    128  C          4.3430   -9.4280   48.7520 C.2   292  ILE292      0.2260
    129  O          5.1510  -10.0500   48.0860 O.2   292  ILE292     -0.2867
    130  CB         5.7180   -7.3140   49.0410 C.3   292  ILE292      0.0252
    131  CG1        6.2710   -6.3400   50.0900 C.3   292  ILE292      0.0019
    132  CG2        4.9500   -6.5540   47.9470 C.3   292  ILE292      0.0019
    133  CD1        7.5110   -5.5880   49.6680 C.3   292  ILE292      0.0001
    134  N          2.8340  -10.8480   45.3750 N.3   294  ARG294     -0.1245
    135  CA         2.8530  -10.3510   43.9900 C.3   294  ARG294      0.1563
    136  C          1.9960  -11.1940   43.0530 C.2   294  ARG294      0.2260
    137  O          2.4190  -12.2620   42.5980 O.2   294  ARG294     -0.2867
    138  CB         4.2880  -10.2940   43.4420 C.3   294  ARG294      0.0307
    139  CG         4.3460   -9.6730   42.0360 C.3   294  ARG294      0.0489
    140  CD         5.7130   -9.1240   41.6660 C.3   294  ARG294      0.2205
    141  NE         6.7120  -10.1530   41.4190 N.pl3 294  ARG294     -0.0865
    142  CZ         6.9470  -10.7020   40.2280 C.cat 294  ARG294      0.5346
    143  NH1        6.2200  -10.3570   39.1720 N.pl3 294  ARG294      0.1354
    144  NH2        7.9010  -11.6120   40.0910 N.pl3 294  ARG294      0.1354
    145  N          1.7820   -6.5510   52.4270 N.3   332  ARG332     -0.1231
    146  CA         1.4370   -5.6060   51.3510 C.3   332  ARG332      0.1694
    147  C          1.2970   -6.3610   50.0440 C.2   332  ARG332      0.2592
    148  O          1.5340   -7.5820   49.9980 O.2   332  ARG332     -0.2718
    149  CB         2.5020   -4.5010   51.2160 C.3   332  ARG332      0.0321
    150  CG         2.5520   -3.5400   52.4230 C.3   332  ARG332      0.0489
    151  CD         1.3130   -2.6650   52.4510 C.3   332  ARG332      0.2205
    152  NE         1.3610   -1.6120   53.4750 N.pl3 332  ARG332     -0.0865
    153  CZ         0.7780   -1.7200   54.6640 C.cat 332  ARG332      0.5346
    154  NH1        0.1490   -2.8380   54.9820 N.pl3 332  ARG332      0.1354
    155  NH2        0.8320   -0.7180   55.5350 N.pl3 332  ARG332      0.1354
    156  N          0.8980   -5.6440   48.9920 N.am  333  VAL333     -0.1966
    157  CA         0.7240   -6.2480   47.6700 C.3   333  VAL333      0.1727
    158  C          1.4400   -5.4070   46.6290 C.2   333  VAL333      0.2616
    159  O          1.4850   -4.1740   46.7430 O.2   333  VAL333     -0.2715
    160  CB        -0.7610   -6.3170   47.2810 C.3   333  VAL333      0.0290
    161  CG1       -0.9350   -6.9000   45.8840 C.3   333  VAL333      0.0023
    162  CG2       -1.5500   -7.1320   48.3290 C.3   333  VAL333      0.0023
    163  N          2.0130   -6.0590   45.6150 N.am  334  ILE334     -0.1977
    164  CA         2.5250   -5.3320   44.4630 C.3   334  ILE334      0.1596
    165  C          1.9560   -5.9330   43.1680 C.2   334  ILE334      0.2287
    166  O          2.0190   -7.1410   42.9510 O.2   334  ILE334     -0.2864
    167  CB         4.0900   -5.2620   44.4150 C.3   334  ILE334      0.0276
    168  CG1        4.5210   -4.3530   43.2530 C.3   334  ILE334      0.0022
    169  CG2        4.7010   -6.6630   44.3390 C.3   334  ILE334      0.0022
    170  CD1        6.0280   -4.1160   43.1410 C.3   334  ILE334      0.0001
    171  N         -2.2390    2.8900   50.3860 N.3   359  GLU359     -0.1231
    172  CA        -1.1150    2.4410   51.2200 C.3   359  GLU359      0.1699
    173  C         -0.8190    0.9430   51.0420 C.2   359  GLU359      0.2592
    174  O          0.3300    0.5030   51.2160 O.2   359  GLU359     -0.2718
    175  CB        -1.4210    2.6580   52.7090 C.3   359  GLU359      0.0402
    176  CG        -1.4760    4.1070   53.1440 C.3   359  GLU359      0.1161
    177  CD        -2.1570    4.2550   54.4940 C.2   359  GLU359      0.3649
    178  OE1       -3.4030    4.2430   54.5320 O.co2 359  GLU359     -0.2457
    179  OE2       -1.4530    4.3560   55.5190 O.co2 359  GLU359     -0.2457
    180  N         -1.8580    0.1650   50.7400 N.am  360  ASN360     -0.1960
    181  CA        -1.7400   -1.2830   50.6050 C.3   360  ASN360      0.1819
    182  C         -0.9460   -1.7750   49.4120 C.2   360  ASN360      0.2621
    183  O         -0.5190   -2.9230   49.4100 O.2   360  ASN360     -0.2715
    184  CB        -3.1240   -1.9250   50.5030 C.3   360  ASN360      0.1195
    185  CG        -3.9050   -1.8090   51.7890 C.2   360  ASN360      0.2630
    186  OD1       -3.4990   -2.3520   52.8130 O.2   360  ASN360     -0.2716
    187  ND2       -5.0070   -1.0750   51.7480 N.am  360  ASN360     -0.0877
    188  N         -0.7720   -0.9220   48.3960 N.am  361  ILE361     -0.1963
    189  CA        -0.3570   -1.3850   47.0730 C.3   361  ILE361      0.1727
    190  C          0.8710   -0.6440   46.5840 C.2   361  ILE361      0.2616
    191  O          1.1120    0.5060   46.9710 O.2   361  ILE361     -0.2715
    192  CB        -1.5040   -1.2220   46.0360 C.3   361  ILE361      0.0290
    193  CG1       -1.2120   -1.9760   44.7310 C.3   361  ILE361      0.0022
    194  CG2       -1.7450    0.2550   45.6880 C.3   361  ILE361      0.0023
    195  CD1       -1.2810   -3.4440   44.8400 C.3   361  ILE361      0.0001
    196  N          1.6650   -1.3350   45.7750 N.am  362  ALA362     -0.1977
    197  CA         2.6890   -0.7040   44.9540 C.3   362  ALA362      0.1597
    198  C          2.5450   -1.3120   43.5620 C.2   362  ALA362      0.2287
    199  O          1.8490   -2.3270   43.3880 O.2   362  ALA362     -0.2864
    200  CB         4.0650   -0.9740   45.5040 C.3   362  ALA362      0.0319
@<TRIPOS>BOND
     1    58    57    2
     2    57    56    1
     3    46    45    2
     4    56    59    1
     5    56    55    1
     6    59    60    1
     7    60    61    1
     8    45    55   am
     9    45    44    1
    10    61    62    1
    11    52    50   ar
    12    52    53   ar
    13    50    48   ar
    14    44    43    1
    15    44    47    1
    16    54    53    1
    17    53    51   ar
    18    62    63    2
    19    48    47    1
    20    48    49   ar
    21    64    63    1
    22    63    65    1
    23    51    49   ar
    24    35    34    2
    25    34    33    1
    26    33    36    1
    27    33    32    1
    28    36    37    1
    29   105   103   ar
    30    37    39   ar
    31    37    38   ar
    32   104   103   ar
    33    39    41   ar
    34    69    68    2
    35   103   102    1
    36    68    67    1
    37    25    24    2
    38    38    40   ar
    39   102   101    1
    40    41    42   ar
    41   101    98    1
    42    24    23    1
    43   143   142    1
    44    70    67    1
    45    70    71    1
    46    67    66    1
    47    40    42   ar
    48    99    98    1
    49    99   100    2
    50   144   142    1
    51    98    97    1
    52   142   141    2
    53    71    73   ar
    54    71    72   ar
    55    23    22    1
    56    23    26    1
    57    29    27   ar
    58    29    31   ar
    59   141   140    1
    60    26    27    1
    61    97    94   am
    62   140   139    1
    63    27    28   ar
    64    31    30   ar
    65   139   138    1
    66    95    94    2
    67    94    93    1
    68   137   136    2
    69    16    15    2
    70   166   165    2
    71    28    30   ar
    72   136   135    1
    73   170   168    1
    74    15    14    1
    75   165   164    1
    76   168   167    1
    77   199   198    2
    78   138   135    1
    79   198   197    1
    80    93    96    1
    81    93    92    1
    82    79    78    1
    83   135   134    1
    84    90    89    2
    85    78    75    1
    86   169   167    1
    87   167   164    1
    88   164   163    1
    89    91    88    1
    90    92    89   am
    91    89    88    1
    92    14    17    1
    93    14    13    1
    94   193   195    1
    95   193   192    1
    96    17    18    1
    97   197   200    1
    98   197   196    1
    99    13     3   am
   100   118   117    1
   101    88    87    1
   102     4     3    2
   103     3     2    1
   104    75    74    1
   105    75    76    1
   106   163   158   am
   107   194   192    1
   108   196   190   am
   109   161   160    1
   110   192   189    1
   111    83    82    2
   112     2     1    1
   113     2     5    1
   114    18    19    1
   115   117   114    1
   116   116   115    2
   117   190   191    2
   118   190   189    1
   119   158   159    2
   120   158   157    1
   121    80    76   am
   122    80    81    1
   123    19    20    1
   124    76    77    2
   125   115   114    1
   126   189   188    1
   127    82    81    1
   128   160   157    1
   129   160   162    1
   130     7     9   ar
   131     7     6   ar
   132     5     6    1
   133   114   113    1
   134    86    84    1
   135   157   156    1
   136     9    11   ar
   137    81    84    1
   138     6     8   ar
   139   132   130    1
   140   129   128    2
   141    20    21    1
   142   188   182   am
   143    84    85    1
   144    11    12    1
   145    11    10   ar
   146   128   127    1
   147     8    10   ar
   148   156   147   am
   149   130   127    1
   150   130   131    1
   151   183   182    2
   152   182   181    1
   153   133   131    1
   154   127   126    1
   155   148   147    2
   156   147   146    1
   157   171   172    1
   158   184   181    1
   159   184   185    1
   160   181   180    1
   161   180   173   am
   162   173   174    2
   163   173   172    1
   164   149   146    1
   165   149   150    1
   166   172   175    1
   167   146   145    1
   168   109   108    2
   169   187   185   am
   170   185   186    2
   171   108   107    1
   172   110   107    1
   173   110   111    1
   174   150   151    1
   175   151   152    1
   176   175   176    1
   177   107   106    1
   178   111   112    1
   179   176   177    1
   180   152   153    2
   181   122   121    2
   182   112   106    1
   183   124   123    1
   184   124   125    1
   185   121   120    1
   186   177   178   ar
   187   177   179   ar
   188   153   154    1
   189   153   155    1
   190   123   120    1
   191   125   119    1
   192   120   119    1
