@<TRIPOS>MOLECULE
tmp/4n9iA00.pdb
 136 127 0 0 0
SMALL
GASTEIGER

@<TRIPOS>ATOM
      1  N          6.7510   19.5900   18.7530 N.3    23  ILE23      -0.1245
      2  CA         8.0230   18.9950   19.0660 C.3    23  ILE23       0.1561
      3  C          8.7540   18.7040   17.7460 C.2    23  ILE23       0.2260
      4  O          8.1630   18.1240   16.8400 O.2    23  ILE23      -0.2867
      5  CB         7.8150   17.6500   19.8150 C.3    23  ILE23       0.0252
      6  CG1        7.2620   17.8730   21.2070 C.3    23  ILE23       0.0019
      7  CG2        9.1380   16.8130   19.8790 C.3    23  ILE23       0.0019
      8  CD1        7.1620   16.6110   21.9420 C.3    23  ILE23       0.0001
      9  N         15.3100   17.0090   25.0720 N.3    29  ALA29      -0.1245
     10  CA        14.0360   16.6870   25.7340 C.3    29  ALA29       0.1562
     11  C         14.0690   17.0820   27.2030 C.2    29  ALA29       0.2260
     12  O         14.7680   16.4510   27.9290 O.2    29  ALA29      -0.2867
     13  CB        13.7770   15.1350   25.6260 C.3    29  ALA29       0.0290
     14  N          2.1150   12.0270   15.9100 N.3    42  VAL42      -0.1245
     15  CA         3.5490   11.7760   16.0320 C.3    42  VAL42       0.1561
     16  C          4.0120   11.2970   14.6350 C.2    42  VAL42       0.2260
     17  O          3.3640   10.4400   14.0030 O.2    42  VAL42      -0.2867
     18  CB         3.8560   10.7190   17.0720 C.3    42  VAL42       0.0252
     19  CG1        5.4490   10.5250   17.2320 C.3    42  VAL42       0.0019
     20  CG2        3.2230   11.0730   18.3960 C.3    42  VAL42       0.0019
     21  N          3.4520    7.8510   12.8270 N.3    54  LEU54      -0.1231
     22  CA         3.7230    6.8000   13.8000 C.3    54  LEU54       0.1693
     23  C          2.5900    6.6340   14.7880 C.2    54  LEU54       0.2592
     24  O          2.3400    5.5280   15.2550 O.2    54  LEU54      -0.2718
     25  CB         4.9760    7.1610   14.6250 C.3    54  LEU54       0.0284
     26  CG         6.2030    7.4370   13.7490 C.3    54  LEU54       0.0019
     27  CD1        7.3970    7.8390   14.6690 C.3    54  LEU54       0.0001
     28  CD2        6.5650    6.1640   12.9140 C.3    54  LEU54       0.0001
     29  N          1.9630    7.7290   15.1790 N.am   55  SER55      -0.1952
     30  CA         0.9270    7.6380   16.1740 C.3    55  SER55       0.1924
     31  C         -0.0130    8.8390   16.2310 C.2    55  SER55       0.2314
     32  O          0.3810    9.9380   15.7900 O.2    55  SER55      -0.2863
     33  CB         1.5710    7.4250   17.5120 C.3    55  SER55       0.2116
     34  OG         0.5630    7.2890   18.4860 O.3    55  SER55      -0.2180
     35  N         -2.3980   10.8450   19.1150 N.3    57  LEU57      -0.1245
     36  CA        -2.5980   10.8940   20.5540 C.3    57  LEU57       0.1561
     37  C         -3.7220   11.8820   20.7010 C.2    57  LEU57       0.2260
     38  O         -3.8200   12.8120   19.8980 O.2    57  LEU57      -0.2867
     39  CB        -1.3400   11.4110   21.3020 C.3    57  LEU57       0.0270
     40  CG        -0.0100   10.6120   21.1550 C.3    57  LEU57       0.0019
     41  CD1        1.2280   11.4410   21.7260 C.3    57  LEU57       0.0001
     42  CD2        0.0610    9.2090   21.8290 C.3    57  LEU57       0.0001
     43  N          2.7870   13.0630   26.3110 N.3    63  ILE63      -0.1231
     44  CA         3.7230   12.9970   25.2080 C.3    63  ILE63       0.1692
     45  C          5.0960   13.2960   25.8300 C.2    63  ILE63       0.2593
     46  O          5.2380   14.1710   26.7020 O.2    63  ILE63      -0.2718
     47  CB         3.4930   14.1030   24.1790 C.3    63  ILE63       0.0266
     48  CG1        2.0050   14.2680   23.7890 C.3    63  ILE63       0.0019
     49  CG2        4.2570   13.8250   22.8550 C.3    63  ILE63       0.0020
     50  CD1        1.7190   15.6860   23.0940 C.3    63  ILE63       0.0001
     51  N          6.1340   12.6180   25.3720 N.am   64  GLY64      -0.1942
     52  CA         7.4260   12.7650   26.0500 C.3    64  GLY64       0.2014
     53  C          7.7080   11.8700   27.2560 C.2    64  GLY64       0.2639
     54  O          8.6720   12.1360   27.9550 O.2    64  GLY64      -0.2714
     55  N          6.9170   10.8280   27.5360 N.am   65  GLU65      -0.1963
     56  CA         7.1460   10.1260   28.8710 C.3    65  GLU65       0.1733
     57  C          8.5960    9.5750   29.0510 C.2    65  GLU65       0.2616
     58  O          9.1700    9.6000   30.1340 O.2    65  GLU65      -0.2715
     59  CB         6.1690    8.9650   29.1170 C.3    65  GLU65       0.0429
     60  CG         4.6420    9.3240   29.0280 C.3    65  GLU65       0.1163
     61  CD         4.1340    9.2040   27.5860 C.2    65  GLU65       0.3649
     62  OE1        4.9130    9.4220   26.6530 O.co2  65  GLU65      -0.2457
     63  OE2        2.9750    8.8510   27.3320 O.co2  65  GLU65      -0.2457
     64  N          9.1610    9.0170   28.0020 N.am   66  LEU66      -0.1963
     65  CA        10.4200    8.2500   28.1380 C.3    66  LEU66       0.1728
     66  C         11.4950    9.1940   28.6540 C.2    66  LEU66       0.2616
     67  O         12.3900    8.7800   29.3570 O.2    66  LEU66      -0.2715
     68  CB        10.8840    7.6450   26.7980 C.3    66  LEU66       0.0311
     69  CG        12.1860    6.8310   26.8650 C.3    66  LEU66       0.0022
     70  CD1       12.1050    5.6440   27.8010 C.3    66  LEU66       0.0001
     71  CD2       12.7430    6.3590   25.5240 C.3    66  LEU66       0.0001
     72  N         11.3480   10.4710   28.3380 N.am   67  GLY67      -0.1955
     73  CA        12.4000   11.4370   28.5950 C.3    67  GLY67       0.1869
     74  C         12.4510   11.6950   30.0700 C.2    67  GLY67       0.2309
     75  O         13.4290   12.1570   30.5240 O.2    67  GLY67      -0.2863
     76  N         17.5200   13.3070   23.0340 N.3    74  GLU74      -0.1231
     77  CA        17.0540   14.0650   21.9190 C.3    74  GLU74       0.1699
     78  C         15.5800   13.6180   21.6200 C.2    74  GLU74       0.2592
     79  O         15.2160   12.4550   21.7940 O.2    74  GLU74      -0.2718
     80  CB        17.9100   13.6800   20.7600 C.3    74  GLU74       0.0402
     81  CG        19.3370   14.2700   20.8100 C.3    74  GLU74       0.1161
     82  CD        20.0460   13.9820   19.5270 C.2    74  GLU74       0.3649
     83  OE1       20.2330   14.9370   18.7610 O.co2  74  GLU74      -0.2457
     84  OE2       20.3590   12.8020   19.2380 O.co2  74  GLU74      -0.2457
     85  N         14.7580   14.5350   21.1550 N.am   75  ARG75      -0.1966
     86  CA        13.4240   14.1100   20.6030 C.3    75  ARG75       0.1729
     87  C         13.5000   13.0960   19.5120 C.2    75  ARG75       0.2617
     88  O         14.1680   13.3130   18.4960 O.2    75  ARG75      -0.2715
     89  CB        12.6790   15.3500   20.1800 C.3    75  ARG75       0.0348
     90  CG        12.4420   16.2300   21.4210 C.3    75  ARG75       0.0492
     91  CD        11.5930   15.5150   22.4950 C.3    75  ARG75       0.2205
     92  NE        11.1030   16.5290   23.4320 N.pl3  75  ARG75      -0.0865
     93  CZ        10.5580   16.2780   24.6350 C.cat  75  ARG75       0.5346
     94  NH1       10.3740   15.0310   25.0790 N.pl3  75  ARG75       0.1354
     95  NH2       10.2180   17.2860   25.4010 N.pl3  75  ARG75       0.1354
     96  N         12.8460   11.9690   19.6970 N.am   76  SER76      -0.1936
     97  CA        12.8290   10.9290   18.6710 C.3    76  SER76       0.2055
     98  C         12.0180   11.2220   17.3810 C.2    76  SER76       0.2642
     99  O         12.2000   10.5550   16.3550 O.2    76  SER76      -0.2714
    100  CB        12.3030    9.6130   19.3030 C.3    76  SER76       0.2130
    101  OG        10.9170    9.7600   19.6580 O.3    76  SER76      -0.2179
    102  N         11.1440   12.2210   17.3980 N.am   77  ALA77      -0.1977
    103  CA        10.1970   12.3410   16.2950 C.3    77  ALA77       0.1597
    104  C          9.5520   13.7020   16.4660 C.2    77  ALA77       0.2287
    105  O          9.7730   14.3380   17.4930 O.2    77  ALA77      -0.2864
    106  CB         9.1120   11.2000   16.3920 C.3    77  ALA77       0.0319
    107  N          6.2390   16.1310   16.6760 N.3    79  VAL79      -0.1245
    108  CA         4.8520   16.0320   17.0460 C.3    79  VAL79       0.1561
    109  C          4.0720   17.2310   16.5370 C.2    79  VAL79       0.2260
    110  O          4.4200   18.4070   16.8470 O.2    79  VAL79      -0.2867
    111  CB         4.6510   15.8110   18.5900 C.3    79  VAL79       0.0252
    112  CG1        3.1530   15.7150   18.8600 C.3    79  VAL79       0.0019
    113  CG2        5.2880   14.4440   19.0080 C.3    79  VAL79       0.0019
    114  N         10.6410   18.1460   33.1180 N.3    92  TYR92      -0.1241
    115  CA        10.8760   16.8370   33.6990 C.3    92  TYR92       0.1605
    116  C         11.2770   16.9210   35.1810 C.2    92  TYR92       0.2264
    117  O         10.8470   16.1210   35.9720 O.2    92  TYR92      -0.2867
    118  CB        11.9090   16.0610   32.9270 C.3    92  TYR92       0.0534
    119  CG        11.4540   15.4990   31.5630 C.ar   92  TYR92      -0.0201
    120  CD1       10.1590   14.9980   31.3580 C.ar   92  TYR92      -0.0009
    121  CD2       12.3710   15.4270   30.4970 C.ar   92  TYR92      -0.0009
    122  CE1        9.7660   14.4710   30.1240 C.ar   92  TYR92       0.0417
    123  CE2       11.9930   14.9230   29.2600 C.ar   92  TYR92       0.0417
    124  CZ        10.6830   14.4640   29.0800 C.ar   92  TYR92       0.1957
    125  OH        10.3550   13.9920   27.8830 O.3    92  TYR92      -0.2866
    126  N         -2.6760    2.2950   26.1680 N.3   116  ARG116     -0.1245
    127  CA        -2.2390    2.4370   24.7750 C.3   116  ARG116      0.1563
    128  C         -1.6110    1.1280   24.2800 C.2   116  ARG116      0.2260
    129  O         -1.8770    0.7170   23.1810 O.2   116  ARG116     -0.2867
    130  CB        -1.3770    3.6830   24.5180 C.3   116  ARG116      0.0307
    131  CG        -2.2210    5.0190   24.4480 C.3   116  ARG116      0.0489
    132  CD        -1.3940    6.2480   25.0750 C.3   116  ARG116      0.2205
    133  NE        -0.1720    6.4100   24.2780 N.pl3 116  ARG116     -0.0865
    134  CZ         0.8760    7.1450   24.6220 C.cat 116  ARG116      0.5346
    135  NH1        0.8900    7.8250   25.7710 N.pl3 116  ARG116      0.1354
    136  NH2        1.9330    7.1830   23.8170 N.pl3 116  ARG116      0.1354
@<TRIPOS>BOND
     1    21    22    1
     2    28    26    1
     3    26    25    1
     4    26    27    1
     5    22    25    1
     6    22    23    1
     7    17    16    2
     8    16    15    1
     9    23    29   am
    10    23    24    2
    11    29    30    1
    12    32    31    2
    13    14    15    1
    14    15    18    1
    15    30    31    1
    16    30    33    1
    17   103   106    1
    18   103   104    1
    19   103   102    1
    20    99    98    2
    21   104   105    2
    22   109   110    2
    23   109   108    1
    24   107   108    1
    25     4     3    2
    26   108   111    1
    27    18    19    1
    28    18    20    1
    29    98   102   am
    30    98    97    1
    31    33    34    1
    32     3     2    1
    33    88    87    2
    34   111   112    1
    35   111   113    1
    36    97   100    1
    37    97    96    1
    38     1     2    1
    39    83    82   ar
    40     2     5    1
    41    35    36    1
    42    84    82   ar
    43   100   101    1
    44    87    96   am
    45    87    86    1
    46    82    81    1
    47     5     7    1
    48     5     6    1
    49    38    37    2
    50    89    86    1
    51    89    90    1
    52    36    37    1
    53    36    39    1
    54    86    85    1
    55    80    81    1
    56    80    77    1
    57    85    78   am
    58    40    39    1
    59    40    41    1
    60    40    42    1
    61     6     8    1
    62    90    91    1
    63    78    79    2
    64    78    77    1
    65    77    76    1
    66    91    92    1
    67    49    47    1
    68    50    48    1
    69   129   128    2
    70    92    93    2
    71    48    47    1
    72   136   134    1
    73    47    44    1
    74   133   134    2
    75   133   132    1
    76   128   127    1
    77   131   130    1
    78   131   132    1
    79   130   127    1
    80   134   135    1
    81    93    94    1
    82    93    95    1
    83   127   126    1
    84     9    10    1
    85    44    45    1
    86    44    43    1
    87    51    45   am
    88    51    52    1
    89    71    69    1
    90    13    10    1
    91    10    11    1
    92    45    46    2
    93    52    53    1
    94    62    61   ar
    95    68    69    1
    96    68    65    1
    97    69    70    1
    98    11    12    2
    99    53    55   am
   100    53    54    2
   101    63    61   ar
   102    55    56    1
   103    61    60    1
   104   125   124    1
   105    64    65    1
   106    64    57   am
   107    65    66    1
   108    72    73    1
   109    72    66   am
   110    73    74    1
   111    66    67    2
   112    56    57    1
   113    56    59    1
   114    60    59    1
   115    57    58    2
   116   124   123   ar
   117   124   122   ar
   118   123   121   ar
   119    74    75    2
   120   122   120   ar
   121   121   119   ar
   122   120   119   ar
   123   119   118    1
   124   118   115    1
   125   114   115    1
   126   115   116    1
   127   116   117    2
