@<TRIPOS>MOLECULE
tmp/4n9lA00.pdb
 123 115 0 0 0
SMALL
GASTEIGER

@<TRIPOS>ATOM
      1  N         29.3880   24.2130   77.8010 N.3    39  SER39      -0.1217
      2  CA        28.2850   23.9600   76.8270 C.3    39  SER39       0.1889
      3  C         27.5900   22.6020   76.9420 C.2    39  SER39       0.2288
      4  O         26.6440   22.3420   76.1670 O.2    39  SER39      -0.2866
      5  CB        28.8070   24.0460   75.4130 C.3    39  SER39       0.2089
      6  OG        29.0810   25.3820   75.1200 O.3    39  SER39      -0.2183
      7  N         29.6060   35.4010   71.0470 N.3    71  ASN71      -0.1225
      8  CA        30.9630   35.2150   70.5250 C.3    71  ASN71       0.1785
      9  C         31.0300   34.1470   69.4300 C.2    71  ASN71       0.2597
     10  O         31.9360   34.1860   68.5950 O.2    71  ASN71      -0.2718
     11  CB        31.9080   34.8470   71.6470 C.3    71  ASN71       0.1169
     12  CG        31.4940   33.5830   72.3660 C.2    71  ASN71       0.2627
     13  OD1       30.2950   33.2910   72.4900 O.2    71  ASN71      -0.2716
     14  ND2       32.4800   32.8200   72.8560 N.am   71  ASN71      -0.0877
     15  N         30.0670   33.2030   69.4690 N.am   72  TYR72      -0.1976
     16  CA        30.0740   31.9990   68.6720 C.3    72  TYR72       0.1639
     17  C         28.6680   31.5800   68.2530 C.2    72  TYR72       0.2290
     18  O         27.9290   30.9510   69.0020 O.2    72  TYR72      -0.2864
     19  CB        30.7580   30.8570   69.4160 C.3    72  TYR72       0.0560
     20  CG        31.0060   29.6730   68.5030 C.ar   72  TYR72      -0.0198
     21  CD1       31.7060   29.8420   67.3080 C.ar   72  TYR72      -0.0009
     22  CD2       30.5050   28.4040   68.7990 C.ar   72  TYR72      -0.0009
     23  CE1       31.9180   28.7820   66.4410 C.ar   72  TYR72       0.0417
     24  CE2       30.7310   27.3280   67.9590 C.ar   72  TYR72       0.0417
     25  CZ        31.4310   27.5170   66.7820 C.ar   72  TYR72       0.1957
     26  OH        31.6480   26.4780   65.9100 O.3    72  TYR72      -0.2866
     27  N         26.8180   23.7530   68.9580 N.3    97  SER97      -0.1217
     28  CA        27.0990   24.5170   70.1630 C.3    97  SER97       0.1889
     29  C         26.9370   26.0030   69.9040 C.2    97  SER97       0.2288
     30  O         27.7520   26.8080   70.2990 O.2    97  SER97      -0.2866
     31  CB        28.5090   24.1570   70.7270 C.3    97  SER97       0.2089
     32  OG        28.5890   24.2200   72.1400 O.3    97  SER97      -0.2183
     33  N         25.9230   29.5480   70.6560 N.3    99  ASN99      -0.1240
     34  CA        25.6800   30.2250   71.9360 C.3    99  ASN99       0.1653
     35  C         24.4510   31.0390   71.9160 C.2    99  ASN99       0.2266
     36  O         23.6520   30.9310   72.8170 O.2    99  ASN99      -0.2867
     37  CB        26.8790   31.0370   72.3630 C.3    99  ASN99       0.1155
     38  CG        28.0040   30.1530   72.8090 C.2    99  ASN99       0.2627
     39  OD1       27.7610   28.9650   73.2060 O.2    99  ASN99      -0.2716
     40  ND2       29.2400   30.6740   72.7550 N.am   99  ASN99      -0.0877
     41  N         25.1750   32.4480   77.9730 N.3   133  SER133     -0.1203
     42  CA        26.4050   32.0110   77.3090 C.3   133  SER133      0.2005
     43  C         27.0340   33.2120   76.5180 C.2   133  SER133      0.2460
     44  O         26.3170   34.0730   76.0050 O.2   133  SER133     -0.2732
     45  CB        26.0850   30.8410   76.3630 C.3   133  SER133      0.2103
     46  OG        27.2770   30.2540   75.8750 O.3   133  SER133     -0.2182
     47  N         28.3690   33.2820   76.4220 N.am  134  PRO134     -0.2728
     48  CA        29.3450   32.3680   76.9830 C.3   134  PRO134      0.1401
     49  C         29.7430   32.6420   78.4380 C.2   134  PRO134      0.2269
     50  O         30.4800   31.8430   78.9470 O.2   134  PRO134     -0.2865
     51  CB        30.5470   32.6260   76.0970 C.3   134  PRO134      0.0296
     52  CG        30.4840   34.1230   75.9130 C.3   134  PRO134      0.0237
     53  CD        29.0340   34.4110   75.7350 C.3   134  PRO134      0.0939
     54  N         28.8370   31.9150   81.2430 N.3   136  LEU136     -0.1231
     55  CA        28.8090   30.7010   82.0640 C.3   136  LEU136      0.1693
     56  C         30.1680   29.9450   82.1170 C.2   136  LEU136      0.2592
     57  O         30.4440   29.2380   83.0900 O.2   136  LEU136     -0.2718
     58  CB        27.6700   29.7590   81.6440 C.3   136  LEU136      0.0284
     59  CG        27.6270   29.2400   80.2040 C.3   136  LEU136      0.0019
     60  CD1       28.3170   27.8820   80.0210 C.3   136  LEU136      0.0001
     61  CD2       26.1900   29.1400   79.7580 C.3   136  LEU136      0.0001
     62  N         31.0210   30.1380   81.1140 N.am  137  ASN137     -0.1974
     63  CA        32.2870   29.4210   81.0710 C.3   137  ASN137      0.1688
     64  C         33.3990   30.0300   81.9630 C.2   137  ASN137      0.2292
     65  O         34.4890   29.4950   82.0080 O.2   137  ASN137     -0.2864
     66  CB        32.7570   29.1950   79.6060 C.3   137  ASN137      0.1181
     67  CG        33.3310   30.4520   78.9580 C.2   137  ASN137      0.2629
     68  OD1       33.7100   31.4020   79.6300 O.2   137  ASN137     -0.2716
     69  ND2       33.3790   30.4620   77.6310 N.am  137  ASN137     -0.0877
     70  N         30.5070   18.4930   66.7900 N.3   183  THR183     -0.1218
     71  CA        31.6020   19.0790   67.5740 C.3   183  THR183      0.1862
     72  C         32.4230   18.0780   68.3830 C.2   183  THR183      0.2287
     73  O         33.4010   18.4720   69.0170 O.2   183  THR183     -0.2866
     74  CB        31.1010   20.1880   68.5730 C.3   183  THR183      0.1770
     75  OG1       30.3480   19.6180   69.6500 O.3   183  THR183     -0.2211
     76  CG2       30.2740   21.2400   67.8630 C.3   183  THR183      0.0375
     77  N         29.5700   18.3990   73.7840 N.3   202  THR202     -0.1203
     78  CA        30.8650   18.8490   74.2730 C.3   202  THR202      0.1994
     79  C         30.8300   20.2080   75.0260 C.2   202  THR202      0.2618
     80  O         29.8380   20.8990   75.0550 O.2   202  THR202     -0.2717
     81  CB        31.7960   19.0400   73.0760 C.3   202  THR202      0.1784
     82  OG1       31.1410   19.8850   72.1480 O.3   202  THR202     -0.2211
     83  CG2       32.0730   17.7150   72.3690 C.3   202  THR202      0.0376
     84  N         31.9490   20.5690   75.6120 N.am  203  GLY203     -0.1942
     85  CA        32.0920   21.8220   76.2490 C.3   203  GLY203      0.2014
     86  C         33.5610   22.0850   76.5410 C.2   203  GLY203      0.2638
     87  O         34.3510   21.1460   76.6150 O.2   203  GLY203     -0.2714
     88  N         33.8840   23.3780   76.6860 N.am  204  ALA204     -0.1977
     89  CA        35.1750   23.8820   77.0760 C.3   204  ALA204      0.1597
     90  C         34.9380   25.1600   77.8450 C.2   204  ALA204      0.2287
     91  O         33.9810   25.8740   77.5870 O.2   204  ALA204     -0.2864
     92  CB        36.0170   24.1860   75.8660 C.3   204  ALA204      0.0319
     93  N         37.6100   20.9930   79.7920 N.3   210  ARG210     -0.1245
     94  CA        37.2780   20.2990   78.5750 C.3   210  ARG210      0.1563
     95  C         36.4060   19.0940   78.8900 C.2   210  ARG210      0.2260
     96  O         36.8520   18.1720   79.5500 O.2   210  ARG210     -0.2867
     97  CB        38.5520   19.8600   77.8650 C.3   210  ARG210      0.0307
     98  CG        38.3310   19.3250   76.4420 C.3   210  ARG210      0.0489
     99  CD        37.5050   20.3130   75.5830 C.3   210  ARG210      0.2205
    100  NE        37.5490   20.0160   74.1260 N.pl3 210  ARG210     -0.0865
    101  CZ        36.6250   20.3890   73.2430 C.cat 210  ARG210      0.5346
    102  NH1       35.5290   21.0430   73.6250 N.pl3 210  ARG210      0.1354
    103  NH2       36.7740   20.0750   71.9550 N.pl3 210  ARG210      0.1354
    104  N         43.5110   23.0370   76.7650 N.3   239  TYR239     -0.1241
    105  CA        43.1590   21.6410   76.9420 C.3   239  TYR239      0.1605
    106  C         43.6880   20.7250   75.8250 C.2   239  TYR239      0.2264
    107  O         44.1440   21.1730   74.7710 O.2   239  TYR239     -0.2867
    108  CB        41.6460   21.4650   77.0450 C.3   239  TYR239      0.0534
    109  CG        40.9580   21.9690   75.8350 C.ar  239  TYR239     -0.0201
    110  CD1       40.8930   21.1980   74.6860 C.ar  239  TYR239     -0.0009
    111  CD2       40.3760   23.2310   75.8270 C.ar  239  TYR239     -0.0009
    112  CE1       40.2600   21.6720   73.5490 C.ar  239  TYR239      0.0417
    113  CE2       39.7250   23.7090   74.7150 C.ar  239  TYR239      0.0417
    114  CZ        39.6800   22.9280   73.5770 C.ar  239  TYR239      0.1957
    115  OH        39.0390   23.4070   72.4610 O.3   239  TYR239     -0.2866
    116  N         41.9980   17.4510   73.7820 N.3   241  ASP241     -0.1239
    117  CA        40.9240   16.5390   73.4240 C.3   241  ASP241      0.1674
    118  C         41.3130   15.0620   73.5920 C.2   241  ASP241      0.2266
    119  O         40.4540   14.2240   73.8600 O.2   241  ASP241     -0.2867
    120  CB        40.5680   16.6620   71.9400 C.3   241  ASP241      0.1410
    121  CG        39.8250   17.9300   71.5880 C.2   241  ASP241      0.3668
    122  OD1       39.2730   18.6260   72.4450 O.co2 241  ASP241     -0.2456
    123  OD2       39.7850   18.2300   70.3660 O.co2 241  ASP241     -0.2456
@<TRIPOS>BOND
     1    26    25    1
     2    23    25   ar
     3    23    21   ar
     4    25    24   ar
     5    70    71    1
     6    21    20   ar
     7    71    72    1
     8    71    74    1
     9    76    74    1
    10    24    22   ar
    11    17    16    1
    12    17    18    2
    13    72    73    2
    14    20    22   ar
    15    20    19    1
    16    74    75    1
    17    10     9    2
    18    16    19    1
    19    16    15    1
    20    27    28    1
    21     9    15   am
    22     9     8    1
    23    29    28    1
    24    29    30    2
    25    28    31    1
    26   123   121   ar
    27     8     7    1
    28     8    11    1
    29    33    34    1
    30    31    32    1
    31   121   120    1
    32   121   122   ar
    33    11    12    1
    34    35    34    1
    35    35    36    2
    36    34    37    1
    37   120   117    1
    38   103   101    1
    39    82    81    1
    40    37    38    1
    41    12    13    2
    42    12    14   am
    43    83    81    1
    44   115   114    1
    45    40    38   am
    46    38    39    2
    47    81    78    1
    48   101   102    1
    49   101   100    2
    50   117   118    1
    51   117   116    1
    52   112   114   ar
    53   112   110   ar
    54   114   113   ar
    55   118   119    2
    56    77    78    1
    57   100    99    1
    58    78    79    1
    59   110   109   ar
    60   113   111   ar
    61   107   106    2
    62    79    80    2
    63    79    84   am
    64     6     5    1
    65     5     2    1
    66    99    98    1
    67    84    85    1
    68    53    52    1
    69    53    47    1
    70   106   105    1
    71   111   109   ar
    72   109   108    1
    73    92    89    1
    74    46    45    1
    75    52    51    1
    76    44    43    2
    77    51    48    1
    78     4     3    2
    79    85    86    1
    80    45    42    1
    81    47    43   am
    82    47    48    1
    83    98    97    1
    84    43    42    1
    85    86    87    2
    86    86    88   am
    87    88    89    1
    88   104   105    1
    89     2     3    1
    90     2     1    1
    91   105   108    1
    92    48    49    1
    93    89    90    1
    94    42    41    1
    95    91    90    2
    96    69    67   am
    97    97    94    1
    98    49    50    2
    99    94    95    1
   100    94    93    1
   101    95    96    2
   102    67    66    1
   103    67    68    2
   104    66    63    1
   105    61    59    1
   106    60    59    1
   107    59    58    1
   108    63    62    1
   109    63    64    1
   110    62    56   am
   111    54    55    1
   112    58    55    1
   113    64    65    2
   114    55    56    1
   115    56    57    2
