@<TRIPOS>MOLECULE
tmp/4n9qB01.pdb
 81 77 0 0 0
SMALL
GASTEIGER

@<TRIPOS>ATOM
      1  N         29.7820   -8.7990   20.7430 N.3    96  MET96      -0.1245
      2  CA        30.3840   -9.5280   19.6400 C.3    96  MET96       0.1570
      3  C         30.3070  -11.0140   19.9610 C.2    96  MET96       0.2261
      4  O         30.8760  -11.4690   20.9530 O.2    96  MET96      -0.2867
      5  CB        31.8360   -9.1000   19.4050 C.3    96  MET96       0.0387
      6  CG        32.6060  -10.0420   18.4840 C.3    96  MET96       0.0595
      7  SD        34.2550   -9.4530   18.0540 S.3    96  MET96      -0.1393
      8  CE        33.8610   -8.1800   16.8600 C.3    96  MET96       0.0692
      9  N         31.3130  -14.5420   18.3160 N.3    98  ASN98      -0.1225
     10  CA        32.1390  -15.1870   17.3070 C.3    98  ASN98       0.1785
     11  C         32.3980  -14.2920   16.1020 C.2    98  ASN98       0.2597
     12  O         32.1050  -14.6560   14.9610 O.2    98  ASN98      -0.2718
     13  CB        31.4900  -16.5010   16.8840 C.3    98  ASN98       0.1169
     14  CG        31.3790  -17.4760   18.0390 C.2    98  ASN98       0.2627
     15  OD1       32.3860  -17.9910   18.5220 O.2    98  ASN98      -0.2716
     16  ND2       30.1580  -17.7180   18.5020 N.am   98  ASN98      -0.0877
     17  N         32.9440  -13.1130   16.3900 N.am   99  PHE99      -0.1976
     18  CA        33.3570  -12.1460   15.3760 C.3    99  PHE99       0.1639
     19  C         32.1810  -11.5550   14.6070 C.2    99  PHE99       0.2290
     20  O         32.3680  -10.9470   13.5540 O.2    99  PHE99      -0.2864
     21  CB        34.3390  -12.7920   14.3980 C.3    99  PHE99       0.0560
     22  CG        35.4960  -13.4720   15.0660 C.ar   99  PHE99      -0.0200
     23  CD1       36.4870  -12.7280   15.6820 C.ar   99  PHE99      -0.0042
     24  CD2       35.5950  -14.8530   15.0790 C.ar   99  PHE99      -0.0042
     25  CE1       37.5520  -13.3470   16.2990 C.ar   99  PHE99      -0.0003
     26  CE2       36.6610  -15.4780   15.6940 C.ar   99  PHE99      -0.0003
     27  CZ        37.6430  -14.7240   16.2990 C.ar   99  PHE99      -0.0000
     28  N         34.8630   -9.1400   24.4480 N.3   138  GLY138     -0.1210
     29  CA        35.7570   -9.7590   25.4080 C.3   138  GLY138      0.1956
     30  C         37.2130   -9.4750   25.0900 C.2   138  GLY138      0.2612
     31  O         38.0120   -9.1980   25.9840 O.2   138  GLY138     -0.2717
     32  N         37.5510   -9.5380   23.8060 N.am  139  GLY139     -0.1942
     33  CA        38.9220   -9.3740   23.3580 C.3   139  GLY139      0.2014
     34  C         39.3270   -7.9270   23.1510 C.2   139  GLY139      0.2638
     35  O         38.6880   -7.0160   23.6740 O.2   139  GLY139     -0.2714
     36  N         40.3930   -7.7280   22.3790 N.am  140  HIS140     -0.1973
     37  CA        40.9510   -6.4010   22.1260 C.3   140  HIS140      0.1656
     38  C         41.2730   -6.1850   20.6500 C.2   140  HIS140      0.2291
     39  O         41.5200   -7.1370   19.9110 O.2   140  HIS140     -0.2864
     40  CB        42.2300   -6.1920   22.9450 C.3   140  HIS140      0.0771
     41  CG        41.9670   -6.0980   24.4340 C.ar  140  HIS140      0.0820
     42  ND1       41.3070   -5.0950   25.0630 N.ar  140  HIS140     -0.2267
     43  CD2       42.5680   -6.8380   25.4170 C.ar  140  HIS140      0.1154
     44  CE1       41.3440   -5.2540   26.3670 C.ar  140  HIS140      0.1986
     45  NE2       42.0780   -6.3340   26.5940 N.ar  140  HIS140     -0.2212
     46  N         39.5960   -4.7560   17.9480 N.3   142  PHE142     -0.1241
     47  CA        38.6420   -4.9720   16.8630 C.3   142  PHE142      0.1605
     48  C         38.1650   -3.6510   16.2540 C.2   142  PHE142      0.2264
     49  O         37.4550   -3.6450   15.2480 O.2   142  PHE142     -0.2867
     50  CB        37.4430   -5.7850   17.3630 C.3   142  PHE142      0.0534
     51  CG        37.7750   -7.2160   17.6950 C.ar  142  PHE142     -0.0203
     52  CD1       37.9820   -8.1440   16.6860 C.ar  142  PHE142     -0.0042
     53  CD2       37.8740   -7.6340   19.0130 C.ar  142  PHE142     -0.0042
     54  CE1       38.2860   -9.4610   16.9850 C.ar  142  PHE142     -0.0003
     55  CE2       38.1770   -8.9500   19.3180 C.ar  142  PHE142     -0.0003
     56  CZ        38.3840   -9.8640   18.3020 C.ar  142  PHE142     -0.0000
     57  N         43.2640   -6.5670   15.2180 N.3   148  ASN148     -0.1240
     58  CA        42.2570   -7.5460   14.8140 C.3   148  ASN148      0.1653
     59  C         41.0480   -6.9120   14.1330 C.2   148  ASN148      0.2266
     60  O         39.9420   -7.4430   14.2050 O.2   148  ASN148     -0.2867
     61  CB        41.7890   -8.3440   16.0330 C.3   148  ASN148      0.1155
     62  CG        42.9330   -9.0060   16.7680 C.2   148  ASN148      0.2627
     63  OD1       43.8290   -9.5840   16.1520 O.2   148  ASN148     -0.2716
     64  ND2       42.9140   -8.9200   18.0930 N.am  148  ASN148     -0.0877
     65  N         39.0120   -8.9150   11.4700 N.3   151  MET151     -0.1245
     66  CA        38.2030  -10.0180   11.9740 C.3   151  MET151      0.1570
     67  C         36.8220   -9.5440   12.4160 C.2   151  MET151      0.2261
     68  O         35.9340  -10.3570   12.6620 O.2   151  MET151     -0.2867
     69  CB        38.9040  -10.7040   13.1480 C.3   151  MET151      0.0387
     70  CG        40.3100  -11.1830   12.8460 C.3   151  MET151      0.0595
     71  SD        41.0880  -11.9230   14.2930 S.3   151  MET151     -0.1393
     72  CE        40.3180  -13.5390   14.3010 C.3   151  MET151      0.0692
     73  N         36.8340   -7.7550   28.1760 N.3   178  GLU178     -0.1245
     74  CA        35.9210   -8.4600   29.0620 C.3   178  GLU178      0.1567
     75  C         36.1860   -9.9580   29.0220 C.2   178  GLU178      0.2260
     76  O         37.0720  -10.4610   29.7090 O.2   178  GLU178     -0.2867
     77  CB        34.4780   -8.1710   28.6620 C.3   178  GLU178      0.0388
     78  CG        33.4780   -8.3450   29.7870 C.3   178  GLU178      0.1160
     79  CD        33.0240   -9.7790   29.9380 C.2   178  GLU178      0.3649
     80  OE1       33.3530  -10.5990   29.0570 O.co2 178  GLU178     -0.2457
     81  OE2       32.3440  -10.0840   30.9390 O.co2 178  GLU178     -0.2457
@<TRIPOS>BOND
     1    65    66    1
     2    66    67    1
     3    66    69    1
     4    67    68    2
     5    70    69    1
     6    70    71    1
     7    20    19    2
     8    59    60    2
     9    59    58    1
    10    71    72    1
    11    21    22    1
    12    21    18    1
    13    19    18    1
    14    58    57    1
    15    58    61    1
    16    12    11    2
    17    22    24   ar
    18    22    23   ar
    19    24    26   ar
    20    49    48    2
    21    18    17    1
    22    23    25   ar
    23    26    27   ar
    24    61    62    1
    25    11    17   am
    26    11    10    1
    27    63    62    2
    28    48    47    1
    29    25    27   ar
    30    52    54   ar
    31    52    51   ar
    32    62    64   am
    33     8     7    1
    34    47    50    1
    35    47    46    1
    36    13    10    1
    37    13    14    1
    38    54    56   ar
    39    10     9    1
    40    50    51    1
    41    51    53   ar
    42    14    16   am
    43    14    15    2
    44     7     6    1
    45    56    55   ar
    46     6     5    1
    47    53    55   ar
    48     5     2    1
    49     2     3    1
    50     2     1    1
    51    39    38    2
    52     3     4    2
    53    38    37    1
    54    37    36    1
    55    37    40    1
    56    36    34   am
    57    40    41    1
    58    34    33    1
    59    34    35    2
    60    33    32    1
    61    32    30   am
    62    41    42   ar
    63    41    43   ar
    64    28    29    1
    65    42    44   ar
    66    30    29    1
    67    30    31    2
    68    43    45   ar
    69    44    45   ar
    70    73    74    1
    71    77    74    1
    72    77    78    1
    73    75    74    1
    74    75    76    2
    75    80    79   ar
    76    78    79    1
    77    79    81   ar
