@<TRIPOS>MOLECULE
tmp/4n9yA00.pdb
 84 81 0 0 0
SMALL
GASTEIGER

@<TRIPOS>ATOM
      1  N         -6.5810   41.6930  -10.4530 N.3    28  PRO28      -0.2116
      2  CA        -7.5560   42.1710  -11.4250 C.3    28  PRO28       0.1372
      3  C         -7.1400   43.5100  -12.0380 C.2    28  PRO28       0.2244
      4  O         -6.4200   44.2820  -11.4210 O.2    28  PRO28      -0.2868
      5  CB        -8.8460   42.3000  -10.6080 C.3    28  PRO28       0.0268
      6  CG        -8.4080   42.4360   -9.1980 C.3    28  PRO28       0.0207
      7  CD        -7.1180   41.6770   -9.0810 C.3    28  PRO28       0.0892
      8  N        -10.4860   38.4500  -12.3810 N.3    34  VAL34      -0.1245
      9  CA        -9.9490   37.3970  -11.5250 C.3    34  VAL34       0.1561
     10  C        -11.0060   37.0960  -10.4740 C.2    34  VAL34       0.2260
     11  O        -11.3490   37.9760   -9.6870 O.2    34  VAL34      -0.2867
     12  CB        -8.6280   37.8440  -10.8640 C.3    34  VAL34       0.0252
     13  CG1       -8.0210   36.7280  -10.0230 C.3    34  VAL34       0.0019
     14  CG2       -7.6390   38.3030  -11.9320 C.3    34  VAL34       0.0019
     15  N        -11.0690   34.7890   -8.0210 N.3    36  VAL36      -0.1231
     16  CA       -10.6040   34.1540   -6.8020 C.3    36  VAL36       0.1692
     17  C         -9.7550   35.1000   -5.9480 C.2    36  VAL36       0.2592
     18  O         -9.1780   36.0820   -6.4430 O.2    36  VAL36      -0.2718
     19  CB        -9.7920   32.8800   -7.1040 C.3    36  VAL36       0.0266
     20  CG1      -10.6110   31.9070   -7.9270 C.3    36  VAL36       0.0020
     21  CG2       -8.4980   33.2130   -7.8210 C.3    36  VAL36       0.0020
     22  N         -9.6840   34.7820   -4.6620 N.am   37  ARG37      -0.1966
     23  CA        -8.8790   35.5330   -3.7110 C.3    37  ARG37       0.1729
     24  C         -7.4070   35.2540   -3.9330 C.2    37  ARG37       0.2616
     25  O         -6.9030   34.1870   -3.5680 O.2    37  ARG37      -0.2715
     26  CB        -9.2650   35.1560   -2.2820 C.3    37  ARG37       0.0348
     27  CG       -10.6210   35.6930   -1.8620 C.3    37  ARG37       0.0492
     28  CD       -10.5270   37.1640   -1.5200 C.3    37  ARG37       0.2205
     29  NE        -9.5930   37.4080   -0.4150 N.pl3  37  ARG37      -0.0865
     30  CZ        -9.9020   37.3360    0.8810 C.cat  37  ARG37       0.5346
     31  NH1      -11.1300   37.0260    1.2740 N.pl3  37  ARG37       0.1354
     32  NH2       -8.9680   37.5800    1.8010 N.pl3  37  ARG37       0.1354
     33  N         -6.7190   36.2270   -4.5210 N.am   38  VAL38      -0.1963
     34  CA        -5.3200   36.0640   -4.8690 C.3    38  VAL38       0.1727
     35  C         -4.4070   36.0500   -3.6440 C.2    38  VAL38       0.2616
     36  O         -3.3410   35.4430   -3.6810 O.2    38  VAL38      -0.2715
     37  CB        -4.8500   37.1490   -5.8630 C.3    38  VAL38       0.0290
     38  CG1       -3.3620   36.9930   -6.1520 C.3    38  VAL38       0.0023
     39  CG2       -5.6520   37.0570   -7.1590 C.3    38  VAL38       0.0023
     40  N         -4.8120   36.7120   -2.5660 N.am   39  ASP39      -0.1971
     41  CA        -4.0150   36.7100   -1.3340 C.3    39  ASP39       0.1709
     42  C         -4.0990   35.3600   -0.6180 C.2    39  ASP39       0.2293
     43  O         -3.2170   35.0180    0.1700 O.2    39  ASP39      -0.2864
     44  CB        -4.4550   37.8320   -0.3790 C.3    39  ASP39       0.1436
     45  CG        -5.9450   37.7980   -0.0790 C.2    39  ASP39       0.3671
     46  OD1       -6.7350   37.5970   -1.0300 O.co2  39  ASP39      -0.2456
     47  OD2       -6.3330   37.9730    1.0950 O.co2  39  ASP39      -0.2456
     48  N        -13.6030   35.3520   -4.8330 N.3    50  PHE50      -0.1241
     49  CA       -13.8870   36.7660   -4.5710 C.3    50  PHE50       0.1605
     50  C        -15.0030   37.2160   -5.5180 C.2    50  PHE50       0.2264
     51  O        -14.9340   36.9420   -6.7110 O.2    50  PHE50      -0.2867
     52  CB       -12.6590   37.6700   -4.7410 C.3    50  PHE50       0.0534
     53  CG       -12.9650   39.1240   -4.5000 C.ar   50  PHE50      -0.0203
     54  CD1      -13.0190   39.6310   -3.2050 C.ar   50  PHE50      -0.0042
     55  CD2      -13.2700   39.9700   -5.5560 C.ar   50  PHE50      -0.0042
     56  CE1      -13.3430   40.9540   -2.9740 C.ar   50  PHE50      -0.0003
     57  CE2      -13.5910   41.2980   -5.3310 C.ar   50  PHE50      -0.0003
     58  CZ       -13.6270   41.7920   -4.0350 C.ar   50  PHE50      -0.0000
     59  N        -16.6840   37.3800   -1.3980 N.3    52  THR52      -0.1203
     60  CA       -16.9770   36.3150   -0.4480 C.3    52  THR52       0.1994
     61  C        -18.3560   35.7130   -0.6960 C.2    52  THR52       0.2617
     62  O        -18.5110   34.4970   -0.6520 O.2    52  THR52      -0.2717
     63  CB       -16.8450   36.8330    0.9900 C.3    52  THR52       0.1784
     64  OG1      -15.5080   37.3040    1.1810 O.3    52  THR52      -0.2211
     65  CG2      -17.1490   35.7450    2.0110 C.3    52  THR52       0.0376
     66  N        -19.3380   36.5660   -0.9830 N.am   53  HIS53      -0.1975
     67  CA       -20.7170   36.1390   -1.2090 C.3    53  HIS53       0.1656
     68  C        -21.1750   36.4600   -2.6290 C.2    53  HIS53       0.2291
     69  O        -20.6130   37.3360   -3.2900 O.2    53  HIS53      -0.2864
     70  CB       -21.6510   36.8130   -0.2020 C.3    53  HIS53       0.0771
     71  CG       -21.2780   36.5620    1.2270 C.ar   53  HIS53       0.0820
     72  ND1      -21.4900   35.3490    1.8510 N.ar   53  HIS53      -0.2267
     73  CD2      -20.7030   37.3670    2.1540 C.ar   53  HIS53       0.1154
     74  CE1      -21.0670   35.4180    3.1020 C.ar   53  HIS53       0.1986
     75  NE2      -20.5860   36.6320    3.3120 N.ar   53  HIS53      -0.2212
     76  N        -18.5890   35.9870   -8.3870 N.3   154  GLN154     -0.1245
     77  CA       -18.3240   37.1820   -9.1770 C.3   154  GLN154      0.1566
     78  C        -18.9210   37.0090  -10.5690 C.2   154  GLN154      0.2260
     79  O        -18.7580   35.9520  -11.1740 O.2   154  GLN154     -0.2867
     80  CB       -16.8140   37.4240   -9.2880 C.3   154  GLN154      0.0367
     81  CG       -16.4400   38.6740  -10.0670 C.3   154  GLN154      0.0905
     82  CD       -14.9640   39.0340   -9.9840 C.2   154  GLN154      0.2608
     83  OE1      -14.2830   38.7440   -9.0020 O.2   154  GLN154     -0.2717
     84  NE2      -14.4660   39.6830  -11.0210 N.am  154  GLN154     -0.0878
@<TRIPOS>BOND
     1     8     9    1
     2     3     2    1
     3     3     4    2
     4    14    12    1
     5     9    12    1
     6     9    10    1
     7     2     5    1
     8     2     1    1
     9    79    78    2
    10    84    82   am
    11    12    13    1
    12     5     6    1
    13    78    77    1
    14    10    11    2
    15     1     7    1
    16    81    82    1
    17    81    80    1
    18    82    83    2
    19    80    77    1
    20     6     7    1
    21    77    76    1
    22    15    16    1
    23    20    19    1
    24    21    19    1
    25    39    37    1
    26    19    16    1
    27    16    17    1
    28    51    50    2
    29    18    17    2
    30    38    37    1
    31    17    22   am
    32    37    34    1
    33    55    57   ar
    34    55    53   ar
    35    50    49    1
    36    57    58   ar
    37    34    33    1
    38    34    35    1
    39    48    49    1
    40    52    49    1
    41    52    53    1
    42    22    23    1
    43    33    24   am
    44    53    54   ar
    45    58    56   ar
    46    24    23    1
    47    24    25    2
    48    23    26    1
    49    36    35    2
    50    35    40   am
    51    69    68    2
    52    54    56   ar
    53    68    67    1
    54    40    41    1
    55    26    27    1
    56    27    28    1
    57    28    29    1
    58    59    60    1
    59    41    42    1
    60    41    44    1
    61    67    66    1
    62    67    70    1
    63    46    45   ar
    64    66    61   am
    65    61    62    2
    66    61    60    1
    67    42    43    2
    68    60    63    1
    69    29    30    2
    70    44    45    1
    71    70    71    1
    72    45    47   ar
    73    30    31    1
    74    30    32    1
    75    63    64    1
    76    63    65    1
    77    71    72   ar
    78    71    73   ar
    79    72    74   ar
    80    73    75   ar
    81    74    75   ar
