@<TRIPOS>MOLECULE
tmp/4na0A00.pdb
 195 189 0 0 0
SMALL
GASTEIGER

@<TRIPOS>ATOM
      1  N         54.0420   30.6570  111.3300 N.3   259  THR259     -0.1203
      2  CA        54.6020   31.3700  110.1890 C.3   259  THR259      0.1994
      3  C         55.0400   30.3950  109.0970 C.2   259  THR259      0.2618
      4  O         55.2450   29.2100  109.3450 O.2   259  THR259     -0.2717
      5  CB        55.7930   32.2540  110.6110 C.3   259  THR259      0.1784
      6  OG1       56.7860   31.4600  111.2680 O.3   259  THR259     -0.2211
      7  CG2       55.3410   33.3520  111.5480 C.3   259  THR259      0.0376
      8  N         55.1790   30.9040  107.8820 N.am  260  ILE260     -0.1965
      9  CA        55.5110   30.0670  106.7230 C.3   260  ILE260      0.1727
     10  C         56.7580   29.2160  106.9770 C.2   260  ILE260      0.2616
     11  O         56.7710   28.0070  106.7320 O.2   260  ILE260     -0.2715
     12  CB        55.7520   30.9260  105.4810 C.3   260  ILE260      0.0290
     13  CG1       54.4480   31.5810  105.0240 C.3   260  ILE260      0.0022
     14  CG2       56.3130   30.0860  104.3510 C.3   260  ILE260      0.0023
     15  CD1       54.6490   32.6230  103.9690 C.3   260  ILE260      0.0001
     16  N         57.8010   29.8680  107.4720 N.am  261  GLU261     -0.1977
     17  CA        59.0730   29.2130  107.7300 C.3   261  GLU261      0.1602
     18  C         59.0020   28.2220  108.8900 C.2   261  GLU261      0.2287
     19  O         59.5890   27.1440  108.8160 O.2   261  GLU261     -0.2864
     20  CB        60.1830   30.2480  107.9730 C.3   261  GLU261      0.0415
     21  CG        60.0240   31.1550  109.2090 C.3   261  GLU261      0.1163
     22  CD        59.1570   32.3680  108.9430 C.2   261  GLU261      0.3649
     23  OE1       58.0570   32.1990  108.3770 O.co2 261  GLU261     -0.2457
     24  OE2       59.5780   33.4890  109.2950 O.co2 261  GLU261     -0.2457
     25  N         57.3550   36.7930   99.6340 N.3   271  PHE271     -0.1227
     26  CA        56.6290   37.9250   99.0490 C.3   271  PHE271      0.1736
     27  C         57.6240   38.9720   98.5620 C.2   271  PHE271      0.2595
     28  O         57.9010   39.9570   99.2360 O.2   271  PHE271     -0.2718
     29  CB        55.6240   38.5390  100.0470 C.3   271  PHE271      0.0547
     30  CG        54.7750   37.5250  100.7720 C.ar  271  PHE271     -0.0202
     31  CD1       54.4430   36.3020  100.1910 C.ar  271  PHE271     -0.0042
     32  CD2       54.3130   37.7920  102.0450 C.ar  271  PHE271     -0.0042
     33  CE1       53.6740   35.3850  100.8740 C.ar  271  PHE271     -0.0003
     34  CE2       53.5450   36.8760  102.7240 C.ar  271  PHE271     -0.0003
     35  CZ        53.2300   35.6700  102.1380 C.ar  271  PHE271     -0.0000
     36  N         58.1120   38.7670   97.3500 N.am  272  ALA272     -0.1966
     37  CA        59.2540   39.5000   96.8390 C.3   272  ALA272      0.1728
     38  C         58.9610   40.8840   96.2820 C.2   272  ALA272      0.2616
     39  O         57.8160   41.2650   96.0310 O.2   272  ALA272     -0.2715
     40  CB        59.9540   38.6750   95.7640 C.3   272  ALA272      0.0334
     41  N         60.0490   41.6310   96.1350 N.am  273  ASN273     -0.1972
     42  CA        60.1450   42.7420   95.2250 C.3   273  ASN273      0.1688
     43  C         60.6180   42.1320   93.9020 C.2   273  ASN273      0.2292
     44  O         61.1890   41.0490   93.8970 O.2   273  ASN273     -0.2864
     45  CB        61.1580   43.7510   95.7620 C.3   273  ASN273      0.1181
     46  CG        61.1960   45.0200   94.9570 C.2   273  ASN273      0.2629
     47  OD1       61.7130   45.0390   93.8390 O.2   273  ASN273     -0.2716
     48  ND2       60.6500   46.1030   95.5230 N.am  273  ASN273     -0.0877
     49  N         64.5950   42.3720   97.8360 N.3   278  GLY278     -0.1210
     50  CA        64.0820   43.6770   98.2500 C.3   278  GLY278      0.1956
     51  C         65.1950   44.5780   98.7350 C.2   278  GLY278      0.2612
     52  O         66.1980   44.7380   98.0440 O.2   278  GLY278     -0.2717
     53  N         65.0210   45.1530   99.9250 N.am  279  GLY279     -0.1956
     54  CA        66.0570   45.9610  100.5650 C.3   279  GLY279      0.1869
     55  C         66.8710   45.2500  101.6430 C.2   279  GLY279      0.2309
     56  O         67.3330   45.8960  102.5850 O.2   279  GLY279     -0.2863
     57  N         65.2530   47.5360  104.2200 N.3   284  GLY284     -0.1225
     58  CA        64.0630   46.6860  104.3000 C.3   284  GLY284      0.1811
     59  C         64.2090   45.6280  105.3800 C.2   284  GLY284      0.2280
     60  O         65.2520   44.9880  105.4600 O.2   284  GLY284     -0.2866
     61  N         61.1410   43.4220  106.3330 N.3   286  VAL286     -0.1231
     62  CA        59.8090   42.8150  106.3200 C.3   286  VAL286      0.1692
     63  C         59.9280   41.3320  105.8790 C.2   286  VAL286      0.2592
     64  O         61.0410   40.8090  105.8280 O.2   286  VAL286     -0.2718
     65  CB        58.8400   43.7040  105.4600 C.3   286  VAL286      0.0266
     66  CG1       58.2730   42.9760  104.2650 C.3   286  VAL286      0.0020
     67  CG2       57.7410   44.2860  106.3280 C.3   286  VAL286      0.0020
     68  N         58.8090   40.6520  105.6120 N.am  287  GLN287     -0.1966
     69  CA        58.7990   39.1920  105.3920 C.3   287  GLN287      0.1733
     70  C         59.9470   38.6650  104.5250 C.2   287  GLN287      0.2616
     71  O         60.6790   37.7760  104.9570 O.2   287  GLN287     -0.2715
     72  CB        57.4570   38.7290  104.8010 C.3   287  GLN287      0.0408
     73  CG        57.2500   37.2060  104.8010 C.3   287  GLN287      0.0908
     74  CD        57.4660   36.5250  103.4390 C.2   287  GLN287      0.2608
     75  OE1       58.1000   37.0690  102.5260 O.2   287  GLN287     -0.2717
     76  NE2       56.9290   35.3220  103.3110 N.am  287  GLN287     -0.0878
     77  N         60.1040   39.2130  103.3190 N.am  288  GLU288     -0.1963
     78  CA        61.1470   38.7490  102.4070 C.3   288  GLU288      0.1733
     79  C         62.5210   38.9640  103.0170 C.2   288  GLU288      0.2616
     80  O         63.3190   38.0250  103.1040 O.2   288  GLU288     -0.2715
     81  CB        61.0910   39.4470  101.0340 C.3   288  GLU288      0.0429
     82  CG        62.2740   39.0370  100.1570 C.3   288  GLU288      0.1163
     83  CD        62.1530   39.4310   98.6890 C.2   288  GLU288      0.3649
     84  OE1       61.8650   40.6070   98.3990 O.co2 288  GLU288     -0.2457
     85  OE2       62.3920   38.5630   97.8200 O.co2 288  GLU288     -0.2457
     86  N         62.7930   40.1970  103.4350 N.am  289  GLU289     -0.1963
     87  CA        64.1080   40.5300  103.9800 C.3   289  GLU289      0.1733
     88  C         64.4470   39.7090  105.2230 C.2   289  GLU289      0.2616
     89  O         65.6030   39.3420  105.4170 O.2   289  GLU289     -0.2715
     90  CB        64.2190   42.0260  104.3030 C.3   289  GLU289      0.0429
     91  CG        64.1430   42.9380  103.0800 C.3   289  GLU289      0.1163
     92  CD        62.7420   43.4590  102.7870 C.2   289  GLU289      0.3649
     93  OE1       61.7650   42.9230  103.3420 O.co2 289  GLU289     -0.2457
     94  OE2       62.6170   44.4130  101.9900 O.co2 289  GLU289     -0.2457
     95  N         63.4580   39.4440  106.0740 N.am  290  ILE290     -0.1977
     96  CA        63.6800   38.5800  107.2330 C.3   290  ILE290      0.1596
     97  C         64.0570   37.1870  106.7100 C.2   290  ILE290      0.2287
     98  O         65.0620   36.6050  107.1080 O.2   290  ILE290     -0.2864
     99  CB        62.4350   38.5010  108.1480 C.3   290  ILE290      0.0276
    100  CG1       62.1810   39.8430  108.8340 C.3   290  ILE290      0.0022
    101  CG2       62.6090   37.4500  109.2150 C.3   290  ILE290      0.0022
    102  CD1       60.9050   39.8740  109.6530 C.3   290  ILE290      0.0001
    103  N         64.3650   34.4630  114.9360 N.3   325  TYR325     -0.1241
    104  CA        64.0500   35.8760  115.1680 C.3   325  TYR325      0.1605
    105  C         62.7560   36.0880  115.9310 C.2   325  TYR325      0.2264
    106  O         61.7560   35.4090  115.6800 O.2   325  TYR325     -0.2867
    107  CB        63.9370   36.6200  113.8350 C.3   325  TYR325      0.0534
    108  CG        62.6970   36.2510  113.0500 C.ar  325  TYR325     -0.0201
    109  CD1       62.6190   35.0430  112.3720 C.ar  325  TYR325     -0.0009
    110  CD2       61.5920   37.0930  113.0200 C.ar  325  TYR325     -0.0009
    111  CE1       61.4830   34.6850  111.6790 C.ar  325  TYR325      0.0417
    112  CE2       60.4480   36.7450  112.3270 C.ar  325  TYR325      0.0417
    113  CZ        60.4050   35.5380  111.6540 C.ar  325  TYR325      0.1957
    114  OH        59.2830   35.1760  110.9500 O.3   325  TYR325     -0.2866
    115  N         59.3080   42.0700  114.2830 N.3   328  TYR328     -0.1241
    116  CA        58.9920   42.3560  112.8910 C.3   328  TYR328      0.1605
    117  C         59.3220   43.8080  112.5820 C.2   328  TYR328      0.2264
    118  O         58.9340   44.7120  113.3250 O.2   328  TYR328     -0.2867
    119  CB        57.5100   42.0990  112.6480 C.3   328  TYR328      0.0534
    120  CG        57.0730   42.1250  111.1990 C.ar  328  TYR328     -0.0201
    121  CD1       56.4620   43.2570  110.6600 C.ar  328  TYR328     -0.0009
    122  CD2       57.2260   41.0110  110.3820 C.ar  328  TYR328     -0.0009
    123  CE1       56.0310   43.2940  109.3400 C.ar  328  TYR328      0.0417
    124  CE2       56.8020   41.0340  109.0470 C.ar  328  TYR328      0.0417
    125  CZ        56.1950   42.1880  108.5330 C.ar  328  TYR328      0.1957
    126  OH        55.7630   42.2400  107.2170 O.3   328  TYR328     -0.2866
    127  N         54.0680   40.3710   94.2960 N.3   359  ALA359     -0.1245
    128  CA        52.7610   41.0060   94.1160 C.3   359  ALA359      0.1562
    129  C         52.9730   42.3700   93.4940 C.2   359  ALA359      0.2260
    130  O         54.0940   42.8560   93.4400 O.2   359  ALA359     -0.2867
    131  CB        52.0380   41.1600   95.4460 C.3   359  ALA359      0.0290
    132  N         50.7170   33.0380  102.6550 N.3   401  GLY401     -0.1210
    133  CA        49.9670   33.9120  103.5490 C.3   401  GLY401      0.1956
    134  C         49.4590   35.1720  102.8690 C.2   401  GLY401      0.2611
    135  O         49.0980   35.1370  101.7040 O.2   401  GLY401     -0.2717
    136  N         49.4490   36.2840  103.6000 N.am  402  ASN402     -0.1974
    137  CA        48.9200   37.5700  103.1170 C.3   402  ASN402      0.1688
    138  C         49.7750   38.2070  102.0190 C.2   402  ASN402      0.2292
    139  O         50.2050   39.3530  102.1360 O.2   402  ASN402     -0.2864
    140  CB        48.7920   38.5600  104.2790 C.3   402  ASN402      0.1181
    141  CG        47.8890   38.0530  105.4010 C.2   402  ASN402      0.2629
    142  OD1       46.9670   37.2730  105.1630 O.2   402  ASN402     -0.2716
    143  ND2       48.1550   38.5030  106.6340 N.am  402  ASN402     -0.0877
    144  N         51.3490   40.2260   99.2340 N.3   404  GLY404     -0.1210
    145  CA        51.0370   41.5730   98.7390 C.3   404  GLY404      0.1956
    146  C         50.2200   42.4940   99.6410 C.2   404  GLY404      0.2612
    147  O         49.8400   43.5750   99.2080 O.2   404  GLY404     -0.2717
    148  N         49.9680   42.0960  100.8890 N.am  405  CYS405     -0.1956
    149  CA        48.9450   42.7520  101.7100 C.3   405  CYS405      0.1843
    150  C         49.4730   43.5060  102.9310 C.2   405  CYS405      0.2626
    151  O         48.7190   43.7850  103.8680 O.2   405  CYS405     -0.2714
    152  CB        47.8930   41.7300  102.1540 C.3   405  CYS405      0.0997
    153  SG        46.9860   40.9600  100.7950 S.3   405  CYS405     -0.0797
    154  N         50.7530   43.8530  102.9190 N.am  406  GLY406     -0.1940
    155  CA        51.2990   44.7880  103.9000 C.3   406  GLY406      0.2014
    156  C         51.8930   45.9960  103.2030 C.2   406  GLY406      0.2639
    157  O         51.2060   46.9810  102.9510 O.2   406  GLY406     -0.2714
    158  N         53.1750   45.8880  102.8660 N.am  407  ALA407     -0.1963
    159  CA        53.8970   46.9430  102.1590 C.3   407  ALA407      0.1728
    160  C         53.2770   47.2840  100.7920 C.2   407  ALA407      0.2616
    161  O         53.3880   48.4150  100.3370 O.2   407  ALA407     -0.2715
    162  CB        55.3770   46.5540  102.0030 C.3   407  ALA407      0.0334
    163  N         52.6010   46.3200  100.1690 N.am  408  PHE408     -0.1974
    164  CA        52.1040   46.4660   98.7970 C.3   408  PHE408      0.1639
    165  C         50.5900   46.7070   98.6780 C.2   408  PHE408      0.2290
    166  O         50.0280   46.6260   97.5820 O.2   408  PHE408     -0.2864
    167  CB        52.5410   45.2410   97.9750 C.3   408  PHE408      0.0560
    168  CG        53.9110   45.3800   97.3290 C.ar  408  PHE408     -0.0200
    169  CD1       54.7890   46.4100   97.6760 C.ar  408  PHE408     -0.0042
    170  CD2       54.3220   44.4630   96.3720 C.ar  408  PHE408     -0.0042
    171  CE1       56.0320   46.5270   97.0640 C.ar  408  PHE408     -0.0003
    172  CE2       55.5660   44.5700   95.7680 C.ar  408  PHE408     -0.0003
    173  CZ        56.4210   45.6000   96.1140 C.ar  408  PHE408     -0.0000
    174  N         48.7580   31.0130  106.1570 N.3   433  PHE433     -0.1241
    175  CA        49.0780   31.6470  107.4230 C.3   433  PHE433      0.1605
    176  C         48.5880   33.0950  107.3970 C.2   433  PHE433      0.2264
    177  O         49.0280   33.8990  106.5680 O.2   433  PHE433     -0.2867
    178  CB        50.5800   31.5480  107.6890 C.3   433  PHE433      0.0534
    179  CG        51.0610   30.1340  107.8920 C.ar  433  PHE433     -0.0203
    180  CD1       51.0610   29.5660  109.1520 C.ar  433  PHE433     -0.0042
    181  CD2       51.5080   29.3700  106.8160 C.ar  433  PHE433     -0.0042
    182  CE1       51.4940   28.2630  109.3460 C.ar  433  PHE433     -0.0003
    183  CE2       51.9500   28.0680  107.0010 C.ar  433  PHE433     -0.0003
    184  CZ        51.9420   27.5140  108.2680 C.ar  433  PHE433     -0.0000
    185  N         48.7010   35.1980  110.0230 N.3   435  PHE435     -0.1241
    186  CA        49.6410   36.0210  110.7870 C.3   435  PHE435      0.1605
    187  C         48.9540   36.8150  111.9000 C.2   435  PHE435      0.2264
    188  O         49.1520   38.0270  112.0270 O.2   435  PHE435     -0.2867
    189  CB        50.4130   36.9540  109.8360 C.3   435  PHE435      0.0534
    190  CG        51.7720   37.3570  110.3420 C.ar  435  PHE435     -0.0203
    191  CD1       52.8040   36.4310  110.4020 C.ar  435  PHE435     -0.0042
    192  CD2       52.0250   38.6620  110.7420 C.ar  435  PHE435     -0.0042
    193  CE1       54.0630   36.7980  110.8620 C.ar  435  PHE435     -0.0003
    194  CE2       53.2810   39.0370  111.2000 C.ar  435  PHE435     -0.0003
    195  CZ        54.2990   38.1070  111.2630 C.ar  435  PHE435     -0.0000
@<TRIPOS>BOND
     1   130   129    2
     2   129   128    1
     3    47    46    2
     4    44    43    2
     5    43    42    1
     6   128   127    1
     7   128   131    1
     8    46    48   am
     9    46    45    1
    10    42    45    1
    11    42    41    1
    12    40    37    1
    13   172   173   ar
    14   172   170   ar
    15    39    38    2
    16   173   171   ar
    17    41    38   am
    18    38    37    1
    19   170   168   ar
    20    37    36    1
    21   171   169   ar
    22   168   169   ar
    23   168   167    1
    24    36    27   am
    25   166   165    2
    26    85    83   ar
    27    49    50    1
    28   167   164    1
    29    52    51    2
    30    50    51    1
    31    84    83   ar
    32    27    26    1
    33    27    28    2
    34   165   164    1
    35    83    82    1
    36    51    53   am
    37   145   144    1
    38   145   146    1
    39   164   163    1
    40    26    25    1
    41    26    29    1
    42   147   146    2
    43   146   148   am
    44    53    54    1
    45    29    30    1
    46    82    81    1
    47   163   160   am
    48    31    30   ar
    49    31    33   ar
    50   161   160    2
    51    54    55    1
    52    30    32   ar
    53   160   159    1
    54   153   152    1
    55    33    35   ar
    56   148   149    1
    57    81    78    1
    58    55    56    2
    59   135   134    2
    60   149   152    1
    61   149   150    1
    62    94    92   ar
    63   162   159    1
    64   138   139    2
    65   138   137    1
    66    32    34   ar
    67    35    34   ar
    68   159   158    1
    69    78    79    1
    70    78    77    1
    71    75    74    2
    72   132   133    1
    73    92    91    1
    74    92    93   ar
    75   158   156   am
    76   134   133    1
    77   134   136   am
    78   154   150   am
    79   154   155    1
    80   150   151    2
    81   157   156    2
    82    79    80    2
    83    79    86   am
    84    91    90    1
    85   137   136    1
    86   137   140    1
    87   156   155    1
    88    76    74   am
    89    77    70   am
    90    86    87    1
    91    74    73    1
    92    15    13    1
    93    87    90    1
    94    87    88    1
    95    57    58    1
    96    66    65    1
    97   140   141    1
    98    58    59    1
    99    14    12    1
   100    70    71    2
   101    70    69    1
   102    73    72    1
   103    72    69    1
   104    13    12    1
   105   142   141    2
   106    88    89    2
   107    88    95   am
   108    59    60    2
   109    69    68    1
   110   141   143   am
   111    65    62    1
   112    65    67    1
   113    12     9    1
   114    68    63   am
   115    64    63    2
   116    63    62    1
   117    95    96    1
   118   174   175    1
   119    62    61    1
   120   177   176    2
   121    97    98    2
   122    97    96    1
   123     9    10    1
   124     9     8    1
   125    11    10    2
   126   181   183   ar
   127   181   179   ar
   128    10    16   am
   129   183   184   ar
   130   126   125    1
   131    96    99    1
   132   176   175    1
   133   175   178    1
   134    16    17    1
   135   178   179    1
   136    17    20    1
   137    17    18    1
   138     8     3   am
   139   179   180   ar
   140    20    21    1
   141    99   100    1
   142    99   101    1
   143   184   182   ar
   144    23    22   ar
   145   125   124   ar
   146   125   123   ar
   147    19    18    2
   148   100   102    1
   149    22    21    1
   150    22    24   ar
   151   124   122   ar
   152     3     4    2
   153     3     2    1
   154   180   182   ar
   155   123   121   ar
   156   189   190    1
   157   189   186    1
   158   185   186    1
   159     2     5    1
   160     2     1    1
   161   190   191   ar
   162   190   192   ar
   163   122   120   ar
   164   191   193   ar
   165     5     6    1
   166     5     7    1
   167   121   120   ar
   168   192   194   ar
   169   186   187    1
   170   193   195   ar
   171   114   113    1
   172   120   119    1
   173   194   195   ar
   174   113   111   ar
   175   113   112   ar
   176   111   109   ar
   177   187   188    2
   178   112   110   ar
   179   109   108   ar
   180   117   116    1
   181   117   118    2
   182   119   116    1
   183   116   115    1
   184   110   108   ar
   185   108   107    1
   186   107   104    1
   187   103   104    1
   188   104   105    1
   189   106   105    2
