@<TRIPOS>MOLECULE
tmp/4na7A00.pdb
 213 210 0 0 0
SMALL
GASTEIGER

@<TRIPOS>ATOM
      1  N        -10.7530   27.7720   35.6080 N.3    26  ARG26      -0.1231
      2  CA        -9.8270   28.1510   34.5550 C.3    26  ARG26       0.1694
      3  C         -9.6960   27.0380   33.5810 C.2    26  ARG26       0.2592
      4  O         -9.5370   25.8860   33.9710 O.2    26  ARG26      -0.2718
      5  CB        -8.4340   28.3940   35.1940 C.3    26  ARG26       0.0321
      6  CG        -7.4280   29.2200   34.3950 C.3    26  ARG26       0.0489
      7  CD        -7.0290   30.4630   35.1720 C.3    26  ARG26       0.2205
      8  NE        -8.1580   31.3870   35.3460 N.pl3  26  ARG26      -0.0865
      9  CZ        -8.3330   32.1610   36.4100 C.cat  26  ARG26       0.5346
     10  NH1       -7.4440   32.1550   37.3980 N.pl3  26  ARG26       0.1354
     11  NH2       -9.4030   32.9470   36.4970 N.pl3  26  ARG26       0.1354
     12  N         -9.6640   27.3920   32.3160 N.am   27  HIS27      -0.1962
     13  CA        -9.4410   26.4620   31.2380 C.3    27  HIS27       0.1787
     14  C         -7.9820   26.0560   31.2670 C.2    27  HIS27       0.2620
     15  O         -7.0770   26.8940   31.4120 O.2    27  HIS27      -0.2715
     16  CB        -9.7590   27.1590   29.9220 C.3    27  HIS27       0.0785
     17  CG        -9.2260   26.4950   28.6880 C.ar   27  HIS27       0.0821
     18  ND1       -9.9930   25.5860   27.9900 N.ar   27  HIS27      -0.2267
     19  CD2       -8.0620   26.7000   28.0080 C.ar   27  HIS27       0.1154
     20  CE1       -9.2520   25.2080   26.9610 C.ar   27  HIS27       0.1986
     21  NE2       -8.0940   25.8750   26.9130 N.ar   27  HIS27      -0.2212
     22  N         -7.7600   24.7690   31.0880 N.am   28  LEU28      -0.1963
     23  CA        -6.4510   24.1790   31.0230 C.3    28  LEU28       0.1728
     24  C         -6.0520   23.7670   29.5830 C.2    28  LEU28       0.2616
     25  O         -5.0200   24.2050   29.0570 O.2    28  LEU28      -0.2715
     26  CB        -6.3740   22.9930   31.9820 C.3    28  LEU28       0.0311
     27  CG        -5.0640   22.1880   31.9140 C.3    28  LEU28       0.0022
     28  CD1       -3.8440   23.0320   32.3950 C.3    28  LEU28       0.0001
     29  CD2       -5.1970   20.8700   32.6740 C.3    28  LEU28       0.0001
     30  N         -6.8810   22.9300   28.9520 N.am   29  CYS29      -0.1968
     31  CA        -6.6120   22.3740   27.6210 C.3    29  CYS29       0.1712
     32  C         -7.9030   21.9740   26.9410 C.2    29  CYS29       0.2296
     33  O         -8.9480   21.9080   27.5850 O.2    29  CYS29      -0.2864
     34  CB        -5.6850   21.1710   27.7690 C.3    29  CYS29       0.0983
     35  SG        -3.9110   21.5990   27.7270 S.3    29  CYS29      -0.0798
     36  N          1.1150   16.7410   27.4360 N.3    44  HIS44      -0.1226
     37  CA         1.7980   17.9120   28.0160 C.3    44  HIS44       0.1752
     38  C          0.9330   18.7920   28.8990 C.2    44  HIS44       0.2596
     39  O          1.4540   19.5570   29.7070 O.2    44  HIS44      -0.2718
     40  CB         2.5280   18.7320   26.9480 C.3    44  HIS44       0.0759
     41  CG         1.6300   19.5610   26.1010 C.ar   44  HIS44       0.0818
     42  ND1        1.3430   19.1980   24.7970 N.ar   44  HIS44      -0.2268
     43  CD2        0.9940   20.7200   26.3870 C.ar   44  HIS44       0.1154
     44  CE1        0.5420   20.1430   24.3340 C.ar   44  HIS44       0.1986
     45  NE2        0.3130   21.0810   25.2560 N.ar   44  HIS44      -0.2212
     46  N         -0.3920   18.7040   28.7330 N.am   45  CYS45      -0.1970
     47  CA        -1.3560   19.4950   29.4990 C.3    45  CYS45       0.1712
     48  C         -1.3240   19.2040   30.9560 C.2    45  CYS45       0.2296
     49  O         -1.7850   20.0200   31.7630 O.2    45  CYS45      -0.2864
     50  CB        -2.7470   19.2530   28.9550 C.3    45  CYS45       0.0983
     51  SG        -2.9650   19.8610   27.2860 S.3    45  CYS45      -0.0798
     52  N          1.2850   18.4800   33.1220 N.3    47  TYR47      -0.1241
     53  CA         2.3380   18.7140   34.1070 C.3    47  TYR47       0.1605
     54  C          1.7750   19.4800   35.3090 C.2    47  TYR47       0.2264
     55  O          0.9420   20.3840   35.1660 O.2    47  TYR47      -0.2867
     56  CB         3.6330   19.2960   33.5560 C.3    47  TYR47       0.0534
     57  CG         3.6870   20.8000   33.4410 C.ar   47  TYR47      -0.0201
     58  CD1        4.0060   21.5960   34.5410 C.ar   47  TYR47      -0.0009
     59  CD2        3.5740   21.4190   32.2080 C.ar   47  TYR47      -0.0009
     60  CE1        4.1500   22.9770   34.4180 C.ar   47  TYR47       0.0417
     61  CE2        3.7480   22.7900   32.0690 C.ar   47  TYR47       0.0417
     62  CZ         3.9900   23.5750   33.1780 C.ar   47  TYR47       0.1957
     63  OH         4.1120   24.9410   33.0010 O.3    47  TYR47      -0.2866
     64  N          7.7250   17.9130   21.6500 N.3    89  GLU89      -0.1245
     65  CA         8.6140   17.8850   20.4810 C.3    89  GLU89       0.1567
     66  C          9.1860   16.5140   20.1610 C.2    89  GLU89       0.2260
     67  O          9.6610   16.3270   19.0270 O.2    89  GLU89      -0.2867
     68  CB         9.7300   18.9440   20.5740 C.3    89  GLU89       0.0388
     69  CG         9.1750   20.3550   20.4070 C.3    89  GLU89       0.1160
     70  CD        10.0170   21.6130   20.5710 C.2    89  GLU89       0.3649
     71  OE1        9.4060   22.6890   20.7810 O.co2  89  GLU89      -0.2457
     72  OE2       11.2270   21.5720   20.2500 O.co2  89  GLU89      -0.2457
     73  N         -5.0100   31.2080   22.4610 N.3   134  TYR134     -0.1241
     74  CA        -4.5940   32.5600   22.0740 C.3   134  TYR134      0.1605
     75  C         -4.8440   32.8190   20.5740 C.2   134  TYR134      0.2264
     76  O         -4.7280   31.8960   19.7570 O.2   134  TYR134     -0.2867
     77  CB        -3.0850   32.7450   22.3190 C.3   134  TYR134      0.0534
     78  CG        -2.6060   32.7660   23.7510 C.ar  134  TYR134     -0.0201
     79  CD1       -3.4400   32.3690   24.8010 C.ar  134  TYR134     -0.0009
     80  CD2       -1.3180   33.1840   24.0640 C.ar  134  TYR134     -0.0009
     81  CE1       -2.9840   32.3570   26.1210 C.ar  134  TYR134      0.0417
     82  CE2       -0.8550   33.1860   25.3800 C.ar  134  TYR134      0.0417
     83  CZ        -1.6950   32.7800   26.4060 C.ar  134  TYR134      0.1957
     84  OH        -1.2490   32.7200   27.7010 O.3   134  TYR134     -0.2866
     85  N          0.6220   35.2950   19.6320 N.3   137  LEU137     -0.1231
     86  CA         1.6220   34.8410   20.6060 C.3   137  LEU137      0.1693
     87  C          1.4370   35.3570   22.0310 C.2   137  LEU137      0.2591
     88  O          1.5460   34.5720   22.9870 O.2   137  LEU137     -0.2718
     89  CB         3.0580   35.1010   20.1100 C.3   137  LEU137      0.0284
     90  CG         3.6780   34.0520   19.1820 C.3   137  LEU137      0.0019
     91  CD1        3.5530   34.4690   17.7390 C.3   137  LEU137      0.0001
     92  CD2        5.1580   33.8360   19.4840 C.3   137  LEU137      0.0001
     93  N          1.2020   36.6730   22.1730 N.am  138  ARG138     -0.1980
     94  CA         1.0090   37.2750   23.4950 C.3   138  ARG138      0.1597
     95  C         -0.4580   37.6570   23.6190 C.2   138  ARG138      0.2287
     96  O         -0.8860   38.6990   23.0910 O.2   138  ARG138     -0.2864
     97  CB         1.9560   38.4730   23.7090 C.3   138  ARG138      0.0334
     98  CG         3.4250   38.0780   23.5940 C.3   138  ARG138      0.0492
     99  CD         4.0380   37.6810   24.9340 C.3   138  ARG138      0.2205
    100  NE         3.2920   36.6410   25.6190 N.pl3 138  ARG138     -0.0865
    101  CZ         3.3860   35.3610   25.2590 C.cat 138  ARG138      0.5346
    102  NH1        4.1670   34.9920   24.2450 N.pl3 138  ARG138      0.1354
    103  NH2        2.7250   34.4400   25.9530 N.pl3 138  ARG138      0.1354
    104  N         -6.6270   33.3300   26.9070 N.3   141  ILE141     -0.1245
    105  CA        -7.6680   32.3780   26.5410 C.3   141  ILE141      0.1561
    106  C         -8.9010   33.1490   26.0850 C.2   141  ILE141      0.2260
    107  O         -9.2650   34.1580   26.7010 O.2   141  ILE141     -0.2867
    108  CB        -7.9710   31.4230   27.7300 C.3   141  ILE141      0.0252
    109  CG1       -6.7240   30.5560   28.0830 C.3   141  ILE141      0.0019
    110  CG2       -9.3000   30.5860   27.5460 C.3   141  ILE141      0.0019
    111  CD1       -6.1960   29.7890   27.0310 C.3   141  ILE141      0.0001
    112  N         -3.5790   28.9340   12.4440 N.3   182  ASP182     -0.1225
    113  CA        -2.8860   27.8980   13.2120 C.3   182  ASP182      0.1805
    114  C         -3.5020   27.7690   14.5920 C.2   182  ASP182      0.2598
    115  O         -4.2900   28.6070   15.0140 O.2   182  ASP182     -0.2718
    116  CB        -1.4080   28.3280   13.3940 C.3   182  ASP182      0.1424
    117  CG        -0.4030   27.2690   13.8110 C.2   182  ASP182      0.3668
    118  OD1       -0.7850   26.0790   13.9070 O.co2 182  ASP182     -0.2456
    119  OD2        0.7780   27.6160   13.9810 O.co2 182  ASP182     -0.2456
    120  N         -3.0850   26.7420   15.3210 N.am  183  ALA183     -0.1966
    121  CA        -3.4470   26.6080   16.7100 C.3   183  ALA183      0.1728
    122  C         -2.4420   27.4670   17.4740 C.2   183  ALA183      0.2616
    123  O         -1.4260   27.8970   16.9020 O.2   183  ALA183     -0.2715
    124  CB        -3.3270   25.1600   17.1420 C.3   183  ALA183      0.0334
    125  N         -2.7100   27.7210   18.7580 N.am  184  CYS184     -0.1954
    126  CA        -1.7840   28.4700   19.5930 C.3   184  CYS184      0.1843
    127  C         -1.9390   28.0010   21.0850 C.2   184  CYS184      0.2625
    128  O         -2.6000   26.9950   21.3320 O.2   184  CYS184     -0.2714
    129  CB        -1.9680   29.9830   19.3990 C.3   184  CYS184      0.0997
    130  SG        -0.4770   30.9690   19.6840 S.3   184  CYS184     -0.0797
    131  N         -1.2510   28.6550   22.0530 N.am  185  LYS185     -0.1963
    132  CA        -1.3260   28.3050   23.4740 C.3   185  LYS185      0.1728
    133  C         -2.7870   28.2780   23.9510 C.2   185  LYS185      0.2616
    134  O         -3.5330   29.2400   23.7630 O.2   185  LYS185     -0.2715
    135  CB        -0.5930   29.3450   24.3110 C.3   185  LYS185      0.0311
    136  CG         0.8800   29.1880   24.3980 C.3   185  LYS185      0.0038
    137  CD         1.3830   29.8650   25.6720 C.3   185  LYS185      0.0206
    138  CE         2.8960   30.0700   25.6830 C.3   185  LYS185      0.1093
    139  NZ         3.4250   30.4640   27.0350 N.3   185  LYS185     -0.1314
    140  N         -3.1660   27.1960   24.6020 N.am  186  GLY186     -0.1955
    141  CA        -4.5200   27.0130   25.1260 C.3   186  GLY186      0.1869
    142  C         -5.3520   26.0910   24.2690 C.2   186  GLY186      0.2309
    143  O         -6.3820   25.5980   24.7180 O.2   186  GLY186     -0.2863
    144  N         -3.9750   23.3200   22.8030 N.3   188  SER188     -0.1217
    145  CA        -3.4580   21.9650   22.9110 C.3   188  SER188      0.1889
    146  C         -4.4230   21.0070   23.5490 C.2   188  SER188      0.2288
    147  O         -5.1990   21.3580   24.4560 O.2   188  SER188     -0.2866
    148  CB        -2.1090   21.8680   23.6070 C.3   188  SER188      0.2089
    149  OG        -1.3330   23.0200   23.8550 O.3   188  SER188     -0.2183
    150  N         -3.9350   18.6610   18.8640 N.3   206  THR206     -0.1203
    151  CA        -3.0740   19.8480   18.9090 C.3   206  THR206      0.1994
    152  C         -1.9040   19.6600   19.9110 C.2   206  THR206      0.2619
    153  O         -2.1340   19.3710   21.0970 O.2   206  THR206     -0.2717
    154  CB        -3.9110   21.0390   19.1970 C.3   206  THR206      0.1784
    155  OG1       -4.9610   21.0900   18.2320 O.3   206  THR206     -0.2211
    156  CG2       -3.0890   22.2980   19.1960 C.3   206  THR206      0.0376
    157  N         -0.6660   19.8060   19.4170 N.am  207  SER207     -0.1937
    158  CA         0.5400   19.5270   20.1890 C.3   207  SER207      0.2055
    159  C          1.5340   20.6650   20.3180 C.2   207  SER207      0.2643
    160  O          1.6580   21.1820   21.4200 O.2   207  SER207     -0.2714
    161  CB         1.2130   18.2650   19.6480 C.3   207  SER207      0.2130
    162  OG         2.2720   17.8380   20.4800 O.3   207  SER207     -0.2179
    163  N          2.2590   21.0420   19.2270 N.am  208  TRP208     -0.1959
    164  CA         3.2850   22.0930   19.2690 C.3   208  TRP208      0.1771
    165  C          3.5790   22.7170   17.9160 C.2   208  TRP208      0.2620
    166  O          3.0420   22.2760   16.9230 O.2   208  TRP208     -0.2715
    167  CB         4.5810   21.5110   19.8490 C.3   208  TRP208      0.0590
    168  CG         5.2460   20.4810   18.9870 C.ar  208  TRP208      0.0006
    169  CD1        4.9560   19.1500   18.9450 C.ar  208  TRP208      0.0946
    170  CD2        6.3380   20.6880   18.0500 C.ar  208  TRP208      0.0152
    171  NE1        5.7990   18.5090   18.0610 N.ar  208  TRP208     -0.2442
    172  CE2        6.6590   19.4300   17.4990 C.ar  208  TRP208      0.0810
    173  CE3        7.1030   21.8130   17.6500 C.ar  208  TRP208      0.0012
    174  CZ2        7.6810   19.2690   16.5440 C.ar  208  TRP208      0.0191
    175  CZ3        8.1210   21.6500   16.7190 C.ar  208  TRP208      0.0001
    176  CH2        8.3950   20.3930   16.1700 C.ar  208  TRP208      0.0015
    177  N          4.4590   23.7110   17.8910 N.am  209  GLY209     -0.1954
    178  CA         4.9140   24.3760   16.6730 C.3   209  GLY209      0.1869
    179  C          5.9400   25.4290   17.0120 C.2   209  GLY209      0.2309
    180  O          6.1450   25.7210   18.1860 O.2   209  GLY209     -0.2863
    181  N          6.3110   28.9450   17.2590 N.3   211  GLY211     -0.1210
    182  CA         5.4650   30.1280   17.3190 C.3   211  GLY211      0.1956
    183  C          4.0780   29.7630   16.8420 C.2   211  GLY211      0.2612
    184  O          3.7410   28.5820   16.8300 O.2   211  GLY211     -0.2717
    185  N          3.2680   30.7540   16.4360 N.am  212  CYS212     -0.1970
    186  CA         1.9170   30.5130   15.9620 C.3   212  CYS212      0.1712
    187  C          1.6940   31.1830   14.6350 C.2   212  CYS212      0.2296
    188  O          1.9840   32.3760   14.4970 O.2   212  CYS212     -0.2864
    189  CB         0.8930   30.9740   16.9900 C.3   212  CYS212      0.0983
    190  SG         1.0430   30.1580   18.6040 S.3   212  CYS212     -0.0798
    191  N          1.7040   23.7370   12.0820 N.3   219  GLY219     -0.1210
    192  CA         1.4120   23.2230   13.4030 C.3   219  GLY219      0.1956
    193  C          1.6350   21.7370   13.3740 C.2   219  GLY219      0.2612
    194  O          1.3590   21.0880   12.3610 O.2   219  GLY219     -0.2717
    195  N          2.1700   21.1990   14.4890 N.am  220  VAL220     -0.1965
    196  CA         2.4550   19.7810   14.6700 C.3   220  VAL220      0.1727
    197  C          1.4160   19.2000   15.6320 C.2   220  VAL220      0.2616
    198  O          1.1150   19.7860   16.7000 O.2   220  VAL220     -0.2715
    199  CB         3.9300   19.5010   15.0650 C.3   220  VAL220      0.0290
    200  CG1        4.2240   17.9950   15.0660 C.3   220  VAL220      0.0023
    201  CG2        4.9240   20.2300   14.1260 C.3   220  VAL220      0.0023
    202  N          0.8140   18.0660   15.1910 N.am  221  TYR221     -0.1974
    203  CA        -0.2710   17.3870   15.8920 C.3   221  TYR221      0.1639
    204  C          0.0650   15.9440   16.1090 C.2   221  TYR221      0.2290
    205  O          0.8270   15.3880   15.3330 O.2   221  TYR221     -0.2864
    206  CB        -1.5380   17.4550   15.0250 C.3   221  TYR221      0.0560
    207  CG        -2.0280   18.8600   14.7620 C.ar  221  TYR221     -0.0198
    208  CD1       -1.4260   19.6620   13.7800 C.ar  221  TYR221     -0.0009
    209  CD2       -3.1100   19.3820   15.4700 C.ar  221  TYR221     -0.0009
    210  CE1       -1.8560   20.9640   13.5550 C.ar  221  TYR221      0.0417
    211  CE2       -3.5240   20.6930   15.2840 C.ar  221  TYR221      0.0417
    212  CZ        -2.9010   21.4780   14.3170 C.ar  221  TYR221      0.1957
    213  OH        -3.3540   22.7540   14.0940 O.3   221  TYR221     -0.2866
@<TRIPOS>BOND
     1   191   192    1
     2   194   193    2
     3   112   113    1
     4   113   116    1
     5   113   114    1
     6   193   192    1
     7   193   195   am
     8   116   117    1
     9   210   208   ar
    10   210   212   ar
    11   208   207   ar
    12   117   118   ar
    13   117   119   ar
    14   213   212    1
    15   201   199    1
    16   212   211   ar
    17   195   196    1
    18   188   187    2
    19   114   115    2
    20   114   120   am
    21   187   186    1
    22   196   199    1
    23   196   197    1
    24   207   206    1
    25   207   209   ar
    26   206   203    1
    27   199   200    1
    28   202   197   am
    29   202   203    1
    30   211   209   ar
    31   120   121    1
    32   205   204    2
    33   197   198    2
    34   203   204    1
    35   186   185    1
    36   186   189    1
    37   176   174   ar
    38   176   175   ar
    39   185   183   am
    40   174   172   ar
    41   178   179    1
    42   178   177    1
    43   121   124    1
    44   121   122    1
    45   175   173   ar
    46   184   183    2
    47   183   182    1
    48   123   122    2
    49   166   165    2
    50   189   190    1
    51   179   180    2
    52   181   182    1
    53   122   125   am
    54   172   170   ar
    55   172   171   ar
    56   173   170   ar
    57    91    90    1
    58   177   165   am
    59   165   164    1
    60   170   168   ar
    61   171   169   ar
    62   155   154    1
    63   190   130    1
    64   125   126    1
    65   150   151    1
    66   151   154    1
    67   151   152    1
    68   169   168   ar
    69   168   167    1
    70    67    66    2
    71    90    92    1
    72    90    89    1
    73   156   154    1
    74   163   164    1
    75   163   159   am
    76   164   167    1
    77   129   126    1
    78   129   130    1
    79   157   152   am
    80   157   158    1
    81   126   127    1
    82    85    86    1
    83   161   158    1
    84   161   162    1
    85    76    75    2
    86   152   153    2
    87    89    86    1
    88    66    65    1
    89   158   159    1
    90    72    70   ar
    91   159   160    2
    92    69    70    1
    93    69    68    1
    94    65    68    1
    95    65    64    1
    96    70    71   ar
    97    75    74    1
    98    86    87    1
    99   127   128    2
   100   127   131   am
   101    87    93   am
   102    87    88    2
   103   131   132    1
   104    74    77    1
   105    74    73    1
   106    93    94    1
   107    77    78    1
   108   144   145    1
   109   145   146    1
   110   145   148    1
   111    96    95    2
   112   132   133    1
   113   132   135    1
   114    94    95    1
   115    94    97    1
   116   146   147    2
   117    98    97    1
   118    98    99    1
   119   148   149    1
   120    78    80   ar
   121    78    79   ar
   122   134   133    2
   123   133   140   am
   124    80    82   ar
   125   102   101    1
   126   142   143    2
   127   142   141    1
   128   135   136    1
   129    44    42   ar
   130    44    45   ar
   131   136   137    1
   132   140   141    1
   133    42    41   ar
   134    79    81   ar
   135    99   100    1
   136    45    43   ar
   137   101   100    2
   138   101   103    1
   139    82    83   ar
   140   137   138    1
   141   138   139    1
   142   106   105    1
   143   106   107    2
   144    41    43   ar
   145    41    40    1
   146    81    83   ar
   147    83    84    1
   148   105   104    1
   149   105   108    1
   150    21    20   ar
   151    21    19   ar
   152    32    33    2
   153    32    31    1
   154    40    37    1
   155    20    18   ar
   156   111   109    1
   157    51    35    1
   158    51    50    1
   159    36    37    1
   160   110   108    1
   161    31    34    1
   162    31    30    1
   163    35    34    1
   164   108   109    1
   165    18    17   ar
   166    19    17   ar
   167    37    38    1
   168    17    16    1
   169    46    38   am
   170    46    47    1
   171    38    39    2
   172    30    24   am
   173    50    47    1
   174    25    24    2
   175    47    48    1
   176    24    23    1
   177    16    13    1
   178    48    49    2
   179    23    22    1
   180    23    26    1
   181    22    14   am
   182    13    14    1
   183    13    12    1
   184    14    15    2
   185    27    26    1
   186    27    28    1
   187    27    29    1
   188    61    59   ar
   189    61    62   ar
   190    59    57   ar
   191    12     3   am
   192    63    62    1
   193    52    53    1
   194    62    60   ar
   195    57    56    1
   196    57    58   ar
   197    56    53    1
   198     3     4    2
   199     3     2    1
   200    53    54    1
   201     6     7    1
   202     6     5    1
   203    60    58   ar
   204     2     5    1
   205     2     1    1
   206    55    54    2
   207     7     8    1
   208     8     9    2
   209     9    11    1
   210     9    10    1
