@<TRIPOS>MOLECULE
tmp/4na8A00.pdb
 218 216 0 0 0
SMALL
GASTEIGER

@<TRIPOS>ATOM
      1  N         49.6550  -27.2900   38.1190 N.3    26  ARG26      -0.1231
      2  CA        49.3460  -25.9340   37.6630 C.3    26  ARG26       0.1694
      3  C         47.8690  -25.6260   37.8520 C.2    26  ARG26       0.2592
      4  O         47.0620  -26.5500   37.9900 O.2    26  ARG26      -0.2718
      5  CB        49.7420  -25.7270   36.1810 C.3    26  ARG26       0.0321
      6  CG        48.8320  -26.4390   35.2180 C.3    26  ARG26       0.0489
      7  CD        49.2850  -26.4300   33.7830 C.3    26  ARG26       0.2205
      8  NE        48.3980  -27.2910   33.0020 N.pl3  26  ARG26      -0.0865
      9  CZ        47.2980  -26.8840   32.3800 C.cat  26  ARG26       0.5346
     10  NH1       46.9710  -25.5990   32.3690 N.pl3  26  ARG26       0.1354
     11  NH2       46.5370  -27.7540   31.7280 N.pl3  26  ARG26       0.1354
     12  N         47.5250  -24.3190   37.8180 N.am   27  HIS27      -0.1962
     13  CA        46.1550  -23.8390   37.8650 C.3    27  HIS27       0.1787
     14  C         45.5210  -24.1520   36.5160 C.2    27  HIS27       0.2620
     15  O         46.0940  -23.8240   35.4790 O.2    27  HIS27      -0.2715
     16  CB        46.1270  -22.3280   38.1010 C.3    27  HIS27       0.0785
     17  CG        44.8000  -21.6880   37.8060 C.ar   27  HIS27       0.0821
     18  ND1       43.8790  -21.4420   38.8110 N.ar   27  HIS27      -0.2267
     19  CD2       44.3110  -21.1980   36.6360 C.ar   27  HIS27       0.1154
     20  CE1       42.8580  -20.8390   38.2210 C.ar   27  HIS27       0.1986
     21  NE2       43.0660  -20.6890   36.9070 N.ar   27  HIS27      -0.2212
     22  N         44.3160  -24.7020   36.5470 N.am   28  LEU28      -0.1963
     23  CA        43.5310  -25.0530   35.3850 C.3    28  LEU28       0.1728
     24  C         42.3800  -24.0690   35.1580 C.2    28  LEU28       0.2616
     25  O         42.2120  -23.5420   34.0520 O.2    28  LEU28      -0.2715
     26  CB        42.9790  -26.4520   35.5970 C.3    28  LEU28       0.0311
     27  CG        42.2380  -27.0610   34.4380 C.3    28  LEU28       0.0022
     28  CD1       43.2080  -27.4720   33.3020 C.3    28  LEU28       0.0001
     29  CD2       41.3930  -28.2200   34.9120 C.3    28  LEU28       0.0001
     30  N         41.5750  -23.8260   36.2090 N.am   29  CYS29      -0.1968
     31  CA        40.3700  -23.0030   36.1290 C.3    29  CYS29       0.1712
     32  C         39.9810  -22.4990   37.4970 C.2    29  CYS29       0.2296
     33  O         40.4640  -22.9980   38.5130 O.2    29  CYS29      -0.2864
     34  CB        39.2350  -23.8420   35.5330 C.3    29  CYS29       0.0983
     35  SG        39.2060  -23.9050   33.7170 S.3    29  CYS29      -0.0798
     36  N         33.8620  -26.7300   30.1960 N.3    44  HIS44      -0.1226
     37  CA        34.9860  -26.7160   29.2390 C.3    44  HIS44       0.1752
     38  C         36.3790  -26.8760   29.8700 C.2    44  HIS44       0.2596
     39  O         37.3500  -27.2240   29.1810 O.2    44  HIS44      -0.2718
     40  CB        34.9120  -25.5330   28.2410 C.3    44  HIS44       0.0759
     41  CG        35.5240  -24.2710   28.7540 C.ar   44  HIS44       0.0818
     42  ND1       34.7460  -23.2520   29.2550 N.ar   44  HIS44      -0.2268
     43  CD2       36.8280  -23.9230   28.8620 C.ar   44  HIS44       0.1154
     44  CE1       35.5890  -22.3100   29.6310 C.ar   44  HIS44       0.1986
     45  NE2       36.8580  -22.6710   29.4190 N.ar   44  HIS44      -0.2212
     46  N         36.4550  -26.6410   31.1910 N.am   45  CYS45      -0.1970
     47  CA        37.6680  -26.8040   31.9900 C.3    45  CYS45       0.1712
     48  C         38.1400  -28.2760   32.0640 C.2    45  CYS45       0.2296
     49  O         39.2680  -28.5260   32.4460 O.2    45  CYS45      -0.2864
     50  CB        37.4190  -26.2320   33.3790 C.3    45  CYS45       0.0983
     51  SG        37.2560  -24.4330   33.4070 S.3    45  CYS45      -0.0798
     52  N         38.0060  -30.5280   29.3650 N.3    47  TYR47      -0.1241
     53  CA        38.4320  -31.0080   28.0550 C.3    47  TYR47       0.1605
     54  C         39.7710  -31.8120   28.2130 C.2    47  TYR47       0.2264
     55  O         40.7360  -31.3160   28.8190 O.2    47  TYR47      -0.2867
     56  CB        38.5540  -29.8440   27.0390 C.3    47  TYR47       0.0534
     57  CG        38.9530  -30.3390   25.6630 C.ar   47  TYR47      -0.0201
     58  CD1       38.0040  -30.8830   24.7930 C.ar   47  TYR47      -0.0009
     59  CD2       40.2950  -30.3880   25.2780 C.ar   47  TYR47      -0.0009
     60  CE1       38.3740  -31.3950   23.5450 C.ar   47  TYR47       0.0417
     61  CE2       40.6770  -30.9170   24.0450 C.ar   47  TYR47       0.0417
     62  CZ        39.7120  -31.3980   23.1710 C.ar   47  TYR47       0.1957
     63  OH        40.0920  -31.9220   21.9600 O.3    47  TYR47      -0.2866
     64  N         31.5140  -24.4890   24.9950 N.3    88  ALA88      -0.1245
     65  CA        31.2780  -23.1930   25.6670 C.3    88  ALA88       0.1562
     66  C         30.3550  -22.2510   24.8990 C.2    88  ALA88       0.2260
     67  O         29.4030  -21.7090   25.4660 O.2    88  ALA88      -0.2867
     68  CB        32.6130  -22.5020   25.9250 C.3    88  ALA88       0.0290
     69  N         44.7530  -14.4100   32.6420 N.3   134  TYR134     -0.1241
     70  CA        45.5680  -13.4380   31.9150 C.3   134  TYR134      0.1605
     71  C         45.0700  -11.9930   32.0710 C.2   134  TYR134      0.2264
     72  O         43.8600  -11.7710   32.0480 O.2   134  TYR134     -0.2867
     73  CB        45.5060  -13.7820   30.4290 C.3   134  TYR134      0.0534
     74  CG        46.2010  -15.0330   29.9340 C.ar  134  TYR134     -0.0201
     75  CD1       46.6090  -16.0320   30.8180 C.ar  134  TYR134     -0.0009
     76  CD2       46.4060  -15.2420   28.5730 C.ar  134  TYR134     -0.0009
     77  CE1       47.2080  -17.2070   30.3580 C.ar  134  TYR134      0.0417
     78  CE2       47.0260  -16.4030   28.0990 C.ar  134  TYR134      0.0417
     79  CZ        47.4340  -17.3790   28.9950 C.ar  134  TYR134      0.1957
     80  OH        48.0240  -18.5250   28.5030 O.3   134  TYR134     -0.2866
     81  N         46.6080  -10.5520   26.3050 N.3   137  LEU137     -0.1231
     82  CA        46.4980  -11.6210   25.3040 C.3   137  LEU137      0.1693
     83  C         47.5000  -12.7540   25.4610 C.2   137  LEU137      0.2591
     84  O         47.1030  -13.8830   25.7460 O.2   137  LEU137     -0.2718
     85  CB        46.5050  -11.0730   23.8640 C.3   137  LEU137      0.0284
     86  CG        45.1500  -10.6610   23.2710 C.3   137  LEU137      0.0019
     87  CD1       44.6010   -9.3730   23.9170 C.3   137  LEU137      0.0001
     88  CD2       45.2740  -10.4300   21.7900 C.3   137  LEU137      0.0001
     89  N         48.7740  -12.4990   25.2550 N.am  138  ARG138     -0.1980
     90  CA        49.7020  -13.6050   25.4240 C.3   138  ARG138      0.1597
     91  C         50.2810  -13.3640   26.7940 C.2   138  ARG138      0.2287
     92  O         51.0170  -12.3960   26.9990 O.2   138  ARG138     -0.2864
     93  CB        50.7540  -13.6480   24.2960 C.3   138  ARG138      0.0334
     94  CG        50.1310  -13.4670   22.9030 C.3   138  ARG138      0.0492
     95  CD        49.0180  -14.4410   22.6030 C.3   138  ARG138      0.2205
     96  NE        49.4780  -15.8200   22.6750 N.pl3 138  ARG138     -0.0865
     97  CZ        48.8080  -16.7730   23.3510 C.cat 138  ARG138      0.5346
     98  NH1       47.6440  -16.5190   23.9500 N.pl3 138  ARG138      0.1354
     99  NH2       49.3890  -17.9710   23.4520 N.pl3 138  ARG138      0.1354
    100  N         49.4830  -17.3200   33.9340 N.3   141  ILE141     -0.1245
    101  CA        48.5800  -17.3840   35.0850 C.3   141  ILE141      0.1561
    102  C         49.1150  -16.3570   36.1080 C.2   141  ILE141      0.2260
    103  O         50.3370  -16.2140   36.2470 O.2   141  ILE141     -0.2867
    104  CB        48.4410  -18.8760   35.5880 C.3   141  ILE141      0.0252
    105  CG1       47.7010  -19.7610   34.5290 C.3   141  ILE141      0.0019
    106  CG2       47.7820  -19.0110   36.9600 C.3   141  ILE141      0.0019
    107  CD1       46.2510  -19.3090   34.1610 C.3   141  ILE141      0.0001
    108  N         37.4970   -7.1780   31.5890 N.3   182  ASP182     -0.1225
    109  CA        36.9150   -8.4910   31.2570 C.3   182  ASP182      0.1805
    110  C         37.6820   -9.6350   31.9140 C.2   182  ASP182      0.2598
    111  O         38.8420   -9.4830   32.2940 O.2   182  ASP182     -0.2718
    112  CB        37.0370   -8.7050   29.7200 C.3   182  ASP182      0.1424
    113  CG        36.1640   -9.7390   29.0300 C.2   182  ASP182      0.3668
    114  OD1       35.3020  -10.3460   29.7070 O.co2 182  ASP182     -0.2456
    115  OD2       36.3370   -9.9360   27.8090 O.co2 182  ASP182     -0.2456
    116  N         37.0660  -10.8150   31.8950 N.am  183  ALA183     -0.1966
    117  CA        37.6710  -12.0810   32.2740 C.3   183  ALA183      0.1728
    118  C         38.5040  -12.4650   31.0630 C.2   183  ALA183      0.2616
    119  O         38.2850  -11.9220   29.9850 O.2   183  ALA183     -0.2715
    120  CB        36.5880  -13.1310   32.5100 C.3   183  ALA183      0.0334
    121  N         39.4670  -13.3740   31.2260 N.am  184  CYS184     -0.1954
    122  CA        40.2890  -13.8220   30.1110 C.3   184  CYS184      0.1843
    123  C         40.7010  -15.3020   30.2920 C.2   184  CYS184      0.2625
    124  O         40.1480  -15.9580   31.1690 O.2   184  CYS184     -0.2714
    125  CB        41.4910  -12.8920   29.9420 C.3   184  CYS184      0.0997
    126  SG        42.3230  -13.0310   28.3390 S.3   184  CYS184     -0.0797
    127  N         41.6420  -15.8350   29.4690 N.am  185  LYS185     -0.1963
    128  CA        42.1230  -17.2300   29.6020 C.3   185  LYS185      0.1728
    129  C         42.6600  -17.4600   31.0410 C.2   185  LYS185      0.2616
    130  O         43.4700  -16.6720   31.5280 O.2   185  LYS185     -0.2715
    131  CB        43.2080  -17.5520   28.5560 C.3   185  LYS185      0.0311
    132  CG        43.6150  -19.0330   28.5320 C.3   185  LYS185      0.0038
    133  CD        44.8410  -19.3360   27.6550 C.3   185  LYS185      0.0206
    134  CE        44.5610  -19.5360   26.1780 C.3   185  LYS185      0.1093
    135  NZ        45.7850  -19.3120   25.3480 N.3   185  LYS185     -0.1314
    136  N         42.1600  -18.5000   31.6990 N.am  186  GLY186     -0.1955
    137  CA        42.5370  -18.8700   33.0590 C.3   186  GLY186      0.1869
    138  C         41.5000  -18.5080   34.1030 C.2   186  GLY186      0.2309
    139  O         41.5690  -18.9840   35.2410 O.2   186  GLY186     -0.2863
    140  N         38.1540  -18.9870   33.5440 N.3   188  SER188     -0.1217
    141  CA        36.9500  -19.8130   33.3230 C.3   188  SER188      0.1889
    142  C         36.5690  -20.6410   34.5200 C.2   188  SER188      0.2288
    143  O         37.4520  -21.0820   35.2740 O.2   188  SER188     -0.2866
    144  CB        37.0840  -20.7060   32.1030 C.3   188  SER188      0.2089
    145  OG        37.4710  -19.9980   30.9390 O.3   188  SER188     -0.2183
    146  N         32.3320  -17.6940   34.4720 N.3   206  THR206     -0.1203
    147  CA        33.1680  -17.2890   33.3420 C.3   206  THR206      0.1994
    148  C         33.2030  -18.4380   32.3020 C.2   206  THR206      0.2619
    149  O         33.4090  -19.5990   32.6670 O.2   206  THR206     -0.2717
    150  CB        34.5340  -16.8740   33.8800 C.3   206  THR206      0.1784
    151  OG1       34.3450  -15.7670   34.7590 O.3   206  THR206     -0.2211
    152  CG2       35.5210  -16.5090   32.7680 C.3   206  THR206      0.0376
    153  N         32.9320  -18.1270   31.0310 N.am  207  SER207     -0.1937
    154  CA        32.8310  -19.1480   29.9840 C.3   207  SER207      0.2055
    155  C         33.6480  -18.8620   28.7430 C.2   207  SER207      0.2643
    156  O         34.5630  -19.6160   28.4280 O.2   207  SER207     -0.2714
    157  CB        31.3620  -19.3920   29.6140 C.3   207  SER207      0.2130
    158  OG        31.2110  -20.4840   28.7190 O.3   207  SER207     -0.2179
    159  N         33.2760  -17.8150   28.0000 N.am  208  TRP208     -0.1959
    160  CA        33.9470  -17.4730   26.7420 C.3   208  TRP208      0.1771
    161  C         33.7820  -15.9740   26.3980 C.2   208  TRP208      0.2620
    162  O         33.1950  -15.2190   27.1780 O.2   208  TRP208     -0.2715
    163  CB        33.4320  -18.4070   25.5940 C.3   208  TRP208      0.0590
    164  CG        31.9850  -18.2030   25.2180 C.ar  208  TRP208      0.0006
    165  CD1       30.8980  -18.6950   25.8660 C.ar  208  TRP208      0.0946
    166  CD2       31.4790  -17.5070   24.0570 C.ar  208  TRP208      0.0152
    167  NE1       29.7440  -18.3370   25.1990 N.ar  208  TRP208     -0.2442
    168  CE2       30.0730  -17.6030   24.0920 C.ar  208  TRP208      0.0810
    169  CE3       32.0830  -16.8060   22.9910 C.ar  208  TRP208      0.0012
    170  CZ2       29.2560  -17.0340   23.1040 C.ar  208  TRP208      0.0191
    171  CZ3       31.2700  -16.2040   22.0380 C.ar  208  TRP208      0.0001
    172  CH2       29.8770  -16.3380   22.0900 C.ar  208  TRP208      0.0015
    173  N         34.2770  -15.6020   25.2160 N.am  209  GLY209     -0.1940
    174  CA        34.1960  -14.2720   24.6200 C.3   209  GLY209      0.2014
    175  C         35.0450  -14.2380   23.3630 C.2   209  GLY209      0.2639
    176  O         35.6620  -15.2470   23.0330 O.2   209  GLY209     -0.2714
    177  N         35.0960  -13.0830   22.6510 N.am  210  GLU210     -0.1963
    178  CA        35.9380  -12.8700   21.4630 C.3   210  GLU210      0.1733
    179  C         37.1920  -12.1080   21.9070 C.2   210  GLU210      0.2617
    180  O         37.1540  -10.8740   22.0400 O.2   210  GLU210     -0.2715
    181  CB        35.1820  -12.1080   20.3470 C.3   210  GLU210      0.0429
    182  CG        35.9160  -12.0920   19.0070 C.3   210  GLU210      0.1163
    183  CD        36.3960  -13.4480   18.5190 C.2   210  GLU210      0.3649
    184  OE1       35.5320  -14.2720   18.1490 O.co2 210  GLU210     -0.2457
    185  OE2       37.6180  -13.7190   18.5830 O.co2 210  GLU210     -0.2457
    186  N         38.2820  -12.8460   22.1330 N.am  211  GLY211     -0.1940
    187  CA        39.5090  -12.2850   22.6960 C.3   211  GLY211      0.2014
    188  C         39.2150  -11.9470   24.1500 C.2   211  GLY211      0.2639
    189  O         38.3980  -12.6290   24.7830 O.2   211  GLY211     -0.2714
    190  N         39.8070  -10.8680   24.6810 N.am  212  CYS212     -0.1967
    191  CA        39.5400  -10.4060   26.0520 C.3   212  CYS212      0.1712
    192  C         39.4750   -8.9090   26.0930 C.2   212  CYS212      0.2296
    193  O         40.3730   -8.2550   25.5460 O.2   212  CYS212     -0.2864
    194  CB        40.5690  -10.9200   27.0480 C.3   212  CYS212      0.0983
    195  SG        40.8500  -12.7010   26.9730 S.3   212  CYS212     -0.0798
    196  N         32.1300  -10.1150   27.8690 N.3   219  GLY219     -0.1210
    197  CA        32.3780  -11.5000   28.2380 C.3   219  GLY219      0.1956
    198  C         31.0560  -12.2140   28.3600 C.2   219  GLY219      0.2612
    199  O         30.0770  -11.5950   28.7710 O.2   219  GLY219     -0.2717
    200  N         31.0080  -13.5010   27.9470 N.am  220  VAL220     -0.1965
    201  CA        29.8210  -14.3600   28.0320 C.3   220  VAL220      0.1727
    202  C         30.0070  -15.3120   29.2210 C.2   220  VAL220      0.2616
    203  O         31.0700  -15.9420   29.3950 O.2   220  VAL220     -0.2715
    204  CB        29.5330  -15.1180   26.7070 C.3   220  VAL220      0.0290
    205  CG1       28.1460  -15.7640   26.7220 C.3   220  VAL220      0.0023
    206  CG2       29.6760  -14.1830   25.4990 C.3   220  VAL220      0.0023
    207  N         28.9590  -15.3970   30.0450 N.am  221  TYR221     -0.1974
    208  CA        28.9460  -16.1990   31.2570 C.3   221  TYR221      0.1639
    209  C         27.8270  -17.2170   31.2250 C.2   221  TYR221      0.2290
    210  O         26.8360  -17.0030   30.5310 O.2   221  TYR221     -0.2864
    211  CB        28.7770  -15.2670   32.4810 C.3   221  TYR221      0.0560
    212  CG        29.9040  -14.2680   32.6190 C.ar  221  TYR221     -0.0198
    213  CD1       29.9420  -13.1120   31.8390 C.ar  221  TYR221     -0.0009
    214  CD2       30.9660  -14.5010   33.4910 C.ar  221  TYR221     -0.0009
    215  CE1       31.0410  -12.2530   31.8770 C.ar  221  TYR221      0.0417
    216  CE2       32.0560  -13.6290   33.5600 C.ar  221  TYR221      0.0417
    217  CZ        32.0850  -12.5010   32.7600 C.ar  221  TYR221      0.1957
    218  OH        33.1520  -11.6320   32.8580 O.3   221  TYR221     -0.2866
@<TRIPOS>BOND
     1   184   183   ar
     2   183   185   ar
     3   183   182    1
     4   182   181    1
     5   181   178    1
     6   178   179    1
     7   178   177    1
     8    88    86    1
     9   179   180    2
    10   179   186   am
    11    63    62    1
    12   171   172   ar
    13   171   169   ar
    14   172   170   ar
    15   186   187    1
    16    95    96    1
    17    95    94    1
    18   177   175   am
    19    96    97    2
    20   187   188    1
    21    94    93    1
    22   169   166   ar
    23   176   175    2
    24   170   168   ar
    25    62    60   ar
    26    62    61   ar
    27    86    85    1
    28    86    87    1
    29    97    99    1
    30    97    98    1
    31   175   174    1
    32    60    58   ar
    33    85    82    1
    34    61    59   ar
    35   166   168   ar
    36   166   164   ar
    37   168   167   ar
    38   188   190   am
    39   188   189    2
    40    93    90    1
    41   174   173    1
    42   190   191    1
    43    58    57   ar
    44    66    67    2
    45    66    65    1
    46    64    65    1
    47   167   165   ar
    48   173   161   am
    49   164   163    1
    50   164   165   ar
    51    89    90    1
    52    89    83   am
    53    59    57   ar
    54    82    83    1
    55    82    81    1
    56   135   134    1
    57    90    91    1
    58    83    84    2
    59   206   204    1
    60   193   192    2
    61   163   160    1
    62    57    56    1
    63    65    68    1
    64   191   192    1
    65   191   194    1
    66   134   133    1
    67   161   160    1
    68   161   162    2
    69   204   205    1
    70   204   201    1
    71   160   159    1
    72    91    92    2
    73   195   194    1
    74   195   126    1
    75    56    53    1
    76   133   132    1
    77   115   113   ar
    78   196   197    1
    79   200   201    1
    80   200   198   am
    81   159   155   am
    82   201   202    1
    83    53    54    1
    84    53    52    1
    85    78    76   ar
    86    78    79   ar
    87    54    55    2
    88   197   198    1
    89    40    41    1
    90    40    37    1
    91   126   125    1
    92   198   199    2
    93   156   155    2
    94    80    79    1
    95   132   131    1
    96   131   128    1
    97    76    74   ar
    98   158   157    1
    99   155   154    1
   100    41    43   ar
   101    41    42   ar
   102    43    45   ar
   103    79    77   ar
   104   113   114   ar
   105   113   112    1
   106    39    38    2
   107   202   203    2
   108   202   207   am
   109    37    38    1
   110    37    36    1
   111    42    44   ar
   112    45    44   ar
   113   127   128    1
   114   127   123   am
   115   128   129    1
   116   157   154    1
   117   112   109    1
   118    38    46   am
   119    74    73    1
   120    74    75   ar
   121   125   122    1
   122   154   153    1
   123   119   118    2
   124   207   208    1
   125   122   123    1
   126   122   121    1
   127   123   124    2
   128    77    75   ar
   129    73    70    1
   130   210   209    2
   131   145   144    1
   132   153   148   am
   133   129   130    2
   134   129   136   am
   135   118   121   am
   136   118   117    1
   137    46    47    1
   138   209   208    1
   139   208   211    1
   140   109   108    1
   141   109   110    1
   142   136   137    1
   143    11     9    1
   144   213   215   ar
   145   213   212   ar
   146   215   217   ar
   147   116   110   am
   148   116   117    1
   149   110   111    2
   150    70    71    1
   151    70    69    1
   152    47    48    1
   153    47    50    1
   154    72    71    2
   155    48    49    2
   156   144   141    1
   157   117   120    1
   158   148   149    2
   159   148   147    1
   160    10     9    1
   161     9     8    2
   162   211   212    1
   163   212   214   ar
   164   217   218    1
   165   217   216   ar
   166   152   150    1
   167     8     7    1
   168   137   138    1
   169    28    27    1
   170   141   140    1
   171   141   142    1
   172   147   150    1
   173   147   146    1
   174    50    51    1
   175    51    35    1
   176   214   216   ar
   177    35    34    1
   178     7     6    1
   179   150   151    1
   180   100   101    1
   181    25    24    2
   182   138   139    2
   183   107   105    1
   184    27    29    1
   185    27    26    1
   186   142   143    2
   187   105   104    1
   188   101   104    1
   189   101   102    1
   190    24    23    1
   191    24    30   am
   192     6     5    1
   193    23    26    1
   194    23    22    1
   195    15    14    2
   196    34    31    1
   197   104   106    1
   198   102   103    2
   199    31    30    1
   200    31    32    1
   201     5     2    1
   202    14    22   am
   203    14    13    1
   204    19    21   ar
   205    19    17   ar
   206    21    20   ar
   207    32    33    2
   208     2     3    1
   209     2     1    1
   210    17    16    1
   211    17    18   ar
   212    12     3   am
   213    12    13    1
   214     3     4    2
   215    13    16    1
   216    20    18   ar
