@<TRIPOS>MOLECULE
tmp/4na9A00.pdb
 198 194 0 0 0
SMALL
GASTEIGER

@<TRIPOS>ATOM
      1  N         15.4770   40.3150   16.6770 N.3    25  LEU25      -0.1231
      2  CA        14.0550   40.0150   16.7930 C.3    25  LEU25       0.1693
      3  C         13.7770   38.8580   17.7640 C.2    25  LEU25       0.2592
      4  O         13.0760   39.0170   18.7640 O.2    25  LEU25      -0.2718
      5  CB        13.4680   39.7210   15.3980 C.3    25  LEU25       0.0284
      6  CG        12.0130   39.3200   15.3470 C.3    25  LEU25       0.0019
      7  CD1       11.0900   40.5380   15.6100 C.3    25  LEU25       0.0001
      8  CD2       11.6880   38.5450   14.0520 C.3    25  LEU25       0.0001
      9  N         14.3370   37.6830   17.4710 N.am   26  CYS26      -0.1970
     10  CA        14.0520   36.4500   18.2030 C.3    26  CYS26       0.1712
     11  C         15.1630   35.4690   17.9050 C.2    26  CYS26       0.2296
     12  O         16.0380   35.7270   17.0630 O.2    26  CYS26      -0.2864
     13  CB        12.7170   35.8810   17.7190 C.3    26  CYS26       0.0983
     14  SG        11.2600   36.5590   18.5580 S.3    26  CYS26      -0.0798
     15  N          4.7580   33.9920   17.6300 N.3    41  HIS41      -0.1226
     16  CA         4.5390   35.3200   18.1870 C.3    41  HIS41       0.1752
     17  C          5.5750   36.3290   17.7630 C.2    41  HIS41       0.2596
     18  O          5.2740   37.4990   17.7720 O.2    41  HIS41      -0.2718
     19  CB         4.3570   35.2870   19.7170 C.3    41  HIS41       0.0759
     20  CG         5.6110   35.2800   20.5110 C.ar   41  HIS41       0.0818
     21  ND1        5.9790   34.1770   21.2620 N.ar   41  HIS41      -0.2268
     22  CD2        6.4830   36.2840   20.7490 C.ar   41  HIS41       0.1154
     23  CE1        7.1010   34.5220   21.8790 C.ar   41  HIS41       0.1986
     24  NE2        7.4420   35.7880   21.5940 N.ar   41  HIS41      -0.2212
     25  N          6.7640   35.9020   17.3460 N.am   42  CYS42      -0.1970
     26  CA         7.8340   36.7790   16.8890 C.3    42  CYS42       0.1712
     27  C          7.4310   37.5020   15.6300 C.2    42  CYS42       0.2296
     28  O          8.1010   38.4660   15.2510 O.2    42  CYS42      -0.2864
     29  CB         9.1020   35.9610   16.6480 C.3    42  CYS42       0.0983
     30  SG         9.8040   35.2160   18.1400 S.3    42  CYS42      -0.0798
     31  N          4.2270   38.6690   14.8740 N.3    44  ASP44      -0.1225
     32  CA         2.9970   39.4450   15.1000 C.3    44  ASP44       0.1805
     33  C          3.1140   40.9120   14.6490 C.2    44  ASP44       0.2597
     34  O          2.1240   41.4900   14.2610 O.2    44  ASP44      -0.2718
     35  CB         2.6230   39.4450   16.5890 C.3    44  ASP44       0.1424
     36  CG         1.8850   38.2260   17.1060 C.2    44  ASP44       0.3668
     37  OD1        1.7290   37.2470   16.3320 O.co2  44  ASP44      -0.2456
     38  OD2        1.5350   38.2090   18.3180 O.co2  44  ASP44      -0.2456
     39  N          4.2930   41.5160   14.7240 N.am   45  LYS45      -0.1979
     40  CA         4.4350   42.9440   14.4070 C.3    45  LYS45       0.1596
     41  C          5.2270   43.2470   13.1370 C.2    45  LYS45       0.2287
     42  O          5.5270   44.4150   12.8860 O.2    45  LYS45      -0.2864
     43  CB         5.0620   43.6950   15.6060 C.3    45  LYS45       0.0298
     44  CG         4.3600   43.5310   16.9590 C.3    45  LYS45       0.0038
     45  CD         5.3570   43.8660   18.0990 C.3    45  LYS45       0.0206
     46  CE         5.0110   43.3430   19.4840 C.3    45  LYS45       0.1093
     47  NZ         6.1560   43.4580   20.4380 N.3    45  LYS45      -0.1314
     48  N         -1.2780   37.6960   19.0900 N.3    85  GLY85      -0.1225
     49  CA        -1.4680   38.2930   20.4060 C.3    85  GLY85       0.1811
     50  C         -1.6960   37.2790   21.5080 C.2    85  GLY85       0.2280
     51  O         -1.8570   37.6650   22.6620 O.2    85  GLY85      -0.2866
     52  N         -0.5870   33.0680   23.0830 N.3    87  THR87      -0.1218
     53  CA         0.5480   32.1980   23.4070 C.3    87  THR87       0.1862
     54  C          0.4420   30.7370   22.9100 C.2    87  THR87       0.2287
     55  O          1.4100   29.9890   23.0470 O.2    87  THR87      -0.2866
     56  CB         0.6680   32.1170   24.9660 C.3    87  THR87       0.1770
     57  OG1       -0.5890   31.6880   25.5170 O.3    87  THR87      -0.2211
     58  CG2        1.0990   33.4360   25.6230 C.3    87  THR87       0.0375
     59  N         17.2740   38.9600   27.2100 N.3   134  GLN134     -0.1245
     60  CA        17.5340   39.7310   28.4330 C.3   134  GLN134      0.1566
     61  C         18.2030   38.8820   29.4730 C.2   134  GLN134      0.2260
     62  O         17.7950   37.7430   29.6900 O.2   134  GLN134     -0.2867
     63  CB        16.2250   40.2720   28.9900 C.3   134  GLN134      0.0367
     64  CG        15.6210   41.3210   28.0860 C.3   134  GLN134      0.0905
     65  CD        14.4180   41.9690   28.7230 C.2   134  GLN134      0.2608
     66  OE1       14.3130   43.1740   28.7690 O.2   134  GLN134     -0.2717
     67  NE2       13.4600   41.1910   29.1880 N.am  134  GLN134     -0.0878
     68  N         15.0840   40.2830   34.1150 N.3   137  ASP137     -0.1239
     69  CA        13.7440   40.8270   33.8450 C.3   137  ASP137      0.1674
     70  C         13.9420   42.3820   33.8720 C.2   137  ASP137      0.2266
     71  O         14.6250   42.8940   34.7600 O.2   137  ASP137     -0.2867
     72  CB        12.7600   40.3790   34.9500 C.3   137  ASP137      0.1410
     73  CG        11.2860   40.4540   34.6040 C.2   137  ASP137      0.3668
     74  OD1       10.9430   41.1290   33.6110 O.co2 137  ASP137     -0.2456
     75  OD2       10.4690   39.8110   35.3220 O.co2 137  ASP137     -0.2456
     76  N         15.9650   31.2080   34.1920 N.3   186  ASP186     -0.1225
     77  CA        14.8550   31.1120   33.2300 C.3   186  ASP186      0.1805
     78  C         15.2990   31.6440   31.8980 C.2   186  ASP186      0.2598
     79  O         16.3430   32.2890   31.8170 O.2   186  ASP186     -0.2718
     80  CB        13.6790   32.0140   33.7340 C.3   186  ASP186      0.1424
     81  CG        12.2770   31.7370   33.1740 C.2   186  ASP186      0.3668
     82  OD1       12.1390   30.8440   32.2640 O.co2 186  ASP186     -0.2456
     83  OD2       11.3330   32.4580   33.5730 O.co2 186  ASP186     -0.2456
     84  N         14.4890   31.4310   30.8480 N.am  187  SER187     -0.1938
     85  CA        14.7420   32.1140   29.5910 C.3   187  SER187      0.2055
     86  C         13.9690   33.4670   29.7400 C.2   187  SER187      0.2643
     87  O         13.2210   33.6490   30.7200 O.2   187  SER187     -0.2714
     88  CB        14.2730   31.2860   28.3900 C.3   187  SER187      0.2130
     89  OG        12.9650   30.7770   28.5670 O.3   187  SER187     -0.2179
     90  N         14.1590   34.4110   28.8160 N.am  188  CYS188     -0.1953
     91  CA        13.5120   35.7230   28.9780 C.3   188  CYS188      0.1843
     92  C         13.1200   36.3310   27.6360 C.2   188  CYS188      0.2625
     93  O         13.2720   35.6620   26.6120 O.2   188  CYS188     -0.2714
     94  CB        14.4390   36.6460   29.7820 C.3   188  CYS188      0.0997
     95  SG        13.6280   38.1020   30.5290 S.3   188  CYS188     -0.0797
     96  N         12.6270   37.5980   27.6090 N.am  189  LYS189     -0.1963
     97  CA        12.3170   38.2710   26.3440 C.3   189  LYS189      0.1728
     98  C         13.5960   38.3370   25.5150 C.2   189  LYS189      0.2616
     99  O         14.6910   38.4970   26.0690 O.2   189  LYS189     -0.2715
    100  CB        11.8050   39.6990   26.5560 C.3   189  LYS189      0.0311
    101  CG        10.4170   39.8440   27.1500 C.3   189  LYS189      0.0038
    102  CD         9.9880   41.3340   27.0230 C.3   189  LYS189      0.0206
    103  CE         8.6150   41.6390   27.5850 C.3   189  LYS189      0.1093
    104  NZ         8.3040   43.0950   27.4920 N.3   189  LYS189     -0.1314
    105  N         13.4580   38.1880   24.2060 N.am  190  GLY190     -0.1955
    106  CA        14.5920   38.1640   23.2930 C.3   190  GLY190      0.1869
    107  C         15.0840   36.7650   23.0300 C.2   190  GLY190      0.2309
    108  O         15.7850   36.5540   22.0340 O.2   190  GLY190     -0.2863
    109  N         12.7590   34.2260   22.9020 N.3   192  SER192     -0.1217
    110  CA        11.6020   33.6170   22.2290 C.3   192  SER192      0.1889
    111  C         11.9990   33.0630   20.8850 C.2   192  SER192      0.2288
    112  O         12.7260   33.7170   20.1490 O.2   192  SER192     -0.2866
    113  CB        10.5100   34.6470   22.0080 C.3   192  SER192      0.2089
    114  OG        10.0230   35.1420   23.2490 O.3   192  SER192     -0.2183
    115  N         11.2920   28.3660   23.0790 N.3   210  VAL210     -0.1231
    116  CA        11.0830   29.4440   24.0840 C.3   210  VAL210      0.1692
    117  C          9.8260   30.1920   23.6520 C.2   210  VAL210      0.2593
    118  O          9.7570   30.7150   22.5430 O.2   210  VAL210     -0.2718
    119  CB        12.3010   30.4040   24.2090 C.3   210  VAL210      0.0266
    120  CG1       12.0430   31.4690   25.2810 C.3   210  VAL210      0.0020
    121  CG2       13.5930   29.6340   24.5130 C.3   210  VAL210      0.0020
    122  N          8.8050   30.1990   24.4980 N.am  211  SER211     -0.1938
    123  CA         7.5370   30.7840   24.0930 C.3   211  SER211      0.2055
    124  C          7.0610   31.8970   25.0130 C.2   211  SER211      0.2643
    125  O          6.9380   33.0340   24.5500 O.2   211  SER211     -0.2714
    126  CB         6.4870   29.6820   23.9400 C.3   211  SER211      0.2130
    127  OG         5.1760   30.1780   23.6860 O.3   211  SER211     -0.2179
    128  N          6.7540   31.5750   26.2920 N.am  212  TRP212     -0.1959
    129  CA         6.2470   32.5910   27.2420 C.3   212  TRP212      0.1771
    130  C          6.5040   32.2330   28.7080 C.2   212  TRP212      0.2620
    131  O          7.2240   31.2840   28.9960 O.2   212  TRP212     -0.2715
    132  CB         4.7540   32.8990   26.9740 C.3   212  TRP212      0.0590
    133  CG         3.8280   31.7490   27.2590 C.ar  212  TRP212      0.0006
    134  CD1        3.5970   30.6670   26.4700 C.ar  212  TRP212      0.0946
    135  CD2        2.9850   31.5950   28.4090 C.ar  212  TRP212      0.0152
    136  NE1        2.6920   29.8300   27.0680 N.ar  212  TRP212     -0.2442
    137  CE2        2.2770   30.3860   28.2510 C.ar  212  TRP212      0.0810
    138  CE3        2.7620   32.3620   29.5650 C.ar  212  TRP212      0.0012
    139  CZ2        1.3850   29.9030   29.2210 C.ar  212  TRP212      0.0191
    140  CZ3        1.8620   31.9010   30.5120 C.ar  212  TRP212      0.0001
    141  CH2        1.1900   30.6800   30.3420 C.ar  212  TRP212      0.0015
    142  N          5.9420   33.0220   29.6040 N.am  213  GLY213     -0.1940
    143  CA         6.0230   32.8760   31.0560 C.3   213  GLY213      0.2014
    144  C          5.5150   34.1410   31.7170 C.2   213  GLY213      0.2639
    145  O          5.2740   35.1280   31.0240 O.2   213  GLY213     -0.2714
    146  N          5.3460   34.1350   33.0410 N.am  214  GLN214     -0.1963
    147  CA         4.9180   35.3350   33.7860 C.3   214  GLN214      0.1733
    148  C          6.1980   36.0210   34.2530 C.2   214  GLN214      0.2617
    149  O          6.8230   35.5730   35.2140 O.2   214  GLN214     -0.2715
    150  CB         3.9970   34.9580   34.9580 C.3   214  GLN214      0.0408
    151  CG         2.6850   34.3100   34.5080 C.3   214  GLN214      0.0908
    152  CD         1.6860   34.1800   35.6300 C.2   214  GLN214      0.2608
    153  OE1        1.0330   33.1420   35.8030 O.2   214  GLN214     -0.2717
    154  NE2        1.4900   35.2530   36.3870 N.am  214  GLN214     -0.0878
    155  N          6.6430   37.0190   33.4940 N.am  215  GLY215     -0.1940
    156  CA         7.9120   37.6990   33.7350 C.3   215  GLY215      0.2014
    157  C          9.0590   36.7500   33.4330 C.2   215  GLY215      0.2639
    158  O          8.8490   35.7390   32.7380 O.2   215  GLY215     -0.2714
    159  N         10.2730   37.0530   33.9690 N.am  216  CYS216     -0.1967
    160  CA        11.4460   36.1800   33.8230 C.3   216  CYS216      0.1712
    161  C         11.9960   35.8590   35.1550 C.2   216  CYS216      0.2296
    162  O         12.3250   36.7870   35.9020 O.2   216  CYS216     -0.2864
    163  CB        12.5200   36.7850   32.9320 C.3   216  CYS216      0.0983
    164  SG        11.9070   37.4000   31.3550 S.3   216  CYS216     -0.0798
    165  N          7.3930   29.1740   36.1530 N.3   222  PHE222     -0.1227
    166  CA         8.3200   28.4590   35.2840 C.3   222  PHE222      0.1736
    167  C          8.2410   29.0240   33.8730 C.2   222  PHE222      0.2596
    168  O          7.2480   29.6630   33.5290 O.2   222  PHE222     -0.2718
    169  CB         7.9290   26.9720   35.2550 C.3   222  PHE222      0.0547
    170  CG         8.0770   26.2600   36.5800 C.ar  222  PHE222     -0.0202
    171  CD1        7.0080   26.1700   37.4660 C.ar  222  PHE222     -0.0042
    172  CD2        9.2640   25.6310   36.9190 C.ar  222  PHE222     -0.0042
    173  CE1        7.1430   25.4980   38.6780 C.ar  222  PHE222     -0.0003
    174  CE2        9.3990   24.9710   38.1330 C.ar  222  PHE222     -0.0003
    175  CZ         8.3500   24.9390   39.0180 C.ar  222  PHE222     -0.0000
    176  N          9.2640   28.7670   33.0580 N.am  223  GLY223     -0.1942
    177  CA         9.2260   29.1150   31.6440 C.3   223  GLY223      0.2014
    178  C          8.2520   28.1740   30.9400 C.2   223  GLY223      0.2639
    179  O          8.0970   27.0240   31.3640 O.2   223  GLY223     -0.2714
    180  N          7.5310   28.6600   29.9110 N.am  224  VAL224     -0.1963
    181  CA         6.5810   27.8610   29.1450 C.3   224  VAL224      0.1727
    182  C          7.1160   27.7280   27.7220 C.2   224  VAL224      0.2616
    183  O          7.5100   28.7140   27.1000 O.2   224  VAL224     -0.2715
    184  CB         5.1140   28.3520   29.2190 C.3   224  VAL224      0.0290
    185  CG1        4.1730   27.3160   28.6130 C.3   224  VAL224      0.0023
    186  CG2        4.7060   28.6200   30.6750 C.3   224  VAL224      0.0023
    187  N          7.1660   26.4920   27.2270 N.am  225  TYR225     -0.1974
    188  CA         7.7920   26.1350   25.9600 C.3   225  TYR225      0.1639
    189  C          6.7880   25.4720   25.0300 C.2   225  TYR225      0.2290
    190  O          5.9420   24.7210   25.4990 O.2   225  TYR225     -0.2864
    191  CB         8.9920   25.1710   26.2540 C.3   225  TYR225      0.0560
    192  CG        10.0910   25.8270   27.0680 C.ar  225  TYR225     -0.0198
    193  CD1       10.0280   25.8680   28.4630 C.ar  225  TYR225     -0.0009
    194  CD2       11.1150   26.5350   26.4460 C.ar  225  TYR225     -0.0009
    195  CE1       10.9540   26.6110   29.2110 C.ar  225  TYR225      0.0417
    196  CE2       12.0280   27.2870   27.1760 C.ar  225  TYR225      0.0417
    197  CZ        11.9690   27.2990   28.5590 C.ar  225  TYR225      0.1957
    198  OH        12.9100   28.0240   29.2480 O.3   225  TYR225     -0.2866
@<TRIPOS>BOND
     1    42    41    2
     2    41    40    1
     3     8     6    1
     4    34    33    2
     5    40    39    1
     6    40    43    1
     7    33    39   am
     8    33    32    1
     9    31    32    1
    10    32    35    1
    11    28    27    2
    12     6     5    1
    13     6     7    1
    14     5     2    1
    15    43    44    1
    16    27    26    1
    17    37    36   ar
    18    35    36    1
    19    29    26    1
    20    29    30    1
    21     1     2    1
    22     2     3    1
    23    26    25    1
    24    44    45    1
    25    12    11    2
    26    36    38   ar
    27    25    17   am
    28     9     3   am
    29     9    10    1
    30    15    16    1
    31    13    10    1
    32    13    14    1
    33    17    18    2
    34    17    16    1
    35     3     4    2
    36    11    10    1
    37    45    46    1
    38    30    14    1
    39    16    19    1
    40    48    49    1
    41    46    47    1
    42    19    20    1
    43   112   111    2
    44    49    50    1
    45    20    22   ar
    46    20    21   ar
    47    22    24   ar
    48   111   110    1
    49    21    23   ar
    50    50    51    2
    51    24    23   ar
    52   113   110    1
    53   113   114    1
    54   108   107    2
    55   110   109    1
    56   118   117    2
    57    54    55    2
    58    54    53    1
    59   107   106    1
    60   115   116    1
    61    52    53    1
    62   106   105    1
    63    53    56    1
    64   117   116    1
    65   117   122   am
    66   127   126    1
    67   126   123    1
    68   116   119    1
    69   123   122    1
    70   123   124    1
    71   105    98   am
    72   119   121    1
    73   119   120    1
    74   125   124    2
    75    56    57    1
    76    56    58    1
    77   124   128   am
    78   189   190    2
    79   189   188    1
    80    98    99    2
    81    98    97    1
    82   188   191    1
    83   188   187    1
    84   191   192    1
    85   128   129    1
    86    97   100    1
    87    97    96    1
    88   194   192   ar
    89   194   196   ar
    90   134   136   ar
    91   134   133   ar
    92   100   101    1
    93    93    92    2
    94   132   129    1
    95   132   133    1
    96   102   101    1
    97   102   103    1
    98   136   137   ar
    99   192   193   ar
   100   183   182    2
   101   196   197   ar
   102    59    60    1
   103   187   182   am
   104   129   130    1
   105   133   135   ar
   106   104   103    1
   107    96    92   am
   108    92    91    1
   109   182   181    1
   110    64    65    1
   111    64    63    1
   112   137   135   ar
   113   137   139   ar
   114    88    89    1
   115    88    85    1
   116   135   138   ar
   117    60    63    1
   118    60    61    1
   119   193   195   ar
   120   197   195   ar
   121   197   198    1
   122   185   184    1
   123   130   131    2
   124   130   142   am
   125    65    66    2
   126    65    67   am
   127    90    91    1
   128    90    86   am
   129    91    94    1
   130   181   184    1
   131   181   180    1
   132   184   186    1
   133   139   141   ar
   134    61    62    2
   135   138   140   ar
   136    85    86    1
   137    85    84    1
   138   142   143    1
   139    86    87    2
   140    94    95    1
   141   180   178   am
   142   141   140   ar
   143    95   164    1
   144    84    78   am
   145   178   179    2
   146   178   177    1
   147   145   144    2
   148   143   144    1
   149   164   163    1
   150   177   176    1
   151   144   146   am
   152    79    78    2
   153    78    77    1
   154    82    81   ar
   155   158   157    2
   156   163   160    1
   157   146   147    1
   158   176   167   am
   159    81    83   ar
   160    81    80    1
   161    77    80    1
   162    77    76    1
   163   157   156    1
   164   157   159   am
   165   155   156    1
   166   155   148   am
   167   168   167    2
   168    74    73   ar
   169   147   148    1
   170   147   150    1
   171   160   159    1
   172   160   161    1
   173    69    70    1
   174    69    68    1
   175    69    72    1
   176    70    71    2
   177   167   166    1
   178   148   149    2
   179   151   150    1
   180   151   152    1
   181    73    72    1
   182    73    75   ar
   183   161   162    2
   184   169   166    1
   185   169   170    1
   186   166   165    1
   187   152   153    2
   188   152   154   am
   189   170   172   ar
   190   170   171   ar
   191   172   174   ar
   192   171   173   ar
   193   174   175   ar
   194   173   175   ar
