@<TRIPOS>MOLECULE
tmp/4nabA00.pdb
 144 139 0 0 0
SMALL
GASTEIGER

@<TRIPOS>ATOM
      1  N        -35.1600  -15.1270    0.4930 N.3   679  TYR679     -0.1241
      2  CA       -35.3090  -14.0770   -0.5030 C.3   679  TYR679      0.1605
      3  C        -33.9750  -13.5550   -1.0210 C.2   679  TYR679      0.2264
      4  O        -33.7580  -13.5090   -2.2300 O.2   679  TYR679     -0.2867
      5  CB       -36.1470  -12.9140    0.0250 C.3   679  TYR679      0.0534
      6  CG       -36.2730  -11.8020   -0.9860 C.ar  679  TYR679     -0.0201
      7  CD1      -37.0610  -11.9600   -2.1180 C.ar  679  TYR679     -0.0009
      8  CD2      -35.5900  -10.6020   -0.8230 C.ar  679  TYR679     -0.0009
      9  CE1      -37.1750  -10.9550   -3.0560 C.ar  679  TYR679      0.0417
     10  CE2      -35.6990   -9.5880   -1.7570 C.ar  679  TYR679      0.0417
     11  CZ       -36.4940   -9.7720   -2.8710 C.ar  679  TYR679      0.1957
     12  OH       -36.6100   -8.7740   -3.8080 O.3   679  TYR679     -0.2866
     13  N        -41.3670   -1.2070   13.1930 N.3   757  SER757     -0.1202
     14  CA       -41.2130   -0.8440   11.7910 C.3   757  SER757      0.2020
     15  C        -40.1880    0.2680   11.6140 C.2   757  SER757      0.2619
     16  O        -39.8670    0.9870   12.5620 O.2   757  SER757     -0.2717
     17  CB       -42.5590   -0.4050   11.2100 C.3   757  SER757      0.2103
     18  OG       -42.4150    0.0370    9.8730 O.3   757  SER757     -0.2182
     19  N        -39.6780    0.4060   10.3940 N.am  758  LEU758     -0.1965
     20  CA       -38.7300    1.4670   10.0800 C.3   758  LEU758      0.1728
     21  C        -39.4000    2.8340   10.1330 C.2   758  LEU758      0.2616
     22  O        -38.7290    3.8610   10.2120 O.2   758  LEU758     -0.2715
     23  CB       -38.0890    1.2310    8.7120 C.3   758  LEU758      0.0311
     24  CG       -36.7930    0.4220    8.7480 C.3   758  LEU758      0.0022
     25  CD1      -36.4740   -0.1480    7.3830 C.3   758  LEU758      0.0001
     26  CD2      -35.6480    1.2940    9.2390 C.3   758  LEU758      0.0001
     27  N        -40.7290    2.8350   10.0910 N.am  759  MET759     -0.1963
     28  CA       -41.4970    4.0620   10.2400 C.3   759  MET759      0.1736
     29  C        -41.4580    4.5190   11.6920 C.2   759  MET759      0.2616
     30  O        -41.3470    5.7110   11.9780 O.2   759  MET759     -0.2715
     31  CB       -42.9430    3.8400    9.7980 C.3   759  MET759      0.0427
     32  CG       -43.0950    3.4390    8.3390 C.3   759  MET759      0.0599
     33  SD       -42.5810    4.7410    7.2040 S.3   759  MET759     -0.1393
     34  CE       -43.7090    6.0540    7.6630 C.3   759  MET759      0.0692
     35  N        -41.5470    3.5580   12.6060 N.am  760  ARG760     -0.1977
     36  CA       -41.5110    3.8470   14.0340 C.3   760  ARG760      0.1597
     37  C        -40.0980    4.2080   14.4720 C.2   760  ARG760      0.2287
     38  O        -39.8780    5.2350   15.1140 O.2   760  ARG760     -0.2864
     39  CB       -42.0150    2.6440   14.8340 C.3   760  ARG760      0.0334
     40  CG       -43.4460    2.2430   14.5150 C.3   760  ARG760      0.0492
     41  CD       -44.4350    3.3270   14.9180 C.3   760  ARG760      0.2205
     42  NE       -44.5810    3.4350   16.3670 N.pl3 760  ARG760     -0.0865
     43  CZ       -43.9660    4.3420   17.1200 C.cat 760  ARG760      0.5346
     44  NH1      -43.1550    5.2310   16.5640 N.pl3 760  ARG760      0.1354
     45  NH2      -44.1640    4.3620   18.4310 N.pl3 760  ARG760      0.1354
     46  N        -34.0630   -2.0870   -7.1700 N.3   808  LYS808     -0.1245
     47  CA       -35.3940   -2.6680   -7.3430 C.3   808  LYS808      0.1561
     48  C        -35.4680   -4.0750   -6.7640 C.2   808  LYS808      0.2260
     49  O        -36.5090   -4.4970   -6.2650 O.2   808  LYS808     -0.2867
     50  CB       -35.7880   -2.7170   -8.8220 C.3   808  LYS808      0.0271
     51  CG       -35.9150   -1.3700   -9.5120 C.3   808  LYS808      0.0035
     52  CD       -36.7470   -1.5070  -10.7810 C.3   808  LYS808      0.0206
     53  CE       -36.3790   -0.4650  -11.8270 C.3   808  LYS808      0.1093
     54  NZ       -35.1550   -0.8450  -12.5930 N.3   808  LYS808     -0.1314
     55  N        -34.2080   -3.6550   -2.2330 N.3   811  LEU811     -0.1231
     56  CA       -35.1570   -2.9610   -1.3490 C.3   811  LEU811      0.1678
     57  C        -36.3800   -3.7520   -0.8500 C.2   811  LEU811      0.2434
     58  O        -36.8160   -3.5450    0.2810 O.2   811  LEU811     -0.2733
     59  CB       -35.6100   -1.6310   -1.9700 C.3   811  LEU811      0.0284
     60  CG       -34.7780   -0.3730   -1.7090 C.3   811  LEU811      0.0019
     61  CD1      -33.3600   -0.5130   -2.2420 C.3   811  LEU811      0.0001
     62  CD2      -35.4630    0.8380   -2.3240 C.3   811  LEU811      0.0001
     63  N        -36.9580   -4.6300   -1.6890 N.am  812  PRO812     -0.2729
     64  CA       -38.0280   -5.4900   -1.1690 C.3   812  PRO812      0.1401
     65  C        -37.6540   -6.3530    0.0460 C.2   812  PRO812      0.2269
     66  O        -38.5600   -6.8550    0.7130 O.2   812  PRO812     -0.2865
     67  CB       -38.3810   -6.3880   -2.3660 C.3   812  PRO812      0.0296
     68  CG       -37.6020   -5.8530   -3.5410 C.3   812  PRO812      0.0237
     69  CD       -37.0180   -4.5440   -3.1570 C.3   812  PRO812      0.0939
     70  N        -36.4320   -5.2030    2.6920 N.3   814  ILE814     -0.1231
     71  CA       -36.9690   -4.3820    3.7600 C.3   814  ILE814      0.1692
     72  C        -38.4770   -4.5640    3.7590 C.2   814  ILE814      0.2593
     73  O        -39.1070   -4.6540    4.8110 O.2   814  ILE814     -0.2718
     74  CB       -36.6170   -2.9010    3.5550 C.3   814  ILE814      0.0266
     75  CG1      -35.1270   -2.6750    3.8150 C.3   814  ILE814      0.0019
     76  CG2      -37.4500   -2.0180    4.4620 C.3   814  ILE814      0.0020
     77  CD1      -34.6980   -1.2310    3.7030 C.3   814  ILE814      0.0001
     78  N        -39.0460   -4.6430    2.5620 N.am  815  GLY815     -0.1942
     79  CA       -40.4730   -4.8400    2.4040 C.3   815  GLY815      0.2014
     80  C        -40.9500   -6.1500    2.9980 C.2   815  GLY815      0.2638
     81  O        -42.0140   -6.2020    3.6090 O.2   815  GLY815     -0.2714
     82  N        -40.1610   -7.2070    2.8270 N.am  816  LEU816     -0.1977
     83  CA       -40.5460   -8.5260    3.3220 C.3   816  LEU816      0.1596
     84  C        -40.5560   -8.5880    4.8440 C.2   816  LEU816      0.2287
     85  O        -41.4820   -9.1360    5.4450 O.2   816  LEU816     -0.2864
     86  CB       -39.6270   -9.6140    2.7610 C.3   816  LEU816      0.0297
     87  CG       -39.8610  -11.0260    3.3100 C.3   816  LEU816      0.0022
     88  CD1      -41.3020  -11.4670    3.1060 C.3   816  LEU816      0.0001
     89  CD2      -38.9030  -12.0250    2.6780 C.3   816  LEU816      0.0001
     90  N        -40.8530   -6.0800    6.9030 N.3   818  GLU818     -0.1231
     91  CA       -41.9540   -5.2280    7.3440 C.3   818  GLU818      0.1699
     92  C        -43.2790   -5.9860    7.3420 C.2   818  GLU818      0.2592
     93  O        -44.1520   -5.7230    8.1680 O.2   818  GLU818     -0.2718
     94  CB       -42.0600   -3.9810    6.4630 C.3   818  GLU818      0.0402
     95  CG       -40.9420   -2.9720    6.6650 C.3   818  GLU818      0.1161
     96  CD       -41.0400   -2.2470    7.9910 C.2   818  GLU818      0.3649
     97  OE1      -40.0060   -1.7260    8.4640 O.co2 818  GLU818     -0.2457
     98  OE2      -42.1530   -2.1910    8.5550 O.co2 818  GLU818     -0.2457
     99  N        -43.4230   -6.9240    6.4100 N.am  819  ILE819     -0.1966
    100  CA       -44.6040   -7.7780    6.3630 C.3   819  ILE819      0.1727
    101  C        -44.5840   -8.7330    7.5490 C.2   819  ILE819      0.2616
    102  O        -45.6110   -8.9770    8.1800 O.2   819  ILE819     -0.2715
    103  CB       -44.6710   -8.5940    5.0510 C.3   819  ILE819      0.0290
    104  CG1      -44.7320   -7.6660    3.8380 C.3   819  ILE819      0.0022
    105  CG2      -45.8730   -9.5260    5.0570 C.3   819  ILE819      0.0023
    106  CD1      -45.8830   -6.6980    3.8710 C.3   819  ILE819      0.0001
    107  N        -43.4020   -9.2610    7.8520 N.am  820  LEU820     -0.1977
    108  CA       -43.2340  -10.1960    8.9610 C.3   820  LEU820      0.1596
    109  C        -43.2870   -9.4920   10.3140 C.2   820  LEU820      0.2287
    110  O        -43.8980   -9.9900   11.2610 O.2   820  LEU820     -0.2864
    111  CB       -41.9160  -10.9560    8.8160 C.3   820  LEU820      0.0297
    112  CG       -41.7920  -11.8140    7.5570 C.3   820  LEU820      0.0022
    113  CD1      -40.4470  -12.5220    7.5160 C.3   820  LEU820      0.0001
    114  CD2      -42.9320  -12.8160    7.4910 C.3   820  LEU820      0.0001
    115  N        -44.8860   -6.9570   10.9050 N.3   822  PHE822     -0.1241
    116  CA       -46.2850   -6.5940   11.0810 C.3   822  PHE822      0.1605
    117  C        -47.0280   -7.7310   11.7650 C.2   822  PHE822      0.2264
    118  O        -47.7840   -7.5140   12.7100 O.2   822  PHE822     -0.2867
    119  CB       -46.9310   -6.2920    9.7280 C.3   822  PHE822      0.0534
    120  CG       -48.4050   -6.0100    9.8060 C.ar  822  PHE822     -0.0203
    121  CD1      -48.8640   -4.7310   10.0650 C.ar  822  PHE822     -0.0042
    122  CD2      -49.3310   -7.0210    9.6080 C.ar  822  PHE822     -0.0042
    123  CE1      -50.2170   -4.4650   10.1340 C.ar  822  PHE822     -0.0003
    124  CE2      -50.6860   -6.7620    9.6780 C.ar  822  PHE822     -0.0003
    125  CZ       -51.1300   -5.4810    9.9400 C.ar  822  PHE822     -0.0000
    126  N        -45.9990   -8.1500   15.5380 N.3   825  ARG825     -0.1231
    127  CA       -46.5970   -7.1630   16.4310 C.3   825  ARG825      0.1694
    128  C        -48.0860   -7.3910   16.6570 C.2   825  ARG825      0.2592
    129  O        -48.5930   -7.1670   17.7550 O.2   825  ARG825     -0.2718
    130  CB       -46.3880   -5.7490   15.8830 C.3   825  ARG825      0.0321
    131  CG       -44.9790   -5.2100   16.0420 C.3   825  ARG825      0.0489
    132  CD       -44.8570   -3.8270   15.4260 C.3   825  ARG825      0.2205
    133  NE       -45.0100   -3.8660   13.9750 N.pl3 825  ARG825     -0.0865
    134  CZ       -44.9130   -2.8030   13.1840 C.cat 825  ARG825      0.5346
    135  NH1      -44.6630   -1.6080   13.7030 N.pl3 825  ARG825      0.1354
    136  NH2      -45.0640   -2.9350   11.8720 N.pl3 825  ARG825      0.1354
    137  N        -48.7820   -7.8400   15.6180 N.am  826  ASN826     -0.1974
    138  CA       -50.2420   -7.8440   15.6340 C.3   826  ASN826      0.1688
    139  C        -50.9090   -9.2120   15.7750 C.2   826  ASN826      0.2292
    140  O        -52.0930   -9.2920   16.1020 O.2   826  ASN826     -0.2864
    141  CB       -50.7810   -7.1230   14.3960 C.3   826  ASN826      0.1181
    142  CG       -50.3370   -5.6740   14.3290 C.2   826  ASN826      0.2629
    143  OD1      -51.0280   -4.7810   14.8160 O.2   826  ASN826     -0.2716
    144  ND2      -49.1770   -5.4350   13.7300 N.am  826  ASN826     -0.0877
@<TRIPOS>BOND
     1    54    53    1
     2    53    52    1
     3    52    51    1
     4    51    50    1
     5    50    47    1
     6    47    46    1
     7    47    48    1
     8    48    49    2
     9    12    11    1
    10    68    69    1
    11    68    67    1
    12    69    63    1
    13     9    11   ar
    14     9     7   ar
    15    11    10   ar
    16    67    64    1
    17    62    60    1
    18    61    60    1
    19    55    56    1
    20     4     3    2
    21     7     6   ar
    22    59    60    1
    23    59    56    1
    24    10     8   ar
    25    63    64    1
    26    63    57   am
    27    56    57    1
    28    64    65    1
    29     3     2    1
    30     6     8   ar
    31     6     5    1
    32    57    58    2
    33     2     5    1
    34     2     1    1
    35    65    66    2
    36    79    78    1
    37    79    80    1
    38    78    72   am
    39    89    87    1
    40    70    71    1
    41    86    87    1
    42    86    83    1
    43    82    80   am
    44    82    83    1
    45    80    81    2
    46    88    87    1
    47    83    84    1
    48    74    71    1
    49    74    75    1
    50    74    76    1
    51    77    75    1
    52    72    71    1
    53    72    73    2
    54   104   106    1
    55   104   103    1
    56    84    85    2
    57   103   105    1
    58   103   100    1
    59   100    99    1
    60   100   101    1
    61    99    92   am
    62    94    95    1
    63    94    91    1
    64    95    96    1
    65    90    91    1
    66    33    34    1
    67    33    32    1
    68    92    91    1
    69    92    93    2
    70    25    24    1
    71   114   112    1
    72   113   112    1
    73   101   107   am
    74   101   102    2
    75   112   111    1
    76   107   108    1
    77    96    97   ar
    78    96    98   ar
    79    32    31    1
    80    23    24    1
    81    23    20    1
    82    24    26    1
    83   111   108    1
    84   108   109    1
    85   122   124   ar
    86   122   120   ar
    87   124   125   ar
    88   119   120    1
    89   119   116    1
    90    31    28    1
    91   120   121   ar
    92    18    17    1
    93   125   123   ar
    94   121   123   ar
    95    20    21    1
    96    20    19    1
    97    27    21   am
    98    27    28    1
    99    21    22    2
   100    28    29    1
   101   109   110    2
   102    19    15   am
   103   115   116    1
   104   116   117    1
   105    17    14    1
   106    15    14    1
   107    15    16    2
   108    29    30    2
   109    29    35   am
   110   117   118    2
   111    14    13    1
   112   136   134    1
   113    35    36    1
   114   134   135    1
   115   134   133    2
   116   144   142   am
   117   133   132    1
   118    36    37    1
   119    36    39    1
   120   142   141    1
   121   142   143    2
   122   141   138    1
   123    37    38    2
   124    40    39    1
   125    40    41    1
   126    41    42    1
   127   132   131    1
   128   126   127    1
   129   137   138    1
   130   137   128   am
   131   138   139    1
   132   139   140    2
   133   130   131    1
   134   130   127    1
   135    42    43    2
   136   127   128    1
   137    44    43    1
   138   128   129    2
   139    43    45    1
