@<TRIPOS>MOLECULE
tmp/4naeA00.pdb
 103 98 0 0 0
SMALL
GASTEIGER

@<TRIPOS>ATOM
      1  N         23.9990    8.9760   -8.4550 N.3    10  LYS10      -0.1245
      2  CA        24.6590    7.9610   -9.2690 C.3    10  LYS10       0.1561
      3  C         25.1880    8.5350  -10.5800 C.2    10  LYS10       0.2260
      4  O         24.4290    9.0250  -11.4120 O.2    10  LYS10      -0.2867
      5  CB        23.7420    6.7440   -9.4910 C.3    10  LYS10       0.0271
      6  CG        24.3560    5.6840  -10.3990 C.3    10  LYS10       0.0035
      7  CD        23.9340    4.2470  -10.0830 C.3    10  LYS10       0.0206
      8  CE        22.4530    4.0160   -9.9350 C.3    10  LYS10       0.1093
      9  NZ        22.1740    2.5980   -9.5090 N.3    10  LYS10      -0.1314
     10  N         18.2710   -6.5550   -6.7230 N.3   110  TYR110     -0.1241
     11  CA        17.5430   -5.7450   -7.6770 C.3   110  TYR110      0.1605
     12  C         16.2390   -6.4050   -8.0760 C.2   110  TYR110      0.2264
     13  O         16.1870   -7.6140   -8.3320 O.2   110  TYR110     -0.2867
     14  CB        18.3920   -5.5460   -8.9340 C.3   110  TYR110      0.0534
     15  CG        19.1270   -4.2230   -9.0370 C.ar  110  TYR110     -0.0201
     16  CD1       18.7500   -3.2730   -9.9720 C.ar  110  TYR110     -0.0009
     17  CD2       20.2310   -3.9510   -8.2440 C.ar  110  TYR110     -0.0009
     18  CE1       19.4280   -2.0740  -10.0950 C.ar  110  TYR110      0.0417
     19  CE2       20.9110   -2.7540   -8.3520 C.ar  110  TYR110      0.0417
     20  CZ        20.5050   -1.8180   -9.2840 C.ar  110  TYR110      0.1957
     21  OH        21.1780   -0.6300   -9.4090 O.3   110  TYR110     -0.2866
     22  N         16.6760   -3.3670   -3.9870 N.3   151  TYR151     -0.1241
     23  CA        16.7110   -2.1990   -4.8670 C.3   151  TYR151      0.1605
     24  C         15.5490   -2.2240   -5.8650 C.2   151  TYR151      0.2264
     25  O         15.5250   -3.0450   -6.7880 O.2   151  TYR151     -0.2867
     26  CB        18.0500   -2.1840   -5.6220 C.3   151  TYR151      0.0534
     27  CG        18.4640   -0.8670   -6.2550 C.ar  151  TYR151     -0.0201
     28  CD1       19.6470   -0.2460   -5.8840 C.ar  151  TYR151     -0.0009
     29  CD2       17.6940   -0.2670   -7.2430 C.ar  151  TYR151     -0.0009
     30  CE1       20.0460    0.9420   -6.4670 C.ar  151  TYR151      0.0417
     31  CE2       18.0800    0.9210   -7.8340 C.ar  151  TYR151      0.0417
     32  CZ        19.2570    1.5220   -7.4440 C.ar  151  TYR151      0.1957
     33  OH        19.6470    2.7020   -8.0280 O.3   151  TYR151     -0.2866
     34  N         14.2380   -0.8580   -8.9240 N.3   153  GLU153     -0.1245
     35  CA        14.8670   -0.1710  -10.0540 C.3   153  GLU153      0.1567
     36  C         13.8580    0.2110  -11.1350 C.2   153  GLU153      0.2260
     37  O         13.3550   -0.6490  -11.8530 O.2   153  GLU153     -0.2867
     38  CB        15.9790   -1.0380  -10.6510 C.3   153  GLU153      0.0388
     39  CG        16.6540   -0.4590  -11.8960 C.3   153  GLU153      0.1160
     40  CD        17.4180    0.8340  -11.6300 C.2   153  GLU153      0.3649
     41  OE1       16.7790    1.8430  -11.2790 O.co2 153  GLU153     -0.2457
     42  OE2       18.6600    0.8450  -11.7920 O.co2 153  GLU153     -0.2457
     43  N         14.7250    2.8770  -13.2400 N.3   155  SER155     -0.1202
     44  CA        15.6290    3.6140  -14.1460 C.3   155  SER155      0.2020
     45  C         15.0100    4.2170  -15.4110 C.2   155  SER155      0.2619
     46  O         14.7490    3.5000  -16.3770 O.2   155  SER155     -0.2717
     47  CB        16.7830    2.6960  -14.5630 C.3   155  SER155      0.2103
     48  OG        17.6100    3.3230  -15.5270 O.3   155  SER155     -0.2182
     49  N         14.7970    5.5340  -15.3990 N.am  156  GLY156     -0.1956
     50  CA        14.2220    6.2400  -16.5330 C.3   156  GLY156      0.1869
     51  C         12.7870    6.7040  -16.3250 C.2   156  GLY156      0.2309
     52  O         12.3530    7.6830  -16.9370 O.2   156  GLY156     -0.2863
     53  N         15.3450    3.8730   -6.9230 N.3   179  GLY179     -0.1210
     54  CA        15.8690    4.7360   -7.9640 C.3   179  GLY179      0.1956
     55  C         14.9940    4.6940   -9.2010 C.2   179  GLY179      0.2612
     56  O         14.5110    3.6300   -9.5830 O.2   179  GLY179     -0.2717
     57  N         14.7910    5.8500   -9.8270 N.am  180  GLY180     -0.1942
     58  CA        14.0160    5.9270  -11.0530 C.3   180  GLY180      0.2014
     59  C         13.2110    7.2040  -11.2210 C.2   180  GLY180      0.2639
     60  O         12.2720    7.4730  -10.4580 O.2   180  GLY180     -0.2714
     61  N         13.5790    7.9720  -12.2480 N.am  181  GLY181     -0.1939
     62  CA        12.8430    9.1510  -12.6810 C.3   181  GLY181      0.2014
     63  C         12.7010   10.2950  -11.6880 C.2   181  GLY181      0.2638
     64  O         11.8180   11.1300  -11.8370 O.2   181  GLY181     -0.2714
     65  N         13.5580   10.3520  -10.6770 N.am  182  ILE182     -0.1977
     66  CA        13.4930   11.4490   -9.7120 C.3   182  ILE182      0.1596
     67  C         14.1360   12.7150  -10.2800 C.2   182  ILE182      0.2287
     68  O         15.3340   12.7340  -10.5700 O.2   182  ILE182     -0.2864
     69  CB        14.1210   11.0580   -8.3510 C.3   182  ILE182      0.0276
     70  CG1       13.3200    9.9090   -7.7240 C.3   182  ILE182      0.0022
     71  CG2       14.1470   12.2540   -7.4010 C.3   182  ILE182      0.0022
     72  CD1       13.9250    9.3300   -6.4640 C.3   182  ILE182      0.0001
     73  N         17.9250    7.1710   -4.8430 N.3   199  VAL199     -0.1231
     74  CA        19.0070    7.2920   -5.8220 C.3   199  VAL199      0.1692
     75  C         18.5960    8.1930   -6.9850 C.2   199  VAL199      0.2592
     76  O         17.5650    7.9710   -7.6160 O.2   199  VAL199     -0.2718
     77  CB        19.4100    5.9140   -6.4060 C.3   199  VAL199      0.0266
     78  CG1       20.6920    6.0260   -7.2030 C.3   199  VAL199      0.0020
     79  CG2       19.5610    4.8750   -5.3090 C.3   199  VAL199      0.0020
     80  N         19.4070    9.2090   -7.2600 N.am  200  VAL200     -0.1966
     81  CA        19.1480   10.1460   -8.3510 C.3   200  VAL200      0.1727
     82  C         20.2810   10.0610   -9.3660 C.2   200  VAL200      0.2617
     83  O         21.4470   10.2740   -9.0210 O.2   200  VAL200     -0.2715
     84  CB        18.9910   11.5980   -7.8370 C.3   200  VAL200      0.0290
     85  CG1       18.8190   12.5840   -8.9980 C.3   200  VAL200      0.0023
     86  CG2       17.8170   11.6970   -6.8800 C.3   200  VAL200      0.0023
     87  N         19.9310    9.7180  -10.6060 N.am  201  GLY201     -0.1940
     88  CA        20.9060    9.5340  -11.6710 C.3   201  GLY201      0.2014
     89  C         20.7650   10.5060  -12.8370 C.2   201  GLY201      0.2639
     90  O         21.4540   11.5180  -12.8870 O.2   201  GLY201     -0.2714
     91  N         19.8820   10.1710  -13.7770 N.am  202  ASN202     -0.1958
     92  CA        19.6930   10.9240  -15.0150 C.3   202  ASN202      0.1819
     93  C         19.5360   12.4370  -14.8460 C.2   202  ASN202      0.2621
     94  O         20.0010   13.2060  -15.6830 O.2   202  ASN202     -0.2715
     95  CB        18.4850   10.3730  -15.7770 C.3   202  ASN202      0.1195
     96  CG        18.7160    9.0020  -16.3600 C.2   202  ASN202      0.2630
     97  OD1       19.8820    8.5760  -16.5640 O.2   202  ASN202     -0.2716
     98  ND2       17.6550    8.2770  -16.6320 N.am  202  ASN202     -0.0877
     99  N         18.8370   12.8580  -13.7960 N.am  203  ALA203     -0.1977
    100  CA        18.6010   14.2810  -13.5470 C.3   203  ALA203      0.1597
    101  C         19.9090   15.0490  -13.3930 C.2   203  ALA203      0.2287
    102  O         19.9550   16.2520  -13.6270 O.2   203  ALA203     -0.2864
    103  CB        17.7230   14.4750  -12.3220 C.3   203  ALA203      0.0319
@<TRIPOS>BOND
     1    52    51    2
     2    98    96   am
     3    97    96    2
     4    50    51    1
     5    50    49    1
     6    46    45    2
     7    96    95    1
     8    95    92    1
     9    94    93    2
    10    48    47    1
    11    45    49   am
    12    45    44    1
    13    92    93    1
    14    92    91    1
    15    93    99   am
    16    47    44    1
    17    44    43    1
    18    99   100    1
    19    91    89   am
    20   102   101    2
    21   100   101    1
    22   100   103    1
    23    90    89    2
    24    89    88    1
    25    62    61    1
    26    62    63    1
    27    61    59   am
    28    39    40    1
    29    39    38    1
    30    37    36    2
    31    64    63    2
    32    42    40   ar
    33    63    65   am
    34    88    87    1
    35    40    41   ar
    36     4     3    2
    37    59    58    1
    38    59    60    2
    39    36    35    1
    40    58    57    1
    41    65    66    1
    42    38    35    1
    43    87    82   am
    44     3     2    1
    45    68    67    2
    46     6     7    1
    47     6     5    1
    48    67    66    1
    49    18    16   ar
    50    18    20   ar
    51     7     8    1
    52    35    34    1
    53    16    15   ar
    54     8     9    1
    55    57    55   am
    56    66    69    1
    57    56    55    2
    58     5     2    1
    59    21    20    1
    60    82    83    2
    61    82    81    1
    62    20    19   ar
    63     2     1    1
    64    55    54    1
    65    15    14    1
    66    15    17   ar
    67    85    84    1
    68    14    11    1
    69    19    17   ar
    70    69    70    1
    71    69    71    1
    72    81    84    1
    73    81    80    1
    74    13    12    2
    75    12    11    1
    76    33    32    1
    77    54    53    1
    78    84    86    1
    79    31    32   ar
    80    31    29   ar
    81    70    72    1
    82    11    10    1
    83    76    75    2
    84    32    30   ar
    85    80    75   am
    86    29    27   ar
    87    78    77    1
    88    75    74    1
    89    25    24    2
    90    30    28   ar
    91    77    74    1
    92    77    79    1
    93    27    28   ar
    94    27    26    1
    95    24    23    1
    96    74    73    1
    97    26    23    1
    98    23    22    1
