@<TRIPOS>MOLECULE
tmp/4naeA01.pdb
 155 147 0 0 0
SMALL
GASTEIGER

@<TRIPOS>ATOM
      1  N         29.2200   -2.4270   -9.4090 N.3    60  VAL60      -0.1231
      2  CA        29.9000   -3.3010  -10.3490 C.3    60  VAL60       0.1692
      3  C         28.8500   -4.0790  -11.1260 C.2    60  VAL60       0.2592
      4  O         28.2170   -4.9730  -10.5750 O.2    60  VAL60      -0.2718
      5  CB        30.8320   -4.2850   -9.6020 C.3    60  VAL60       0.0266
      6  CG1       31.6540   -5.1230  -10.5830 C.3    60  VAL60       0.0020
      7  CG2       31.7510   -3.5340   -8.6490 C.3    60  VAL60       0.0020
      8  N         28.6730   -3.7480  -12.4010 N.am   61  THR61      -0.1953
      9  CA        27.6710   -4.4120  -13.2280 C.3    61  THR61       0.1897
     10  C         28.3810   -5.2620  -14.2700 C.2    61  THR61       0.2313
     11  O         27.7470   -6.0180  -15.0100 O.2    61  THR61      -0.2863
     12  CB        26.8030   -3.3880  -13.9670 C.3    61  THR61       0.1794
     13  OG1       27.6510   -2.4540  -14.6460 O.3    61  THR61      -0.2208
     14  CG2       25.9150   -2.6440  -12.9950 C.3    61  THR61       0.0378
     15  N         32.6710   -7.0290  -14.8390 N.3    63  VAL63      -0.1245
     16  CA        34.0630   -7.1290  -14.3990 C.3    63  VAL63       0.1561
     17  C         34.9360   -6.0720  -15.0730 C.2    63  VAL63       0.2260
     18  O         36.1020   -5.9000  -14.7190 O.2    63  VAL63      -0.2867
     19  CB        34.6650   -8.5310  -14.6700 C.3    63  VAL63       0.0252
     20  CG1       34.1580   -9.5320  -13.6560 C.3    63  VAL63       0.0019
     21  CG2       34.3830   -8.9900  -16.1020 C.3    63  VAL63       0.0019
     22  N         35.8200   -3.0420  -12.6440 N.3    64  LEU64      -0.1245
     23  CA        36.2280   -3.3840  -11.2850 C.3    64  LEU64       0.1561
     24  C         37.6420   -2.9400  -10.9650 C.2    64  LEU64       0.2260
     25  O         38.6040   -3.3880  -11.5880 O.2    64  LEU64      -0.2867
     26  CB        36.0880   -4.8880  -11.0350 C.3    64  LEU64       0.0270
     27  CG        36.4300   -5.3760   -9.6210 C.3    64  LEU64       0.0019
     28  CD1       35.4860   -4.8310   -8.5650 C.3    64  LEU64       0.0001
     29  CD2       36.4390   -6.8970   -9.5890 C.3    64  LEU64       0.0001
     30  N         26.9460   -4.6200   -5.4610 N.3    73  VAL73      -0.1231
     31  CA        26.8920   -5.7000   -6.4400 C.3    73  VAL73       0.1678
     32  C         25.4580   -6.1210   -6.7370 C.2    73  VAL73       0.2434
     33  O         24.8410   -6.8310   -5.9430 O.2    73  VAL73      -0.2733
     34  CB        27.6780   -6.9370   -5.9670 C.3    73  VAL73       0.0265
     35  CG1       27.6450   -8.0200   -7.0320 C.3    73  VAL73       0.0020
     36  CG2       29.1180   -6.5660   -5.6310 C.3    73  VAL73       0.0020
     37  N         24.9270   -5.7010   -7.8960 N.am   74  PRO74      -0.2729
     38  CA        23.5640   -6.0890   -8.2520 C.3    74  PRO74       0.1401
     39  C         23.4100   -7.5910   -8.4870 C.2    74  PRO74       0.2269
     40  O         24.2780   -8.2190   -9.1070 O.2    74  PRO74      -0.2865
     41  CB        23.3170   -5.3480   -9.5670 C.3    74  PRO74       0.0296
     42  CG        24.3180   -4.2730   -9.6100 C.3    74  PRO74       0.0237
     43  CD        25.5130   -4.8110   -8.9090 C.3    74  PRO74       0.0939
     44  N         20.1240   -9.5890  -10.0760 N.3    76  VAL76      -0.1245
     45  CA        18.7970   -9.3660  -10.6610 C.3    76  VAL76       0.1561
     46  C         17.8370  -10.4990  -10.2840 C.2    76  VAL76       0.2260
     47  O         17.7450  -11.5240  -10.9700 O.2    76  VAL76      -0.2867
     48  CB        18.8420   -9.1970  -12.1890 C.3    76  VAL76       0.0252
     49  CG1       17.4940   -8.7020  -12.7030 C.3    76  VAL76       0.0019
     50  CG2       19.9400   -8.2180  -12.5840 C.3    76  VAL76       0.0019
     51  N         22.6340  -13.5820  -14.4530 N.3    84  TRP84      -0.1241
     52  CA        22.4540  -12.2870  -13.8040 C.3    84  TRP84       0.1605
     53  C         22.0980  -12.4170  -12.3240 C.2    84  TRP84       0.2264
     54  O         21.9180  -11.4120  -11.6280 O.2    84  TRP84      -0.2867
     55  CB        21.3900  -11.4810  -14.5580 C.3    84  TRP84       0.0550
     56  CG        21.6730  -11.4160  -16.0260 C.ar   84  TRP84       0.0003
     57  CD1       21.0440  -12.1120  -17.0180 C.ar   84  TRP84       0.0946
     58  CD2       22.6970  -10.6430  -16.6660 C.ar   84  TRP84       0.0152
     59  NE1       21.6020  -11.8070  -18.2410 N.ar   84  TRP84      -0.2442
     60  CE2       22.6170  -10.9060  -18.0510 C.ar   84  TRP84       0.0810
     61  CE3       23.6650   -9.7480  -16.2030 C.ar   84  TRP84       0.0012
     62  CZ2       23.4710  -10.3040  -18.9750 C.ar   84  TRP84       0.0191
     63  CZ3       24.5070   -9.1500  -17.1200 C.ar   84  TRP84       0.0001
     64  CH2       24.4060   -9.4310  -18.4910 C.ar   84  TRP84       0.0015
     65  N         27.6300  -14.5030  -13.5960 N.3    88  ARG88      -0.1231
     66  CA        28.6430  -13.4780  -13.8200 C.3    88  ARG88       0.1694
     67  C         29.4020  -13.1970  -12.5180 C.2    88  ARG88       0.2592
     68  O         30.5980  -12.9240  -12.5350 O.2    88  ARG88      -0.2718
     69  CB        28.0070  -12.2010  -14.3770 C.3    88  ARG88       0.0321
     70  CG        28.9900  -11.0960  -14.5920 C.3    88  ARG88       0.0489
     71  CD        28.2980   -9.8640  -15.0280 C.3    88  ARG88       0.2205
     72  NE        27.3600   -9.2500  -14.1340 N.pl3  88  ARG88      -0.0865
     73  CZ        27.6330   -8.5600  -13.0300 C.cat  88  ARG88       0.5346
     74  NH1       28.9240   -8.4090  -12.6810 N.pl3  88  ARG88       0.1354
     75  NH2       26.7050   -7.9880  -12.2700 N.pl3  88  ARG88       0.1354
     76  N         28.6930  -13.2890  -11.3970 N.am   89  HIS89      -0.1976
     77  CA        29.2650  -13.0500  -10.0770 C.3    89  HIS89       0.1656
     78  C         30.3300  -14.1020   -9.7430 C.2    89  HIS89       0.2291
     79  O         31.4040  -13.7820   -9.2260 O.2    89  HIS89      -0.2864
     80  CB        28.1640  -13.0580   -9.0110 C.3    89  HIS89       0.0771
     81  CG        26.9800  -12.2050   -9.3520 C.ar   89  HIS89       0.0820
     82  ND1       26.0760  -12.5390  -10.3420 N.ar   89  HIS89      -0.2267
     83  CD2       26.5450  -11.0310   -8.8350 C.ar   89  HIS89       0.1154
     84  CE1       25.1450  -11.6100  -10.4160 C.ar   89  HIS89       0.1986
     85  NE2       25.4050  -10.6830   -9.5140 N.ar   89  HIS89      -0.2212
     86  N         33.5430  -13.4880  -11.6550 N.3    92  ALA92      -0.1231
     87  CA        34.2500  -12.3490  -11.0690 C.3    92  ALA92       0.1694
     88  C         34.9450  -12.7030   -9.7500 C.2    92  ALA92       0.2591
     89  O         36.1050  -12.3540   -9.5470 O.2    92  ALA92      -0.2718
     90  CB        33.2970  -11.1740  -10.8670 C.3    92  ALA92       0.0304
     91  N         34.2500  -13.3880   -8.8480 N.am   93  VAL93      -0.1980
     92  CA        34.8680  -13.7370   -7.5680 C.3    93  VAL93       0.1595
     93  C         35.9530  -14.8030   -7.7650 C.2    93  VAL93       0.2287
     94  O         36.9360  -14.8350   -7.0290 O.2    93  VAL93      -0.2864
     95  CB        33.8470  -14.1840   -6.4990 C.3    93  VAL93       0.0276
     96  CG1       32.8110  -13.0930   -6.2620 C.3    93  VAL93       0.0022
     97  CG2       33.1870  -15.4820   -6.8960 C.3    93  VAL93       0.0022
     98  N         39.6420   -9.2550   -2.7180 N.3   100  MET100     -0.1245
     99  CA        38.4500   -8.5360   -2.2700 C.3   100  MET100      0.1570
    100  C         38.4160   -8.4330   -0.7480 C.2   100  MET100      0.2261
    101  O         38.7440   -9.3930   -0.0510 O.2   100  MET100     -0.2867
    102  CB        37.1940   -9.2520   -2.7590 C.3   100  MET100      0.0387
    103  CG        36.8110   -8.9310   -4.1900 C.3   100  MET100      0.0595
    104  SD        35.4910  -10.0210   -4.7660 S.3   100  MET100     -0.1393
    105  CE        35.4400   -9.6080   -6.5090 C.3   100  MET100      0.0692
    106  N         35.8020   -8.2000    2.0140 N.3   102  TRP102     -0.1241
    107  CA        34.3680   -8.4850    2.0650 C.3   102  TRP102      0.1605
    108  C         33.6050   -7.4480    2.8860 C.2   102  TRP102      0.2264
    109  O         32.3860   -7.3340    2.7640 O.2   102  TRP102     -0.2867
    110  CB        34.1110   -9.8830    2.6490 C.3   102  TRP102      0.0550
    111  CG        34.8800  -10.9620    1.9460 C.ar  102  TRP102      0.0003
    112  CD1       35.8820  -11.7240    2.4770 C.ar  102  TRP102      0.0946
    113  CD2       34.7660  -11.3530    0.5710 C.ar  102  TRP102      0.0152
    114  NE1       36.3790  -12.5840    1.5280 N.ar  102  TRP102     -0.2442
    115  CE2       35.7130  -12.3750    0.3480 C.ar  102  TRP102      0.0810
    116  CE3       33.9480  -10.9470   -0.4900 C.ar  102  TRP102      0.0012
    117  CZ2       35.8640  -12.9960   -0.8910 C.ar  102  TRP102      0.0191
    118  CZ3       34.0960  -11.5680   -1.7200 C.ar  102  TRP102      0.0001
    119  CH2       35.0470  -12.5800   -1.9100 C.ar  102  TRP102      0.0015
    120  N         31.9290   -4.9150    0.5280 N.3   105  ILE105     -0.1245
    121  CA        31.0640   -5.4700   -0.5050 C.3   105  ILE105      0.1561
    122  C         29.6400   -5.6560   -0.0070 C.2   105  ILE105      0.2260
    123  O         29.3990   -6.3410    0.9800 O.2   105  ILE105     -0.2867
    124  CB        31.6400   -6.8120   -1.0180 C.3   105  ILE105      0.0252
    125  CG1       32.9390   -6.5510   -1.7860 C.3   105  ILE105      0.0019
    126  CG2       30.6590   -7.5280   -1.9330 C.3   105  ILE105      0.0019
    127  CD1       33.9130   -7.6920   -1.7780 C.3   105  ILE105      0.0001
    128  N         13.9710   -5.2360  -11.0790 N.3   112  ILE112     -0.1245
    129  CA        13.8510   -4.2750  -12.1680 C.3   112  ILE112      0.1561
    130  C         12.4150   -4.2430  -12.6700 C.2   112  ILE112      0.2260
    131  O         11.8720   -5.2640  -13.0870 O.2   112  ILE112     -0.2867
    132  CB        14.8410   -4.5760  -13.3080 C.3   112  ILE112      0.0252
    133  CG1       16.2740   -4.5500  -12.7710 C.3   112  ILE112      0.0019
    134  CG2       14.6940   -3.5580  -14.4250 C.3   112  ILE112      0.0019
    135  CD1       17.3240   -5.0080  -13.7640 C.3   112  ILE112      0.0001
    136  N         18.8620   -2.2140  -18.6430 N.3   119  ALA119     -0.1245
    137  CA        19.1190   -3.3420  -17.7490 C.3   119  ALA119      0.1562
    138  C         18.0750   -4.4550  -17.8880 C.2   119  ALA119      0.2260
    139  O         18.4250   -5.6340  -17.9450 O.2   119  ALA119     -0.2867
    140  CB        19.1900   -2.8650  -16.3060 C.3   119  ALA119      0.0290
    141  N         18.8210   -6.3550  -21.1160 N.3   122  LEU122     -0.1231
    142  CA        20.0500   -7.1370  -21.0210 C.3   122  LEU122      0.1693
    143  C         19.8800   -8.3650  -20.1200 C.2   122  LEU122      0.2592
    144  O         20.2340   -9.4820  -20.5020 O.2   122  LEU122     -0.2718
    145  CB        21.1860   -6.2490  -20.5010 C.3   122  LEU122      0.0284
    146  CG        22.5730   -6.8680  -20.2850 C.3   122  LEU122      0.0019
    147  CD1       23.2490   -7.2520  -21.6070 C.3   122  LEU122      0.0001
    148  CD2       23.4740   -5.9350  -19.4620 C.3   122  LEU122      0.0001
    149  N         19.3040   -8.1590  -18.9390 N.am  123  THR123     -0.1953
    150  CA        19.2020   -9.2200  -17.9400 C.3   123  THR123      0.1897
    151  C         17.9470  -10.0720  -18.1110 C.2   123  THR123      0.2313
    152  O         17.7130  -10.9900  -17.3240 O.2   123  THR123     -0.2863
    153  CB        19.2350   -8.6570  -16.4980 C.3   123  THR123      0.1794
    154  OG1       18.0020   -7.9830  -16.2010 O.3   123  THR123     -0.2208
    155  CG2       20.4160   -7.6990  -16.3260 C.3   123  THR123      0.0378
@<TRIPOS>BOND
     1   147   146    1
     2   141   142    1
     3   142   145    1
     4   142   143    1
     5   144   143    2
     6   145   146    1
     7   146   148    1
     8   143   149   am
     9    62    64   ar
    10    62    60   ar
    11   149   150    1
    12   136   137    1
    13    64    63   ar
    14    59    60   ar
    15    59    57   ar
    16   151   150    1
    17   151   152    2
    18    60    58   ar
    19   139   138    2
    20   150   153    1
    21   138   137    1
    22   137   140    1
    23    63    61   ar
    24    57    56   ar
    25    58    61   ar
    26    58    56   ar
    27   153   155    1
    28   153   154    1
    29    21    19    1
    30    56    55    1
    31    17    18    2
    32    17    16    1
    33    71    70    1
    34    71    72    1
    35    11    10    2
    36    15    16    1
    37    19    16    1
    38    19    20    1
    39    13    12    1
    40    70    69    1
    41    55    52    1
    42    51    52    1
    43   134   132    1
    44    69    66    1
    45    10     9    1
    46    72    73    2
    47    12     9    1
    48    12    14    1
    49    66    65    1
    50    66    67    1
    51    52    53    1
    52   135   133    1
    53   132   133    1
    54   132   129    1
    55     9     8    1
    56   131   130    2
    57    73    74    1
    58    73    75    1
    59    49    48    1
    60   130   129    1
    61    22    23    1
    62    50    48    1
    63    68    67    2
    64    67    76   am
    65     8     3   am
    66    53    54    2
    67    48    45    1
    68   129   128    1
    69    86    87    1
    70    25    24    2
    71    76    77    1
    72    23    26    1
    73    23    24    1
    74     3     4    2
    75     3     2    1
    76    87    90    1
    77    87    88    1
    78    26    27    1
    79    47    46    2
    80    45    46    1
    81    45    44    1
    82     6     5    1
    83    84    82   ar
    84    84    85   ar
    85     2     5    1
    86     2     1    1
    87    82    81   ar
    88    77    78    1
    89    77    80    1
    90    88    89    2
    91    88    91   am
    92    78    79    2
    93    27    29    1
    94    27    28    1
    95    42    41    1
    96    42    43    1
    97     5     7    1
    98    41    38    1
    99    85    83   ar
   100    81    80    1
   101    81    83   ar
   102    40    39    2
   103    43    37    1
   104    91    92    1
   105    39    38    1
   106    38    37    1
   107    37    32   am
   108    93    92    1
   109    93    94    2
   110    92    95    1
   111    35    34    1
   112    97    95    1
   113    32    31    1
   114    32    33    2
   115   105   104    1
   116    95    96    1
   117    31    34    1
   118    31    30    1
   119    34    36    1
   120   104   103    1
   121   103   102    1
   122   102    99    1
   123    98    99    1
   124    99   100    1
   125   126   124    1
   126   119   118   ar
   127   119   117   ar
   128   125   127    1
   129   125   124    1
   130   118   116   ar
   131   124   121    1
   132   117   115   ar
   133   100   101    2
   134   121   122    1
   135   121   120    1
   136   116   113   ar
   137   122   123    2
   138   115   113   ar
   139   115   114   ar
   140   113   111   ar
   141   114   112   ar
   142   111   112   ar
   143   111   110    1
   144   106   107    1
   145   107   110    1
   146   107   108    1
   147   109   108    2
