@<TRIPOS>MOLECULE
tmp/4nahF02.pdb
 177 168 0 0 0
SMALL
GASTEIGER

@<TRIPOS>ATOM
      1  N        -34.1890  -32.5660   -3.9720 N.3     9  PRO9       -0.2102
      2  CA       -35.2000  -32.0680   -4.8860 C.3     9  PRO9        0.1504
      3  C        -34.8060  -32.3500   -6.2950 C.2     9  PRO9        0.2576
      4  O        -33.6240  -32.4270   -6.5510 O.2     9  PRO9       -0.2718
      5  CB       -35.2000  -30.5590   -4.6460 C.3     9  PRO9        0.0282
      6  CG       -33.8960  -30.2580   -4.0340 C.3     9  PRO9        0.0208
      7  CD       -33.2350  -31.5180   -3.5900 C.3     9  PRO9        0.0893
      8  N        -35.7930  -32.4980   -7.1910 N.am   10  GLY10      -0.1957
      9  CA       -35.5380  -32.8830   -8.5710 C.3    10  GLY10       0.1869
     10  C        -36.8060  -33.1080   -9.3650 C.2    10  GLY10       0.2309
     11  O        -37.8780  -33.3810   -8.8020 O.2    10  GLY10      -0.2863
     12  N        -37.9290  -35.0250   -2.8940 N.3    36  CYS36      -0.1221
     13  CA       -39.0870  -34.1790   -3.1700 C.3    36  CYS36       0.1808
     14  C        -39.2120  -33.7240   -4.6050 C.2    36  CYS36       0.2601
     15  O        -38.2160  -33.3950   -5.2380 O.2    36  CYS36      -0.2717
     16  CB       -39.0340  -32.9270   -2.3060 C.3    36  CYS36       0.0970
     17  SG       -38.5120  -33.2930   -0.6200 S.3    36  CYS36      -0.0800
     18  N        -40.4640  -33.6350   -5.0730 N.am   37  VAL37      -0.1965
     19  CA       -40.8140  -33.2510   -6.4560 C.3    37  VAL37       0.1727
     20  C        -41.7990  -32.0990   -6.4630 C.2    37  VAL37       0.2616
     21  O        -42.6220  -31.9910   -5.5460 O.2    37  VAL37      -0.2715
     22  CB       -41.4620  -34.4220   -7.1830 C.3    37  VAL37       0.0290
     23  CG1      -41.4130  -34.1990   -8.6870 C.3    37  VAL37       0.0023
     24  CG2      -40.7460  -35.7060   -6.8100 C.3    37  VAL37       0.0023
     25  N        -41.7110  -31.2190   -7.4670 N.am   38  LEU38      -0.1977
     26  CA       -42.6330  -30.0630   -7.5500 C.3    38  LEU38       0.1596
     27  C        -43.9840  -30.4760   -8.1540 C.2    38  LEU38       0.2287
     28  O        -44.0330  -31.1200   -9.2160 O.2    38  LEU38      -0.2864
     29  CB       -42.0340  -28.8790   -8.3430 C.3    38  LEU38       0.0297
     30  CG       -42.9080  -27.5890   -8.5170 C.3    38  LEU38       0.0022
     31  CD1      -43.5260  -27.0690   -7.2020 C.3    38  LEU38       0.0001
     32  CD2      -42.1550  -26.4550   -9.2380 C.3    38  LEU38       0.0001
     33  N        -44.2770  -26.8230  -16.7750 N.3    43  LYS43      -0.1245
     34  CA       -43.4590  -27.1610  -17.9270 C.3    43  LYS43       0.1561
     35  C        -43.3550  -28.6830  -17.9430 C.2    43  LYS43       0.2260
     36  O        -42.3560  -29.2690  -17.4740 O.2    43  LYS43      -0.2867
     37  CB       -42.0680  -26.5340  -17.7850 C.3    43  LYS43       0.0271
     38  CG       -42.0710  -25.0040  -17.7230 C.3    43  LYS43       0.0035
     39  CD       -40.6860  -24.4650  -18.0630 C.3    43  LYS43       0.0206
     40  CE       -40.5360  -23.0060  -17.6960 C.3    43  LYS43       0.1093
     41  NZ       -39.0930  -22.6590  -17.5370 N.3    43  LYS43      -0.1314
     42  N        -44.3550  -31.2640   -3.3720 N.3    71  PHE71      -0.1241
     43  CA       -44.7140  -30.0040   -2.7170 C.3    71  PHE71       0.1605
     44  C        -45.0860  -28.9530   -3.7100 C.2    71  PHE71       0.2264
     45  O        -44.5850  -28.9320   -4.8270 O.2    71  PHE71      -0.2867
     46  CB       -43.5690  -29.4760   -1.8760 C.3    71  PHE71       0.0534
     47  CG       -43.9400  -28.3350   -0.9840 C.ar   71  PHE71      -0.0203
     48  CD1      -44.7770  -28.5330    0.1010 C.ar   71  PHE71      -0.0042
     49  CD2      -43.4240  -27.0650   -1.2030 C.ar   71  PHE71      -0.0042
     50  CE1      -45.1060  -27.4770    0.9470 C.ar   71  PHE71      -0.0003
     51  CE2      -43.7420  -26.0070   -0.3660 C.ar   71  PHE71      -0.0003
     52  CZ       -44.5860  -26.2130    0.7140 C.ar   71  PHE71      -0.0000
     53  N        -45.2120  -24.8070   -3.6880 N.3    73  GLY73      -0.1210
     54  CA       -44.5810  -23.7660   -2.8850 C.3    73  GLY73       0.1956
     55  C        -43.0710  -23.7840   -2.9850 C.2    73  GLY73       0.2612
     56  O        -42.5030  -24.5180   -3.7820 O.2    73  GLY73      -0.2717
     57  N        -42.4230  -22.9630   -2.1730 N.am   74  LEU74      -0.1965
     58  CA       -40.9790  -22.8720   -2.1520 C.3    74  LEU74       0.1728
     59  C        -40.2810  -24.0950   -1.5760 C.2    74  LEU74       0.2616
     60  O        -40.7430  -24.6790   -0.5730 O.2    74  LEU74      -0.2715
     61  CB       -40.5650  -21.6770   -1.3210 C.3    74  LEU74       0.0311
     62  CG       -40.7060  -20.3780   -2.0730 C.3    74  LEU74       0.0022
     63  CD1      -40.4260  -19.2530   -1.0900 C.3    74  LEU74       0.0001
     64  CD2      -39.7720  -20.3890   -3.2840 C.3    74  LEU74       0.0001
     65  N        -39.1360  -24.4400   -2.1730 N.am   75  LEU75      -0.1963
     66  CA       -38.3480  -25.5710   -1.6600 C.3    75  LEU75       0.1728
     67  C        -37.9130  -25.2950   -0.2430 C.2    75  LEU75       0.2616
     68  O        -38.0160  -26.1700    0.5950 O.2    75  LEU75      -0.2715
     69  CB       -37.1370  -25.8990   -2.5200 C.3    75  LEU75       0.0311
     70  CG       -36.3120  -27.0820   -2.0300 C.3    75  LEU75       0.0022
     71  CD1      -37.1170  -28.3560   -1.9780 C.3    75  LEU75       0.0001
     72  CD2      -35.1270  -27.2940   -2.9440 C.3    75  LEU75       0.0001
     73  N        -37.4790  -24.0830    0.0560 N.am   76  VAL76      -0.1977
     74  CA       -37.1570  -23.7700    1.4560 C.3    76  VAL76       0.1596
     75  C        -38.3550  -23.6770    2.4080 C.2    76  VAL76       0.2287
     76  O        -38.1810  -23.8040    3.6060 O.2    76  VAL76      -0.2864
     77  CB       -36.3190  -22.5040    1.6120 C.3    76  VAL76       0.0276
     78  CG1      -35.1030  -22.5940    0.7210 C.3    76  VAL76       0.0022
     79  CG2      -37.1500  -21.2420    1.3450 C.3    76  VAL76       0.0022
     80  N        -30.2390  -29.3690    2.0000 N.3    87  ILE87      -0.1245
     81  CA       -30.6530  -29.7150    0.6670 C.3    87  ILE87       0.1561
     82  C        -29.4330  -30.3270    0.0070 C.2    87  ILE87       0.2260
     83  O        -28.3550  -29.7860    0.1480 O.2    87  ILE87      -0.2867
     84  CB       -31.0350  -28.4610   -0.1450 C.3    87  ILE87       0.0252
     85  CG1      -32.3260  -27.8930    0.3720 C.3    87  ILE87       0.0019
     86  CG2      -31.1910  -28.7530   -1.6630 C.3    87  ILE87       0.0019
     87  CD1      -32.5830  -26.4930   -0.1150 C.3    87  ILE87       0.0001
     88  N        -27.7840  -31.7560   -3.6860 N.3    89  ARG89      -0.1245
     89  CA       -27.7500  -31.7650   -5.1380 C.3    89  ARG89       0.1563
     90  C        -26.4860  -32.4200   -5.6290 C.2    89  ARG89       0.2260
     91  O        -25.4880  -32.4870   -4.9270 O.2    89  ARG89      -0.2867
     92  CB       -27.7130  -30.3450   -5.6740 C.3    89  ARG89       0.0307
     93  CG       -28.7870  -29.4220   -5.0970 C.3    89  ARG89       0.0489
     94  CD       -30.1350  -29.6720   -5.7820 C.3    89  ARG89       0.2205
     95  NE       -30.1660  -29.0420   -7.0820 N.pl3  89  ARG89      -0.0865
     96  CZ       -31.1000  -29.2260   -8.0050 C.cat  89  ARG89       0.5346
     97  NH1      -30.9980  -28.5780   -9.1600 N.pl3  89  ARG89       0.1354
     98  NH2      -32.1270  -30.0580   -7.8060 N.pl3  89  ARG89       0.1354
     99  N        -25.2800  -22.8930  -12.6640 N.3    99  TYR99      -0.1227
    100  CA       -26.6940  -22.9390  -12.3830 C.3    99  TYR99       0.1736
    101  C        -26.9650  -23.1390  -10.9070 C.2    99  TYR99       0.2595
    102  O        -27.7290  -22.3910  -10.3170 O.2    99  TYR99      -0.2718
    103  CB       -27.3130  -24.0810  -13.1880 C.3    99  TYR99       0.0548
    104  CG       -28.7880  -24.2880  -12.9770 C.ar   99  TYR99      -0.0200
    105  CD1      -29.7360  -23.4250  -13.5410 C.ar   99  TYR99      -0.0009
    106  CD2      -29.2520  -25.3590  -12.2190 C.ar   99  TYR99      -0.0009
    107  CE1      -31.1060  -23.6380  -13.3520 C.ar   99  TYR99       0.0417
    108  CE2      -30.6110  -25.5720  -12.0320 C.ar   99  TYR99       0.0417
    109  CZ       -31.5350  -24.7170  -12.6060 C.ar   99  TYR99       0.1957
    110  OH       -32.8760  -24.9660  -12.3920 O.3    99  TYR99      -0.2866
    111  N        -26.3480  -24.1280  -10.2850 N.am  100  GLU100     -0.1979
    112  CA       -26.5480  -24.3400   -8.8430 C.3   100  GLU100      0.1602
    113  C        -26.0370  -23.1670   -7.9580 C.2   100  GLU100      0.2287
    114  O        -26.6080  -22.8730   -6.8930 O.2   100  GLU100     -0.2864
    115  CB       -25.8600  -25.6150   -8.3990 C.3   100  GLU100      0.0415
    116  CG       -26.4080  -26.8680   -9.0570 C.3   100  GLU100      0.1163
    117  CD       -27.8380  -27.2190   -8.6650 C.2   100  GLU100      0.3649
    118  OE1      -28.3110  -26.8350   -7.5620 O.co2 100  GLU100     -0.2457
    119  OE2      -28.4890  -27.9060   -9.4700 O.co2 100  GLU100     -0.2457
    120  N        -28.8630  -20.5590   -7.9110 N.3   103  LEU103     -0.1231
    121  CA       -30.0100  -21.0390   -7.1330 C.3   103  LEU103      0.1693
    122  C        -29.7710  -20.9610   -5.6190 C.2   103  LEU103      0.2592
    123  O        -30.6150  -20.5150   -4.8570 O.2   103  LEU103     -0.2718
    124  CB       -30.3190  -22.4750   -7.5160 C.3   103  LEU103      0.0284
    125  CG       -31.2850  -22.7390   -8.6580 C.3   103  LEU103      0.0019
    126  CD1      -31.2200  -21.7000   -9.7590 C.3   103  LEU103      0.0001
    127  CD2      -31.0900  -24.1600   -9.1900 C.3   103  LEU103      0.0001
    128  N        -28.5950  -21.4090   -5.1950 N.am  104  THR104     -0.1953
    129  CA       -28.2580  -21.4110   -3.8000 C.3   104  THR104      0.1897
    130  C        -27.9980  -20.0180   -3.2330 C.2   104  THR104      0.2313
    131  O        -28.2090  -19.7670   -2.0420 O.2   104  THR104     -0.2863
    132  CB       -27.0500  -22.3260   -3.5120 C.3   104  THR104      0.1794
    133  OG1      -26.9700  -22.5280   -2.1290 O.3   104  THR104     -0.2208
    134  CG2      -25.7810  -21.7100   -3.8720 C.3   104  THR104      0.0378
    135  N        -29.7850  -17.4530   -4.1260 N.3   106  MET106     -0.1230
    136  CA       -31.1510  -17.0580   -3.8170 C.3   106  MET106      0.1702
    137  C        -31.7350  -17.7970   -2.5800 C.2   106  MET106      0.2592
    138  O        -32.2080  -17.1440   -1.6440 O.2   106  MET106     -0.2718
    139  CB       -32.0480  -17.2460   -5.0340 C.3   106  MET106      0.0401
    140  CG       -33.4740  -16.7010   -4.8540 C.3   106  MET106      0.0596
    141  SD       -33.5650  -14.9660   -4.3120 S.3   106  MET106     -0.1393
    142  CE       -33.3300  -14.2020   -5.9010 C.3   106  MET106      0.0692
    143  N        -31.7100  -19.1360   -2.5730 N.am  107  ASN107     -0.1974
    144  CA       -32.1990  -19.9090   -1.4270 C.3   107  ASN107      0.1688
    145  C        -31.6070  -19.4200   -0.1150 C.2   107  ASN107      0.2292
    146  O        -32.2850  -19.4070    0.8880 O.2   107  ASN107     -0.2864
    147  CB       -31.9220  -21.4120   -1.5820 C.3   107  ASN107      0.1181
    148  CG       -32.8390  -22.0910   -2.5810 C.2   107  ASN107      0.2629
    149  OD1      -33.9500  -21.6770   -2.8110 O.2   107  ASN107     -0.2716
    150  ND2      -32.3540  -23.1380   -3.1860 N.am  107  ASN107     -0.0877
    151  N        -33.6330  -16.4730    0.8960 N.3   110  LEU110     -0.1245
    152  CA       -35.0120  -16.8160    1.2610 C.3   110  LEU110      0.1561
    153  C        -35.1040  -17.4190    2.6650 C.2   110  LEU110      0.2260
    154  O        -36.1420  -17.3810    3.2920 O.2   110  LEU110     -0.2867
    155  CB       -35.6010  -17.7790    0.2280 C.3   110  LEU110      0.0270
    156  CG       -35.7020  -17.2070   -1.1900 C.3   110  LEU110      0.0019
    157  CD1      -36.2160  -18.2340   -2.1720 C.3   110  LEU110      0.0001
    158  CD2      -36.5900  -15.9870   -1.1730 C.3   110  LEU110      0.0001
    159  N        -27.2320  -25.8950    1.4330 N.3   116  THR116     -0.1218
    160  CA       -27.2140  -26.7450    0.2810 C.3   116  THR116      0.1862
    161  C        -25.8330  -27.3800    0.1850 C.2   116  THR116      0.2287
    162  O        -24.8620  -26.6560    0.0360 O.2   116  THR116     -0.2866
    163  CB       -27.4110  -25.9470   -1.0020 C.3   116  THR116      0.1770
    164  OG1      -28.7090  -25.3900   -1.0440 O.3   116  THR116     -0.2211
    165  CG2      -27.3430  -26.8630   -2.1880 C.3   116  THR116      0.0375
    166  N        -23.2870  -30.3190   -1.8410 N.3   118  TYR118     -0.1241
    167  CA       -23.1160  -30.8150   -3.1790 C.3   118  TYR118      0.1605
    168  C        -22.2080  -31.9860   -3.1990 C.2   118  TYR118      0.2264
    169  O        -21.2680  -32.0530   -2.4180 O.2   118  TYR118     -0.2867
    170  CB       -22.5050  -29.7400   -4.1010 C.3   118  TYR118      0.0534
    171  CG       -23.3830  -28.5530   -4.2520 C.ar  118  TYR118     -0.0201
    172  CD1      -24.3700  -28.5140   -5.2230 C.ar  118  TYR118     -0.0009
    173  CD2      -23.2840  -27.4890   -3.3750 C.ar  118  TYR118     -0.0009
    174  CE1      -25.1930  -27.4080   -5.3350 C.ar  118  TYR118      0.0417
    175  CE2      -24.1010  -26.3900   -3.4910 C.ar  118  TYR118      0.0417
    176  CZ       -25.0410  -26.3500   -4.4800 C.ar  118  TYR118      0.1957
    177  OH       -25.8450  -25.2300   -4.5760 O.3   118  TYR118     -0.2866
@<TRIPOS>BOND
     1    39    38    1
     2    39    40    1
     3    35    34    1
     4    35    36    2
     5    34    37    1
     6    34    33    1
     7    37    38    1
     8    40    41    1
     9   105   107   ar
    10   105   104   ar
    11   107   109   ar
    12   103   104    1
    13   103   100    1
    14   104   106   ar
    15    99   100    1
    16   109   110    1
    17   109   108   ar
    18   100   101    1
    19   106   108   ar
    20   101   102    2
    21   101   111   am
    22   111   112    1
    23   126   125    1
    24   119   117   ar
    25    10    11    2
    26    10     9    1
    27    32    30    1
    28    28    27    2
    29   127   125    1
    30    97    96    1
    31   116   117    1
    32   116   115    1
    33   112   115    1
    34   112   113    1
    35    23    22    1
    36   117   118   ar
    37   125   124    1
    38     9     8    1
    39    30    29    1
    40    30    31    1
    41    29    26    1
    42    27    26    1
    43    96    98    1
    44    96    95    2
    45   113   114    2
    46   120   121    1
    47    26    25    1
    48   124   121    1
    49    25    20   am
    50     8     3   am
    51    22    24    1
    52    22    19    1
    53   121   122    1
    54    95    94    1
    55     4     3    2
    56    20    19    1
    57    20    21    2
    58    19    18    1
    59     3     2    1
    60   142   141    1
    61    94    93    1
    62    92    89    1
    63    92    93    1
    64    90    89    1
    65    90    91    2
    66   122   128   am
    67   122   123    2
    68   174   172   ar
    69   174   176   ar
    70    15    14    2
    71   172   171   ar
    72   128   129    1
    73    89    88    1
    74    18    14   am
    75   139   140    1
    76   139   136    1
    77     2     5    1
    78     2     1    1
    79   140   141    1
    80    45    44    2
    81     5     6    1
    82    14    13    1
    83   177   176    1
    84   176   175   ar
    85   171   170    1
    86   171   173   ar
    87   135   136    1
    88   170   167    1
    89     6     7    1
    90     1     7    1
    91   134   132    1
    92   136   137    1
    93   129   132    1
    94   129   130    1
    95    56    55    2
    96    44    43    1
    97    53    54    1
    98   132   133    1
    99   175   173   ar
   100    42    43    1
   101    64    62    1
   102   130   131    2
   103   168   167    1
   104   168   169    2
   105   150   148   am
   106   167   166    1
   107    13    12    1
   108    13    16    1
   109    55    54    1
   110    55    57   am
   111    72    70    1
   112   149   148    2
   113    43    46    1
   114   148   147    1
   115   137   143   am
   116   137   138    2
   117   143   144    1
   118    69    70    1
   119    69    66    1
   120    16    17    1
   121   165   163    1
   122    57    58    1
   123    65    66    1
   124    65    59   am
   125   157   156    1
   126    58    59    1
   127    58    61    1
   128    62    61    1
   129    62    63    1
   130    70    71    1
   131    46    47    1
   132    86    84    1
   133    66    67    1
   134   147   144    1
   135    59    60    2
   136   144   145    1
   137    49    47   ar
   138    49    51   ar
   139   156   158    1
   140   156   155    1
   141   164   163    1
   142   163   160    1
   143    47    48   ar
   144    51    52   ar
   145    67    73   am
   146    67    68    2
   147    84    85    1
   148    84    81    1
   149   145   146    2
   150    87    85    1
   151    82    83    2
   152    82    81    1
   153   162   161    2
   154    73    74    1
   155    48    50   ar
   156   161   160    1
   157   155   152    1
   158   160   159    1
   159    81    80    1
   160    52    50   ar
   161    78    77    1
   162   151   152    1
   163   152   153    1
   164    79    77    1
   165    74    77    1
   166    74    75    1
   167    75    76    2
   168   153   154    2
