@<TRIPOS>MOLECULE
tmp/4nahF00.pdb
 177 169 0 0 0
SMALL
GASTEIGER

@<TRIPOS>ATOM
      1  N        -33.7210  -33.9230   -1.1770 N.3     8  ILE8       -0.1231
      2  CA       -33.0510  -34.0730   -2.4500 C.3     8  ILE8        0.1678
      3  C        -34.1300  -33.8120   -3.4840 C.2     8  ILE8        0.2434
      4  O        -34.9260  -34.7060   -3.8010 O.2     8  ILE8       -0.2733
      5  CB       -32.4640  -35.4900   -2.6380 C.3     8  ILE8        0.0265
      6  CG1      -31.5490  -35.8670   -1.4710 C.3     8  ILE8        0.0019
      7  CG2      -31.7090  -35.6420   -3.9500 C.3     8  ILE8        0.0020
      8  CD1      -30.8840  -37.2180   -1.6330 C.3     8  ILE8        0.0001
      9  N        -34.1890  -32.5660   -3.9720 N.am    9  PRO9       -0.2718
     10  CA       -35.2000  -32.0680   -4.8860 C.3     9  PRO9        0.1535
     11  C        -34.8060  -32.3500   -6.2950 C.2     9  PRO9        0.2599
     12  O        -33.6240  -32.4270   -6.5510 O.2     9  PRO9       -0.2715
     13  CB       -35.2000  -30.5590   -4.6460 C.3     9  PRO9        0.0310
     14  CG       -33.8960  -30.2580   -4.0340 C.3     9  PRO9        0.0237
     15  CD       -33.2350  -31.5180   -3.5900 C.3     9  PRO9        0.0939
     16  N        -35.7930  -32.4980   -7.1910 N.am   10  GLY10      -0.1941
     17  CA       -35.5380  -32.8830   -8.5710 C.3    10  GLY10       0.2014
     18  C        -36.8060  -33.1080   -9.3650 C.2    10  GLY10       0.2640
     19  O        -37.8780  -33.3810   -8.8020 O.2    10  GLY10      -0.2714
     20  N        -36.6840  -32.9950  -10.6780 N.am   11  SER11      -0.1935
     21  CA       -37.7470  -33.4140  -11.5920 C.3    11  SER11       0.2055
     22  C        -37.8750  -34.9230  -11.6440 C.2    11  SER11       0.2643
     23  O        -38.9800  -35.4480  -11.6010 O.2    11  SER11      -0.2714
     24  CB       -37.5010  -32.8760  -13.0090 C.3    11  SER11       0.2130
     25  OG       -37.6980  -31.4740  -13.0100 O.3    11  SER11      -0.2179
     26  N        -36.7510  -35.6200  -11.7360 N.am   12  PHE12      -0.1959
     27  CA       -36.7370  -37.0870  -11.8000 C.3    12  PHE12       0.1771
     28  C        -37.6560  -37.6540  -12.9080 C.2    12  PHE12       0.2619
     29  O        -38.5710  -38.4160  -12.6340 O.2    12  PHE12      -0.2715
     30  CB       -37.1530  -37.7030  -10.4530 C.3    12  PHE12       0.0574
     31  CG       -36.3940  -37.1940   -9.2640 C.ar   12  PHE12      -0.0200
     32  CD1      -35.1250  -37.6710   -8.9730 C.ar   12  PHE12      -0.0042
     33  CD2      -36.9610  -36.2780   -8.4140 C.ar   12  PHE12      -0.0042
     34  CE1      -34.4230  -37.2010   -7.8790 C.ar   12  PHE12      -0.0003
     35  CE2      -36.2850  -35.8300   -7.3060 C.ar   12  PHE12      -0.0003
     36  CZ       -35.0260  -36.2930   -7.0330 C.ar   12  PHE12      -0.0000
     37  N        -37.3480  -37.3300  -14.1470 N.am   13  ASP13      -0.1971
     38  CA       -38.2460  -37.4990  -15.2860 C.3    13  ASP13       0.1709
     39  C        -37.6140  -38.3190  -16.4210 C.2    13  ASP13       0.2293
     40  O        -37.4470  -37.8180  -17.5240 O.2    13  ASP13      -0.2864
     41  CB       -38.6250  -36.0970  -15.8210 C.3    13  ASP13       0.1436
     42  CG       -39.5420  -36.1540  -17.0570 C.2    13  ASP13       0.3671
     43  OD1      -40.3460  -37.0950  -17.1550 O.co2  13  ASP13      -0.2456
     44  OD2      -39.4750  -35.2650  -17.9320 O.co2  13  ASP13      -0.2456
     45  N        -32.6570  -41.9080  -12.6450 N.3    16  THR16      -0.1218
     46  CA       -31.6210  -42.6690  -13.3470 C.3    16  THR16       0.1862
     47  C        -30.7390  -43.2000  -12.2570 C.2    16  THR16       0.2287
     48  O        -30.9400  -42.8770  -11.0920 O.2    16  THR16      -0.2866
     49  CB       -30.7590  -41.8020  -14.2980 C.3    16  THR16       0.1770
     50  OG1      -29.9080  -40.9420  -13.5240 O.3    16  THR16      -0.2211
     51  CG2      -31.6160  -40.9400  -15.2070 C.3    16  THR16       0.0375
     52  N        -27.7770  -42.2120  -12.0010 N.3    18  GLY18      -0.1210
     53  CA       -27.1180  -40.9800  -11.6340 C.3    18  GLY18       0.1956
     54  C        -27.7700  -40.3390  -10.4230 C.2    18  GLY18       0.2611
     55  O        -27.0740  -40.0110   -9.4680 O.2    18  GLY18      -0.2717
     56  N        -29.0990  -40.2250  -10.4290 N.am   19  HIS19      -0.1975
     57  CA       -29.8170  -39.6750   -9.2860 C.3    19  HIS19       0.1656
     58  C        -29.6670  -40.6000   -8.0790 C.2    19  HIS19       0.2291
     59  O        -29.4270  -40.1630   -6.9510 O.2    19  HIS19      -0.2864
     60  CB       -31.3240  -39.5250   -9.5820 C.3    19  HIS19       0.0771
     61  CG       -31.6640  -38.6300  -10.7400 C.ar   19  HIS19       0.0820
     62  ND1      -31.5840  -37.2540  -10.6660 N.ar   19  HIS19      -0.2267
     63  CD2      -32.1410  -38.9060  -11.9770 C.ar   19  HIS19       0.1154
     64  CE1      -31.9640  -36.7230  -11.8160 C.ar   19  HIS19       0.1986
     65  NE2      -32.3100  -37.7040  -12.6300 N.ar   19  HIS19      -0.2212
     66  N        -27.5000  -42.9990   -7.2340 N.3    21  ASP21      -0.1225
     67  CA       -26.1570  -42.9610   -6.6690 C.3    21  ASP21       0.1805
     68  C        -26.0340  -41.8160   -5.6460 C.2    21  ASP21       0.2597
     69  O        -25.5550  -42.0100   -4.5230 O.2    21  ASP21      -0.2718
     70  CB       -25.1660  -42.7850   -7.8230 C.3    21  ASP21       0.1424
     71  CG       -23.7020  -42.7230   -7.3720 C.2    21  ASP21       0.3668
     72  OD1      -23.2510  -43.5660   -6.5370 O.co2  21  ASP21      -0.2456
     73  OD2      -22.9850  -41.8370   -7.9110 O.co2  21  ASP21      -0.2456
     74  N        -26.5240  -40.6370   -6.0010 N.am   22  ILE22      -0.1980
     75  CA       -26.5420  -39.5520   -5.0650 C.3    22  ILE22       0.1595
     76  C        -27.3560  -39.8660   -3.8450 C.2    22  ILE22       0.2287
     77  O        -26.9580  -39.5500   -2.7390 O.2    22  ILE22      -0.2864
     78  CB       -27.1400  -38.2800   -5.6480 C.3    22  ILE22       0.0276
     79  CG1      -26.3200  -37.7860   -6.8400 C.3    22  ILE22       0.0022
     80  CG2      -27.2040  -37.2120   -4.5500 C.3    22  ILE22       0.0022
     81  CD1      -24.8840  -37.4680   -6.5180 C.3    22  ILE22       0.0001
     82  N        -27.7840  -31.7560   -3.6860 N.3    89  ARG89      -0.1231
     83  CA       -27.7500  -31.7650   -5.1380 C.3    89  ARG89       0.1694
     84  C        -26.4860  -32.4200   -5.6290 C.2    89  ARG89       0.2592
     85  O        -25.4880  -32.4870   -4.9270 O.2    89  ARG89      -0.2718
     86  CB       -27.7130  -30.3450   -5.6740 C.3    89  ARG89       0.0321
     87  CG       -28.7870  -29.4220   -5.0970 C.3    89  ARG89       0.0489
     88  CD       -30.1350  -29.6720   -5.7820 C.3    89  ARG89       0.2205
     89  NE       -30.1660  -29.0420   -7.0820 N.pl3  89  ARG89      -0.0865
     90  CZ       -31.1000  -29.2260   -8.0050 C.cat  89  ARG89       0.5346
     91  NH1      -30.9980  -28.5780   -9.1600 N.pl3  89  ARG89       0.1354
     92  NH2      -32.1270  -30.0580   -7.8060 N.pl3  89  ARG89       0.1354
     93  N        -26.5080  -32.8450   -6.8710 N.am   90  GLY90      -0.1957
     94  CA       -25.3910  -33.4610   -7.4820 C.3    90  GLY90       0.1869
     95  C        -24.9190  -32.6300   -8.6440 C.2    90  GLY90       0.2309
     96  O        -25.7020  -31.9730   -9.2490 O.2    90  GLY90      -0.2863
     97  N        -22.4220  -32.6790  -12.1810 N.3    92  ARG92      -0.1245
     98  CA       -21.7760  -33.4720  -13.2060 C.3    92  ARG92       0.1563
     99  C        -20.7610  -32.6760  -14.0530 C.2    92  ARG92       0.2260
    100  O        -19.9040  -33.2640  -14.6900 O.2    92  ARG92      -0.2867
    101  CB       -22.8270  -34.0090  -14.1800 C.3    92  ARG92       0.0307
    102  CG       -23.9540  -34.8180  -13.5620 C.3    92  ARG92       0.0489
    103  CD       -25.1290  -34.8870  -14.5260 C.3    92  ARG92       0.2205
    104  NE       -25.8730  -33.6260  -14.5500 N.pl3  92  ARG92      -0.0865
    105  CZ       -27.1450  -33.4720  -14.9330 C.cat  92  ARG92       0.5346
    106  NH1      -27.6970  -32.2490  -14.9000 N.pl3  92  ARG92       0.1354
    107  NH2      -27.8680  -34.5220  -15.3480 N.pl3  92  ARG92       0.1354
    108  N        -23.6770  -27.4390  -14.5550 N.3    96  ASP96      -0.1239
    109  CA       -24.4340  -27.6980  -13.3110 C.3    96  ASP96       0.1674
    110  C        -23.9480  -26.7380  -12.2120 C.2    96  ASP96       0.2266
    111  O        -24.7310  -26.2010  -11.4170 O.2    96  ASP96      -0.2867
    112  CB       -24.2320  -29.1170  -12.7770 C.3    96  ASP96       0.1410
    113  CG       -24.8020  -30.1820  -13.6720 C.2    96  ASP96       0.3668
    114  OD1      -25.6090  -29.8270  -14.5490 O.co2  96  ASP96      -0.2456
    115  OD2      -24.4640  -31.3820  -13.4800 O.co2  96  ASP96      -0.2456
    116  N        -26.3480  -24.1280  -10.2850 N.3   100  GLU100     -0.1245
    117  CA       -26.5480  -24.3400   -8.8430 C.3   100  GLU100      0.1567
    118  C        -26.0370  -23.1670   -7.9580 C.2   100  GLU100      0.2260
    119  O        -26.6080  -22.8730   -6.8930 O.2   100  GLU100     -0.2867
    120  CB       -25.8600  -25.6150   -8.3990 C.3   100  GLU100      0.0388
    121  CG       -26.4080  -26.8680   -9.0570 C.3   100  GLU100      0.1160
    122  CD       -27.8380  -27.2190   -8.6650 C.2   100  GLU100      0.3649
    123  OE1      -28.3110  -26.8350   -7.5620 O.co2 100  GLU100     -0.2457
    124  OE2      -28.4890  -27.9060   -9.4700 O.co2 100  GLU100     -0.2457
    125  N        -20.8550  -36.1300   -9.2910 N.3   121  SER121     -0.1217
    126  CA       -21.2620  -37.3520   -9.9570 C.3   121  SER121      0.1889
    127  C        -20.1090  -38.3560   -9.9280 C.2   121  SER121      0.2288
    128  O        -18.9300  -37.9920  -10.1150 O.2   121  SER121     -0.2866
    129  CB       -21.6710  -37.0450  -11.3960 C.3   121  SER121      0.2089
    130  OG       -22.1520  -38.2060  -12.0380 O.3   121  SER121     -0.2183
    131  N        -21.3150  -42.2840  -14.0320 N.3   125  TYR125     -0.1241
    132  CA       -22.5990  -41.6380  -14.2070 C.3   125  TYR125      0.1605
    133  C        -22.5140  -40.1870  -14.6200 C.2   125  TYR125      0.2264
    134  O        -23.5450  -39.5180  -14.7150 O.2   125  TYR125     -0.2867
    135  CB       -23.4000  -41.7930  -12.9360 C.3   125  TYR125      0.0534
    136  CG       -23.5660  -43.2430  -12.5670 C.ar  125  TYR125     -0.0201
    137  CD1      -23.9030  -44.1900  -13.5190 C.ar  125  TYR125     -0.0009
    138  CD2      -23.4020  -43.6670  -11.2640 C.ar  125  TYR125     -0.0009
    139  CE1      -24.0450  -45.5210  -13.1830 C.ar  125  TYR125      0.0417
    140  CE2      -23.5700  -44.9910  -10.9160 C.ar  125  TYR125      0.0417
    141  CZ       -23.8860  -45.9150  -11.8800 C.ar  125  TYR125      0.1957
    142  OH       -24.0550  -47.2320  -11.5200 O.3   125  TYR125     -0.2866
    143  N        -24.7960  -39.0930  -17.7010 N.3   128  ILE128     -0.1231
    144  CA       -26.2090  -39.3940  -17.6170 C.3   128  ILE128      0.1692
    145  C        -27.0670  -38.1850  -17.1840 C.2   128  ILE128      0.2593
    146  O        -26.8090  -37.5020  -16.1770 O.2   128  ILE128     -0.2718
    147  CB       -26.4070  -40.5530  -16.6330 C.3   128  ILE128      0.0266
    148  CG1      -25.7780  -41.8090  -17.2160 C.3   128  ILE128      0.0019
    149  CG2      -27.8750  -40.7960  -16.3450 C.3   128  ILE128      0.0020
    150  CD1      -25.8430  -42.9830  -16.2660 C.3   128  ILE128      0.0001
    151  N        -28.0750  -37.9210  -17.9990 N.am  129  SER129     -0.1938
    152  CA       -29.2180  -37.1080  -17.6690 C.3   129  SER129      0.2055
    153  C        -30.4730  -37.9120  -18.0720 C.2   129  SER129      0.2644
    154  O        -30.3930  -38.8190  -18.9190 O.2   129  SER129     -0.2714
    155  CB       -29.1800  -35.8450  -18.4790 C.3   129  SER129      0.2130
    156  OG       -29.1270  -36.1510  -19.8670 O.3   129  SER129     -0.2179
    157  N        -31.6060  -37.5800  -17.4470 N.am  130  SER130     -0.1935
    158  CA       -32.9010  -38.0280  -17.8780 C.3   130  SER130      0.2055
    159  C        -33.0920  -37.7580  -19.3570 C.2   130  SER130      0.2643
    160  O        -33.4750  -38.6480  -20.1100 O.2   130  SER130     -0.2714
    161  CB       -33.9880  -37.3070  -17.0920 C.3   130  SER130      0.2130
    162  OG       -34.0640  -37.8620  -15.8000 O.3   130  SER130     -0.2179
    163  N        -32.8220  -36.5250  -19.7630 N.am  131  SER131     -0.1949
    164  CA       -32.8980  -36.1320  -21.1560 C.3   131  SER131      0.1924
    165  C        -32.3100  -37.1500  -22.1070 C.2   131  SER131      0.2314
    166  O        -32.9520  -37.5710  -23.0610 O.2   131  SER131     -0.2863
    167  CB       -32.1270  -34.8370  -21.3950 C.3   131  SER131      0.2116
    168  OG       -32.7330  -33.7430  -20.7530 O.3   131  SER131     -0.2180
    169  N        -33.8080  -40.6150  -22.3980 N.3   134  LYS134     -0.1245
    170  CA       -35.0570  -40.7010  -23.1370 C.3   134  LYS134      0.1561
    171  C        -34.8460  -40.7410  -24.6240 C.2   134  LYS134      0.2260
    172  O        -35.5830  -41.4130  -25.3360 O.2   134  LYS134     -0.2867
    173  CB       -35.9730  -39.5420  -22.8050 C.3   134  LYS134      0.0271
    174  CG       -36.5920  -39.6720  -21.4300 C.3   134  LYS134      0.0035
    175  CD       -37.5480  -38.5350  -21.1280 C.3   134  LYS134      0.0206
    176  CE       -36.8360  -37.1960  -21.1550 C.3   134  LYS134      0.1093
    177  NZ       -37.4140  -36.2340  -20.1630 N.3   134  LYS134     -0.1314
@<TRIPOS>BOND
     1   172   171    2
     2   171   170    1
     3   170   173    1
     4   170   169    1
     5   166   165    2
     6   173   174    1
     7   165   164    1
     8   174   175    1
     9   167   164    1
    10   167   168    1
    11   164   163    1
    12   176   175    1
    13   176   177    1
    14   160   159    2
    15   156   155    1
    16   163   159   am
    17   159   158    1
    18   154   153    2
    19   155   152    1
    20   153   152    1
    21   153   157   am
    22   151   152    1
    23   151   145   am
    24    44    42   ar
    25   158   157    1
    26   158   161    1
    27   143   144    1
    28   144   145    1
    29   144   147    1
    30    40    39    2
    31   148   147    1
    32   148   150    1
    33   145   146    2
    34    43    42   ar
    35   161   162    1
    36    42    41    1
    37   147   149    1
    38    39    38    1
    39    41    38    1
    40   107   105    1
    41    38    37    1
    42    51    49    1
    43   105   106    1
    44   105   104    2
    45   134   133    2
    46   100    99    2
    47   133   132    1
    48   108   109    1
    49   104   103    1
    50   114   113   ar
    51   103   102    1
    52    49    50    1
    53    49    46    1
    54   132   131    1
    55   132   135    1
    56   101   102    1
    57   101    98    1
    58    37    28   am
    59    99    98    1
    60   113   115   ar
    61   113   112    1
    62   137   139   ar
    63   137   136   ar
    64    46    45    1
    65    46    47    1
    66   109   112    1
    67   109   110    1
    68    98    97    1
    69   139   141   ar
    70    25    24    1
    71    24    21    1
    72   135   136    1
    73    28    29    2
    74    28    27    1
    75    65    63   ar
    76    65    64   ar
    77   136   138   ar
    78    47    48    2
    79   110   111    2
    80   130   129    1
    81    52    53    1
    82    63    61   ar
    83   141   142    1
    84   141   140   ar
    85    64    62   ar
    86    27    26    1
    87    27    30    1
    88    26    22   am
    89    22    23    2
    90    22    21    1
    91    53    54    1
    92    21    20    1
    93   129   126    1
    94   138   140   ar
    95    61    62   ar
    96    61    60    1
    97    20    18   am
    98    30    31    1
    99    56    54   am
   100    56    57    1
   101    54    55    2
   102   116   117    1
   103   128   127    2
   104   126   127    1
   105   126   125    1
   106    60    57    1
   107   124   122   ar
   108    18    19    2
   109    18    17    1
   110    57    58    1
   111    31    32   ar
   112    31    33   ar
   113    96    95    2
   114    91    90    1
   115   121   122    1
   116   121   120    1
   117    32    34   ar
   118   117   120    1
   119   117   118    1
   120   122   123   ar
   121    95    94    1
   122    17    16    1
   123    33    35   ar
   124    58    59    2
   125    90    92    1
   126    90    89    2
   127   118   119    2
   128    73    71   ar
   129    34    36   ar
   130    70    71    1
   131    70    67    1
   132    94    93    1
   133    71    72   ar
   134    35    36   ar
   135    66    67    1
   136    16    11   am
   137    89    88    1
   138    93    84   am
   139    79    81    1
   140    79    78    1
   141    67    68    1
   142    12    11    2
   143    11    10    1
   144    74    68   am
   145    74    75    1
   146    88    87    1
   147    86    83    1
   148    86    87    1
   149    78    75    1
   150    78    80    1
   151    68    69    2
   152    84    83    1
   153    84    85    2
   154    83    82    1
   155    75    76    1
   156    10    13    1
   157    10     9    1
   158    13    14    1
   159    14    15    1
   160     9    15    1
   161     9     3   am
   162     7     5    1
   163    76    77    2
   164     4     3    2
   165     3     2    1
   166     5     2    1
   167     5     6    1
   168     2     1    1
   169     8     6    1
