@<TRIPOS>MOLECULE
tmp/4najA03.pdb
 106 103 0 0 0
SMALL
GASTEIGER

@<TRIPOS>ATOM
      1  N        -42.4800   -8.5220   -3.1730 N.3    25  ASP25      -0.1225
      2  CA       -41.0590   -8.7560   -2.8840 C.3    25  ASP25       0.1805
      3  C        -40.0980   -8.2350   -3.9520 C.2    25  ASP25       0.2598
      4  O        -38.8880   -8.3520   -3.8010 O.2    25  ASP25      -0.2718
      5  CB       -40.7960  -10.2460   -2.6700 C.3    25  ASP25       0.1424
      6  CG       -40.9400  -11.0590   -3.9450 C.2    25  ASP25       0.3668
      7  OD1      -41.5690  -10.5670   -4.9070 O.co2  25  ASP25      -0.2456
      8  OD2      -40.4370  -12.2020   -3.9740 O.co2  25  ASP25      -0.2456
      9  N        -40.6350   -7.6800   -5.0310 N.am   26  GLY26      -0.1942
     10  CA       -39.8130   -7.0400   -6.0360 C.3    26  GLY26       0.2014
     11  C        -39.8090   -7.7710   -7.3570 C.2    26  GLY26       0.2638
     12  O        -39.1670   -7.3480   -8.3220 O.2    26  GLY26      -0.2714
     13  N        -40.5190   -8.8840   -7.4100 N.am   27  GLN27      -0.1977
     14  CA       -40.5970   -9.6210   -8.6510 C.3    27  GLN27       0.1601
     15  C        -41.7380   -9.0880   -9.4920 C.2    27  GLN27       0.2287
     16  O        -42.4530   -8.1860   -9.0740 O.2    27  GLN27      -0.2864
     17  CB       -40.7580  -11.1020   -8.3670 C.3    27  GLN27       0.0394
     18  CG       -39.6600  -11.6210   -7.4750 C.3    27  GLN27       0.0908
     19  CD       -39.6360  -13.1200   -7.4070 C.2    27  GLN27       0.2608
     20  OE1      -38.8760  -13.7740   -8.1150 O.2    27  GLN27      -0.2717
     21  NE2      -40.4770  -13.6810   -6.5600 N.am   27  GLN27      -0.0878
     22  N        -35.9020  -11.4840  -15.9130 N.3   135  ARG135     -0.1231
     23  CA       -35.2670  -11.8450  -14.6570 C.3   135  ARG135      0.1694
     24  C        -36.2610  -11.7560  -13.4890 C.2   135  ARG135      0.2592
     25  O        -36.2300  -12.5620  -12.5560 O.2   135  ARG135     -0.2718
     26  CB       -34.0440  -10.9670  -14.3950 C.3   135  ARG135      0.0321
     27  CG       -33.5400  -11.0580  -12.9660 C.3   135  ARG135      0.0489
     28  CD       -32.0580  -10.7890  -12.8440 C.3   135  ARG135      0.2205
     29  NE       -31.6600   -9.5830  -13.5620 N.pl3 135  ARG135     -0.0865
     30  CZ       -30.7530   -9.5580  -14.5370 C.cat 135  ARG135      0.5346
     31  NH1      -30.1360  -10.6830  -14.9120 N.pl3 135  ARG135      0.1354
     32  NH2      -30.4620   -8.4050  -15.1350 N.pl3 135  ARG135      0.1354
     33  N        -37.1720  -10.8030  -13.5550 N.am  136  ASN136     -0.1974
     34  CA       -38.0790  -10.6190  -12.4410 C.3   136  ASN136      0.1688
     35  C        -39.2530  -11.6050  -12.4090 C.2   136  ASN136      0.2292
     36  O        -39.9260  -11.7300  -11.3870 O.2   136  ASN136     -0.2864
     37  CB       -38.6100   -9.1930  -12.4380 C.3   136  ASN136      0.1181
     38  CG       -37.5500   -8.1830  -12.0850 C.2   136  ASN136      0.2629
     39  OD1      -36.5650   -8.4900  -11.4060 O.2   136  ASN136     -0.2716
     40  ND2      -37.7530   -6.9560  -12.5330 N.am  136  ASN136     -0.0877
     41  N        -34.5540  -20.3010  -15.1090 N.3   161  ASN161     -0.1225
     42  CA       -34.3390  -18.8690  -15.3100 C.3   161  ASN161      0.1785
     43  C        -33.0990  -18.3720  -14.5910 C.2   161  ASN161      0.2597
     44  O        -33.0760  -18.2680  -13.3600 O.2   161  ASN161     -0.2718
     45  CB       -35.5440  -18.0450  -14.8300 C.3   161  ASN161      0.1169
     46  CG       -35.4350  -16.5600  -15.2140 C.2   161  ASN161      0.2627
     47  OD1      -34.7320  -16.1980  -16.1620 O.2   161  ASN161     -0.2716
     48  ND2      -36.1290  -15.7010  -14.4750 N.am  161  ASN161     -0.0877
     49  N        -32.0780  -18.0580  -15.3800 N.am  162  ASP162     -0.1960
     50  CA       -30.7170  -17.8950  -14.8930 C.3   162  ASP162      0.1840
     51  C        -30.4260  -19.0990  -14.0090 C.2   162  ASP162      0.2622
     52  O        -30.5280  -20.2300  -14.4710 O.2   162  ASP162     -0.2715
     53  CB       -30.5480  -16.5740  -14.1450 C.3   162  ASP162      0.1450
     54  CG       -30.4360  -15.3740  -15.0930 C.2   162  ASP162      0.3671
     55  OD1      -29.9010  -15.5450  -16.2110 O.co2 162  ASP162     -0.2456
     56  OD2      -30.8750  -14.2590  -14.7200 O.co2 162  ASP162     -0.2456
     57  N        -30.1100  -18.8790  -12.7390 N.am  163  MET163     -0.1963
     58  CA       -29.7280  -19.9880  -11.8670 C.3   163  MET163      0.1736
     59  C        -30.8520  -20.4410  -10.9610 C.2   163  MET163      0.2617
     60  O        -30.6040  -21.0550   -9.9370 O.2   163  MET163     -0.2715
     61  CB       -28.5460  -19.6120  -11.0020 C.3   163  MET163      0.0427
     62  CG       -27.3280  -19.2460  -11.7930 C.3   163  MET163      0.0599
     63  SD       -26.5860  -20.7420  -12.3860 S.3   163  MET163     -0.1393
     64  CE       -26.2250  -21.5540  -10.8050 C.3   163  MET163      0.0692
     65  N        -32.0880  -20.1370  -11.3260 N.am  164  THR164     -0.1951
     66  CA       -33.2150  -20.5280  -10.5040 C.3   164  THR164      0.1897
     67  C        -34.1360  -21.4550  -11.2750 C.2   164  THR164      0.2313
     68  O        -34.1020  -21.4900  -12.5110 O.2   164  THR164     -0.2863
     69  CB       -34.0190  -19.3010  -10.0360 C.3   164  THR164      0.1794
     70  OG1      -34.7970  -18.7840  -11.1240 O.3   164  THR164     -0.2208
     71  CG2      -33.0820  -18.2140   -9.5430 C.3   164  THR164      0.0378
     72  N        -37.8450  -18.9970  -10.5620 N.3   167  ASN167     -0.1225
     73  CA       -37.4520  -17.8630   -9.7190 C.3   167  ASN167      0.1785
     74  C        -37.4180  -18.1880   -8.2380 C.2   167  ASN167      0.2597
     75  O        -37.3400  -17.2860   -7.4110 O.2   167  ASN167     -0.2718
     76  CB       -38.3650  -16.6500   -9.9430 C.3   167  ASN167      0.1169
     77  CG       -37.9430  -15.8110  -11.1410 C.2   167  ASN167      0.2627
     78  OD1      -37.7270  -16.3290  -12.2290 O.2   167  ASN167     -0.2716
     79  ND2      -37.8200  -14.5120  -10.9400 N.am  167  ASN167     -0.0877
     80  N        -37.4410  -19.4700   -7.9000 N.am  168  ARG168     -0.1966
     81  CA       -37.3700  -19.8650   -6.5000 C.3   168  ARG168      0.1729
     82  C        -35.9730  -19.8050   -5.9020 C.2   168  ARG168      0.2616
     83  O        -34.9720  -19.9610   -6.6050 O.2   168  ARG168     -0.2715
     84  CB       -37.8970  -21.2660   -6.3330 C.3   168  ARG168      0.0348
     85  CG       -39.3670  -21.3680   -6.4230 C.3   168  ARG168      0.0492
     86  CD       -39.6760  -22.7990   -6.2070 C.3   168  ARG168      0.2205
     87  NE       -41.0920  -23.1000   -6.2930 N.pl3 168  ARG168     -0.0865
     88  CZ       -41.8720  -23.2460   -5.2340 C.cat 168  ARG168      0.5346
     89  NH1      -43.1620  -23.5410   -5.3930 N.pl3 168  ARG168      0.1354
     90  NH2      -41.3490  -23.0970   -4.0220 N.pl3 168  ARG168      0.1354
     91  N        -35.9200  -19.5950   -4.5890 N.am  169  LYS169     -0.1964
     92  CA       -34.6640  -19.6380   -3.8540 C.3   169  LYS169      0.1713
     93  C        -34.0730  -21.0230   -4.0110 C.2   169  LYS169      0.2458
     94  O        -34.8140  -21.9920   -4.1510 O.2   169  LYS169     -0.2730
     95  CB       -34.8770  -19.2920   -2.3810 C.3   169  LYS169      0.0311
     96  CG       -35.1540  -17.8170   -2.1430 C.3   169  LYS169      0.0038
     97  CD       -35.1480  -17.4640   -0.6660 C.3   169  LYS169      0.0206
     98  CE       -35.2070  -15.9510   -0.4640 C.3   169  LYS169      0.1093
     99  NZ       -35.2460  -15.5800    0.9860 N.3   169  LYS169     -0.1314
    100  N        -32.7400  -21.1200   -4.0290 N.am  170  PRO170     -0.2727
    101  CA       -32.0450  -22.4020   -4.2000 C.3   170  PRO170      0.1402
    102  C        -32.5830  -23.4960   -3.2870 C.2   170  PRO170      0.2269
    103  O        -32.8500  -23.2270   -2.1210 O.2   170  PRO170     -0.2865
    104  CB       -30.6000  -22.0630   -3.8370 C.3   170  PRO170      0.0296
    105  CG       -30.4630  -20.6390   -4.2100 C.3   170  PRO170      0.0237
    106  CD       -31.8010  -19.9900   -3.9750 C.3   170  PRO170      0.0939
@<TRIPOS>BOND
     1    55    54   ar
     2    47    46    2
     3    22    23    1
     4    49    50    1
     5    49    43   am
     6    42    41    1
     7    42    45    1
     8    42    43    1
     9    46    45    1
    10    46    48   am
    11    32    30    1
    12    54    56   ar
    13    54    53    1
    14    31    30    1
    15    50    53    1
    16    50    51    1
    17    23    26    1
    18    23    24    1
    19    43    44    2
    20    30    29    2
    21    52    51    2
    22    26    27    1
    23    51    57   am
    24    29    28    1
    25    33    24   am
    26    33    34    1
    27    24    25    2
    28    27    28    1
    29    57    58    1
    30    40    38   am
    31    68    67    2
    32    34    37    1
    33    34    35    1
    34    37    38    1
    35    35    36    2
    36    63    62    1
    37    63    64    1
    38    78    77    2
    39    38    39    2
    40    58    61    1
    41    58    59    1
    42    62    61    1
    43    65    59   am
    44    65    66    1
    45    67    66    1
    46    77    79   am
    47    77    76    1
    48    70    69    1
    49    59    60    2
    50    72    73    1
    51    66    69    1
    52    69    71    1
    53    76    73    1
    54    73    74    1
    55    15    16    2
    56    15    14    1
    57    14    17    1
    58    14    13    1
    59    17    18    1
    60    12    11    2
    61    74    80   am
    62    74    75    2
    63    20    19    2
    64    80    81    1
    65    18    19    1
    66    13    11   am
    67    19    21   am
    68    11    10    1
    69    83    82    2
    70    81    84    1
    71    81    82    1
    72    85    84    1
    73    85    86    1
    74    87    86    1
    75    87    88    2
    76    10     9    1
    77    82    91   am
    78    89    88    1
    79    88    90    1
    80     9     3   am
    81     7     6   ar
    82    91    92    1
    83   105   106    1
    84   105   104    1
    85   101   100    1
    86   101   104    1
    87   101   102    1
    88    94    93    2
    89   100    93   am
    90   100   106    1
    91    93    92    1
    92     8     6   ar
    93     3     4    2
    94     3     2    1
    95     6     5    1
    96    92    95    1
    97   102   103    2
    98     1     2    1
    99     2     5    1
   100    95    96    1
   101    96    97    1
   102    97    98    1
   103    98    99    1
