@<TRIPOS>MOLECULE
tmp/4najA02.pdb
 87 83 0 0 0
SMALL
GASTEIGER

@<TRIPOS>ATOM
      1  N        -61.1050  -16.7660  -29.1080 N.3    14  ARG14      -0.1245
      2  CA       -61.1690  -16.7170  -27.6550 C.3    14  ARG14       0.1563
      3  C        -60.7150  -15.3610  -27.1530 C.2    14  ARG14       0.2260
      4  O        -59.8300  -14.7460  -27.7340 O.2    14  ARG14      -0.2867
      5  CB       -60.3110  -17.8160  -27.0410 C.3    14  ARG14       0.0307
      6  CG       -60.4830  -19.1660  -27.6870 C.3    14  ARG14       0.0489
      7  CD       -59.4110  -20.1280  -27.2010 C.3    14  ARG14       0.2205
      8  NE       -59.6970  -21.5040  -27.5970 N.pl3  14  ARG14      -0.0865
      9  CZ       -60.3920  -22.3610  -26.8580 C.cat  14  ARG14       0.5346
     10  NH1      -60.6200  -23.5900  -27.3030 N.pl3  14  ARG14       0.1354
     11  NH2      -60.8610  -21.9840  -25.6760 N.pl3  14  ARG14       0.1354
     12  N        -59.6080  -12.9910  -23.5550 N.3    16  LEU16      -0.1245
     13  CA       -58.8680  -13.2670  -22.3450 C.3    16  LEU16       0.1561
     14  C        -58.1950  -12.0030  -21.8080 C.2    16  LEU16       0.2260
     15  O        -57.7290  -11.1520  -22.5760 O.2    16  LEU16      -0.2867
     16  CB       -57.8500  -14.3610  -22.6420 C.3    16  LEU16       0.0270
     17  CG       -56.9820  -14.9570  -21.5560 C.3    16  LEU16       0.0019
     18  CD1      -57.1010  -16.4540  -21.6460 C.3    16  LEU16       0.0001
     19  CD2      -55.5430  -14.5280  -21.7860 C.3    16  LEU16       0.0001
     20  N        -54.1610  -13.9070  -14.9470 N.3    32  PHE32      -0.1227
     21  CA       -55.4530  -13.7710  -15.6180 C.3    32  PHE32       0.1736
     22  C        -56.3600  -12.8510  -14.8100 C.2    32  PHE32       0.2595
     23  O        -57.3580  -12.3350  -15.3200 O.2    32  PHE32      -0.2718
     24  CB       -56.1390  -15.1260  -15.7840 C.3    32  PHE32       0.0547
     25  CG       -55.4930  -16.0270  -16.7950 C.ar   32  PHE32      -0.0202
     26  CD1      -54.8380  -15.5100  -17.8980 C.ar   32  PHE32      -0.0042
     27  CD2      -55.5500  -17.4010  -16.6440 C.ar   32  PHE32      -0.0042
     28  CE1      -54.2470  -16.3520  -18.8300 C.ar   32  PHE32      -0.0003
     29  CE2      -54.9680  -18.2430  -17.5700 C.ar   32  PHE32      -0.0003
     30  CZ       -54.3120  -17.7200  -18.6590 C.ar   32  PHE32      -0.0000
     31  N        -56.0120  -12.6750  -13.5380 N.am   33  GLU33      -0.1979
     32  CA       -56.7680  -11.8380  -12.6230 C.3    33  GLU33       0.1602
     33  C        -55.8500  -10.9310  -11.8270 C.2    33  GLU33       0.2287
     34  O        -54.7950  -11.3630  -11.3710 O.2    33  GLU33      -0.2864
     35  CB       -57.5850  -12.6960  -11.6620 C.3    33  GLU33       0.0415
     36  CG       -58.7950  -13.3560  -12.2830 C.3    33  GLU33       0.1163
     37  CD       -59.4970  -14.2940  -11.3160 C.2    33  GLU33       0.3649
     38  OE1      -58.8010  -15.1300  -10.6930 O.co2  33  GLU33      -0.2457
     39  OE2      -60.7400  -14.1940  -11.1730 O.co2  33  GLU33      -0.2457
     40  N        -50.5870  -20.9300  -17.6200 N.3    43  LEU43      -0.1231
     41  CA       -50.5520  -21.6400  -18.8810 C.3    43  LEU43       0.1693
     42  C        -51.6210  -21.0880  -19.8030 C.2    43  LEU43       0.2592
     43  O        -52.7400  -20.8260  -19.3820 O.2    43  LEU43      -0.2718
     44  CB       -50.7710  -23.1430  -18.6820 C.3    43  LEU43       0.0284
     45  CG       -50.8740  -23.9370  -19.9920 C.3    43  LEU43       0.0019
     46  CD1      -49.5310  -23.9600  -20.7040 C.3    43  LEU43       0.0001
     47  CD2      -51.3640  -25.3420  -19.7710 C.3    43  LEU43       0.0001
     48  N        -51.2670  -20.9020  -21.0600 N.am   44  ILE44      -0.1966
     49  CA       -52.2520  -20.6050  -22.0760 C.3    44  ILE44       0.1727
     50  C        -52.2360  -21.7460  -23.0650 C.2    44  ILE44       0.2616
     51  O        -51.2350  -21.9520  -23.7420 O.2    44  ILE44      -0.2715
     52  CB       -51.9530  -19.2870  -22.7820 C.3    44  ILE44       0.0290
     53  CG1      -51.9780  -18.1370  -21.7670 C.3    44  ILE44       0.0022
     54  CG2      -52.9510  -19.0550  -23.8690 C.3    44  ILE44       0.0023
     55  CD1      -51.7020  -16.7590  -22.3500 C.3    44  ILE44       0.0001
     56  N        -53.3190  -22.5080  -23.1340 N.am   45  GLU45      -0.1963
     57  CA       -53.3920  -23.6310  -24.0640 C.3    45  GLU45       0.1733
     58  C        -54.5220  -23.4380  -25.0740 C.2    45  GLU45       0.2616
     59  O        -55.6550  -23.2010  -24.6800 O.2    45  GLU45      -0.2715
     60  CB       -53.5810  -24.9470  -23.2980 C.3    45  GLU45       0.0429
     61  CG       -53.8660  -26.1530  -24.1910 C.3    45  GLU45       0.1163
     62  CD       -54.0160  -27.4610  -23.4230 C.2    45  GLU45       0.3649
     63  OE1      -53.4760  -27.5630  -22.2930 O.co2  45  GLU45      -0.2457
     64  OE2      -54.6770  -28.3890  -23.9560 O.co2  45  GLU45      -0.2457
     65  N        -54.2090  -23.5320  -26.3680 N.am   46  VAL46      -0.1963
     66  CA       -55.2120  -23.4080  -27.4350 C.3    46  VAL46       0.1727
     67  C        -55.0730  -24.5210  -28.4730 C.2    46  VAL46       0.2616
     68  O        -54.1130  -25.2930  -28.4390 O.2    46  VAL46      -0.2715
     69  CB       -55.1050  -22.0550  -28.1780 C.3    46  VAL46       0.0290
     70  CG1      -55.2010  -20.8840  -27.2060 C.3    46  VAL46       0.0023
     71  CG2      -53.8010  -21.9890  -28.9800 C.3    46  VAL46       0.0023
     72  N        -56.0180  -24.5920  -29.4070 N.am   47  ASN47      -0.1972
     73  CA       -55.9410  -25.5570  -30.5060 C.3    47  ASN47       0.1688
     74  C        -55.5840  -24.8980  -31.8360 C.2    47  ASN47       0.2292
     75  O        -55.9200  -23.7380  -32.0630 O.2    47  ASN47      -0.2864
     76  CB       -57.2620  -26.3050  -30.6650 C.3    47  ASN47       0.1181
     77  CG       -57.6720  -27.0480  -29.4110 C.2    47  ASN47       0.2629
     78  OD1      -56.8790  -27.7720  -28.7980 O.2    47  ASN47      -0.2716
     79  ND2      -58.9240  -26.8760  -29.0240 N.am   47  ASN47      -0.0877
     80  N        -56.6800  -15.8150  -30.4840 N.3    52  LEU52      -0.1245
     81  CA       -56.7340  -15.3870  -29.1040 C.3    52  LEU52       0.1561
     82  C        -56.5200  -13.8720  -29.0150 C.2    52  LEU52       0.2260
     83  O        -55.4970  -13.3520  -29.4770 O.2    52  LEU52      -0.2867
     84  CB       -55.6940  -16.1550  -28.2920 C.3    52  LEU52       0.0270
     85  CG       -55.6180  -15.9060  -26.7990 C.3    52  LEU52       0.0019
     86  CD1      -56.9860  -16.1000  -26.1860 C.3    52  LEU52       0.0001
     87  CD2      -54.6070  -16.8520  -26.1850 C.3    52  LEU52       0.0001
@<TRIPOS>BOND
     1    75    74    2
     2    74    73    1
     3    76    73    1
     4    76    77    1
     5    73    72    1
     6    80    81    1
     7    83    82    2
     8    77    79   am
     9    77    78    2
    10    72    67   am
    11     1     2    1
    12    81    82    1
    13    81    84    1
    14    71    69    1
    15    67    68    2
    16    67    66    1
    17    84    85    1
    18    69    66    1
    19    69    70    1
    20     4     3    2
    21     6     7    1
    22     6     5    1
    23     2     3    1
    24     2     5    1
    25     8     7    1
    26     8     9    2
    27    66    65    1
    28    10     9    1
    29     9    11    1
    30    85    86    1
    31    85    87    1
    32    65    58   am
    33    58    59    2
    34    58    57    1
    35    61    62    1
    36    61    60    1
    37    57    60    1
    38    57    56    1
    39    64    62   ar
    40    54    52    1
    41    51    50    2
    42    12    13    1
    43    62    63   ar
    44    56    50   am
    45    50    49    1
    46    52    49    1
    47    52    53    1
    48    16    13    1
    49    16    17    1
    50    15    14    2
    51    55    53    1
    52    13    14    1
    53    49    48    1
    54    19    17    1
    55    18    17    1
    56    48    42   am
    57    46    45    1
    58    45    47    1
    59    45    44    1
    60    42    43    2
    61    42    41    1
    62    41    44    1
    63    41    40    1
    64    28    30   ar
    65    28    26   ar
    66    30    29   ar
    67    26    25   ar
    68    29    27   ar
    69    25    27   ar
    70    25    24    1
    71    24    21    1
    72    21    20    1
    73    21    22    1
    74    23    22    2
    75    22    31   am
    76    31    32    1
    77    32    33    1
    78    32    35    1
    79    36    35    1
    80    36    37    1
    81    33    34    2
    82    37    39   ar
    83    37    38   ar
