@<TRIPOS>MOLECULE
tmp/4najA04.pdb
 112 108 0 0 0
SMALL
GASTEIGER

@<TRIPOS>ATOM
      1  N        -44.7870   -7.5380   -7.7490 N.3    23  LEU23      -0.1245
      2  CA       -45.1200   -8.3140   -6.5750 C.3    23  LEU23       0.1561
      3  C        -44.4740   -7.6770   -5.3790 C.2    23  LEU23       0.2260
      4  O        -43.4920   -6.9580   -5.5170 O.2    23  LEU23      -0.2867
      5  CB       -44.6540   -9.7510   -6.7220 C.3    23  LEU23       0.0270
      6  CG       -45.2040  -10.4560   -7.9520 C.3    23  LEU23       0.0019
      7  CD1      -44.9660  -11.9350   -7.8120 C.3    23  LEU23       0.0001
      8  CD2      -46.6760  -10.1480   -8.1410 C.3    23  LEU23       0.0001
      9  N        -42.4800   -8.5220   -3.1730 N.3    25  ASP25      -0.1239
     10  CA       -41.0590   -8.7560   -2.8840 C.3    25  ASP25       0.1674
     11  C        -40.0980   -8.2350   -3.9520 C.2    25  ASP25       0.2266
     12  O        -38.8880   -8.3520   -3.8010 O.2    25  ASP25      -0.2867
     13  CB       -40.7960  -10.2460   -2.6700 C.3    25  ASP25       0.1410
     14  CG       -40.9400  -11.0590   -3.9450 C.2    25  ASP25       0.3668
     15  OD1      -41.5690  -10.5670   -4.9070 O.co2  25  ASP25      -0.2456
     16  OD2      -40.4370  -12.2020   -3.9740 O.co2  25  ASP25      -0.2456
     17  N        -40.5190   -8.8840   -7.4100 N.3    27  GLN27      -0.1245
     18  CA       -40.5970   -9.6210   -8.6510 C.3    27  GLN27       0.1566
     19  C        -41.7380   -9.0880   -9.4920 C.2    27  GLN27       0.2260
     20  O        -42.4530   -8.1860   -9.0740 O.2    27  GLN27      -0.2867
     21  CB       -40.7580  -11.1020   -8.3670 C.3    27  GLN27       0.0367
     22  CG       -39.6600  -11.6210   -7.4750 C.3    27  GLN27       0.0905
     23  CD       -39.6360  -13.1200   -7.4070 C.2    27  GLN27       0.2608
     24  OE1      -38.8760  -13.7740   -8.1150 O.2    27  GLN27      -0.2717
     25  NE2      -40.4770  -13.6810   -6.5600 N.am   27  GLN27      -0.0878
     26  N        -51.3270  -12.8890   -9.7210 N.3    37  ALA37      -0.1231
     27  CA       -50.2120  -13.0100  -10.6440 C.3    37  ALA37       0.1694
     28  C        -49.2580  -14.0810  -10.1520 C.2    37  ALA37       0.2593
     29  O        -49.0170  -14.1960   -8.9500 O.2    37  ALA37      -0.2718
     30  CB       -49.4960  -11.6830  -10.7960 C.3    37  ALA37       0.0304
     31  N        -48.7110  -14.8600  -11.0820 N.am   38  SER38      -0.1938
     32  CA       -47.7770  -15.9240  -10.7360 C.3    38  SER38       0.2055
     33  C        -46.4930  -15.9420  -11.5760 C.2    38  SER38       0.2643
     34  O        -46.4450  -15.4230  -12.6910 O.2    38  SER38      -0.2714
     35  CB       -48.4720  -17.2700  -10.8590 C.3    38  SER38       0.2130
     36  OG       -48.9960  -17.4350  -12.1610 O.3    38  SER38      -0.2179
     37  N        -45.4560  -16.5490  -11.0150 N.am   39  VAL39      -0.1963
     38  CA       -44.2210  -16.8230  -11.7220 C.3    39  VAL39       0.1712
     39  C        -43.9250  -18.3100  -11.6390 C.2    39  VAL39       0.2458
     40  O        -43.5560  -18.8040  -10.5690 O.2    39  VAL39      -0.2730
     41  CB       -43.0450  -16.0640  -11.1230 C.3    39  VAL39       0.0289
     42  CG1      -41.7680  -16.3600  -11.9140 C.3    39  VAL39       0.0023
     43  CG2      -43.3390  -14.5830  -11.0710 C.3    39  VAL39       0.0023
     44  N        -44.0480  -19.0410  -12.7560 N.am   40  PRO40      -0.2716
     45  CA       -44.4060  -18.6490  -14.1270 C.3    40  PRO40       0.1536
     46  C        -45.8130  -18.1340  -14.2240 C.2    40  PRO40       0.2599
     47  O        -46.6340  -18.4550  -13.3700 O.2    40  PRO40      -0.2715
     48  CB       -44.2840  -19.9530  -14.9190 C.3    40  PRO40       0.0310
     49  CG       -43.4010  -20.8370  -14.0720 C.3    40  PRO40       0.0237
     50  CD       -43.6770  -20.4650  -12.6610 C.3    40  PRO40       0.0939
     51  N        -46.0860  -17.3450  -15.2520 N.am   41  GLY41      -0.1941
     52  CA       -47.4320  -16.8730  -15.4800 C.3    41  GLY41       0.1998
     53  C        -48.2800  -18.0640  -15.8660 C.2    41  GLY41       0.2481
     54  O        -47.7490  -19.1330  -16.1710 O.2    41  GLY41      -0.2729
     55  N        -49.6040  -17.8900  -15.8560 N.am   42  PRO42      -0.2715
     56  CA       -50.5380  -18.9740  -16.1740 C.3    42  PRO42       0.1536
     57  C        -50.2950  -19.6360  -17.5450 C.2    42  PRO42       0.2598
     58  O        -49.8400  -18.9960  -18.4960 O.2    42  PRO42      -0.2715
     59  CB       -51.9030  -18.2760  -16.1400 C.3    42  PRO42       0.0310
     60  CG       -51.6090  -16.8100  -16.2810 C.3    42  PRO42       0.0237
     61  CD       -50.3020  -16.6230  -15.5810 C.3    42  PRO42       0.0939
     62  N        -50.5870  -20.9300  -17.6200 N.am   43  LEU43      -0.1978
     63  CA       -50.5520  -21.6400  -18.8810 C.3    43  LEU43       0.1596
     64  C        -51.6210  -21.0880  -19.8030 C.2    43  LEU43       0.2287
     65  O        -52.7400  -20.8260  -19.3820 O.2    43  LEU43      -0.2864
     66  CB       -50.7710  -23.1430  -18.6820 C.3    43  LEU43       0.0297
     67  CG       -50.8740  -23.9370  -19.9920 C.3    43  LEU43       0.0022
     68  CD1      -49.5310  -23.9600  -20.7040 C.3    43  LEU43       0.0001
     69  CD2      -51.3640  -25.3420  -19.7710 C.3    43  LEU43       0.0001
     70  N        -45.1070  -26.7300  -15.3710 N.3   157  THR157     -0.1218
     71  CA       -44.1110  -25.9070  -16.0380 C.3   157  THR157      0.1862
     72  C        -42.8240  -25.7730  -15.2400 C.2   157  THR157      0.2287
     73  O        -42.8270  -25.3690  -14.0740 O.2   157  THR157     -0.2866
     74  CB       -44.6440  -24.5180  -16.3310 C.3   157  THR157      0.1770
     75  OG1      -45.9080  -24.6350  -16.9940 O.3   157  THR157     -0.2211
     76  CG2      -43.6690  -23.7750  -17.2210 C.3   157  THR157      0.0375
     77  N        -38.0460  -21.5360  -11.7460 N.3   166  ASN166     -0.1225
     78  CA       -39.2430  -20.7400  -11.5110 C.3   166  ASN166      0.1785
     79  C        -39.0380  -19.5860  -10.5150 C.2   166  ASN166      0.2597
     80  O        -39.9370  -19.2390   -9.7450 O.2   166  ASN166     -0.2718
     81  CB       -40.3760  -21.6640  -11.0560 C.3   166  ASN166      0.1169
     82  CG       -40.8380  -22.6020  -12.1700 C.2   166  ASN166      0.2627
     83  OD1      -40.2970  -22.5830  -13.2780 O.2   166  ASN166     -0.2716
     84  ND2      -41.8380  -23.4210  -11.8830 N.am  166  ASN166     -0.0877
     85  N        -37.8450  -18.9970  -10.5620 N.am  167  ASN167     -0.1960
     86  CA       -37.4520  -17.8630   -9.7190 C.3   167  ASN167      0.1819
     87  C        -37.4180  -18.1880   -8.2380 C.2   167  ASN167      0.2621
     88  O        -37.3400  -17.2860   -7.4110 O.2   167  ASN167     -0.2715
     89  CB       -38.3650  -16.6500   -9.9430 C.3   167  ASN167      0.1195
     90  CG       -37.9430  -15.8110  -11.1410 C.2   167  ASN167      0.2630
     91  OD1      -37.7270  -16.3290  -12.2290 O.2   167  ASN167     -0.2716
     92  ND2      -37.8200  -14.5120  -10.9400 N.am  167  ASN167     -0.0877
     93  N        -37.4410  -19.4700   -7.9000 N.am  168  ARG168     -0.1963
     94  CA       -37.3700  -19.8650   -6.5000 C.3   168  ARG168      0.1729
     95  C        -35.9730  -19.8050   -5.9020 C.2   168  ARG168      0.2616
     96  O        -34.9720  -19.9610   -6.6050 O.2   168  ARG168     -0.2715
     97  CB       -37.8970  -21.2660   -6.3330 C.3   168  ARG168      0.0348
     98  CG       -39.3670  -21.3680   -6.4230 C.3   168  ARG168      0.0492
     99  CD       -39.6760  -22.7990   -6.2070 C.3   168  ARG168      0.2205
    100  NE       -41.0920  -23.1000   -6.2930 N.pl3 168  ARG168     -0.0865
    101  CZ       -41.8720  -23.2460   -5.2340 C.cat 168  ARG168      0.5346
    102  NH1      -43.1620  -23.5410   -5.3930 N.pl3 168  ARG168      0.1354
    103  NH2      -41.3490  -23.0970   -4.0220 N.pl3 168  ARG168      0.1354
    104  N        -35.9200  -19.5950   -4.5890 N.am  169  LYS169     -0.1977
    105  CA       -34.6640  -19.6380   -3.8540 C.3   169  LYS169      0.1596
    106  C        -34.0730  -21.0230   -4.0110 C.2   169  LYS169      0.2287
    107  O        -34.8140  -21.9920   -4.1510 O.2   169  LYS169     -0.2864
    108  CB       -34.8770  -19.2920   -2.3810 C.3   169  LYS169      0.0298
    109  CG       -35.1540  -17.8170   -2.1430 C.3   169  LYS169      0.0038
    110  CD       -35.1480  -17.4640   -0.6660 C.3   169  LYS169      0.0206
    111  CE       -35.2070  -15.9510   -0.4640 C.3   169  LYS169      0.1093
    112  NZ       -35.2460  -15.5800    0.9860 N.3   169  LYS169     -0.1314
@<TRIPOS>BOND
     1    68    67    1
     2    67    69    1
     3    67    66    1
     4    64    65    2
     5    64    63    1
     6    63    66    1
     7    63    62    1
     8    58    57    2
     9    62    57   am
    10    57    56    1
    11    76    74    1
    12    75    74    1
    13    74    71    1
    14    60    59    1
    15    60    61    1
    16    56    59    1
    17    56    55    1
    18    54    53    2
    19    71    70    1
    20    71    72    1
    21    53    55   am
    22    53    52    1
    23    55    61    1
    24    52    51    1
    25    51    46   am
    26    72    73    2
    27    48    45    1
    28    48    49    1
    29    46    45    1
    30    46    47    2
    31    45    44    1
    32    49    50    1
    33    83    82    2
    34    44    50    1
    35    44    39   am
    36    34    33    2
    37    91    90    2
    38    82    84   am
    39    82    81    1
    40    36    35    1
    41    42    41    1
    42    77    78    1
    43    38    39    1
    44    38    41    1
    45    38    37    1
    46    39    40    2
    47    33    37   am
    48    33    32    1
    49    78    81    1
    50    78    79    1
    51    90    92   am
    52    90    89    1
    53    41    43    1
    54    31    32    1
    55    31    28   am
    56    35    32    1
    57    30    27    1
    58    27    28    1
    59    27    26    1
    60    85    79   am
    61    85    86    1
    62    79    80    2
    63    28    29    2
    64    89    86    1
    65    86    87    1
    66    19    20    2
    67    19    18    1
    68    18    21    1
    69    18    17    1
    70    21    22    1
    71    87    93   am
    72    87    88    2
    73     8     6    1
    74    24    23    2
    75     6     7    1
    76     6     5    1
    77    93    94    1
    78     1     2    1
    79    22    23    1
    80    23    25   am
    81     5     2    1
    82    96    95    2
    83     2     3    1
    84    94    97    1
    85    94    95    1
    86    98    97    1
    87    98    99    1
    88   100    99    1
    89   100   101    2
    90    95   104   am
    91     4     3    2
    92   102   101    1
    93   101   103    1
    94    15    14   ar
    95   104   105    1
    96   107   106    2
    97   106   105    1
    98    16    14   ar
    99    11    12    2
   100    11    10    1
   101    14    13    1
   102   105   108    1
   103     9    10    1
   104    10    13    1
   105   108   109    1
   106   109   110    1
   107   110   111    1
   108   111   112    1
