@<TRIPOS>MOLECULE
tmp/4nalA00.pdb
 139 129 0 0 0
SMALL
GASTEIGER

@<TRIPOS>ATOM
      1  N          9.5860   13.7600  -17.7670 N.3    74  ARG74      -0.1231
      2  CA         9.8330   15.1980  -17.6350 C.3    74  ARG74       0.1694
      3  C          8.8640   15.8650  -16.6520 C.2    74  ARG74       0.2591
      4  O          9.2880   16.6440  -15.7990 O.2    74  ARG74      -0.2718
      5  CB         9.7780   15.8780  -19.0120 C.3    74  ARG74       0.0321
      6  CG        10.1430   17.3560  -19.0180 C.3    74  ARG74       0.0489
      7  CD        11.6450   17.5670  -19.1110 C.3    74  ARG74       0.2205
      8  NE        12.1140   17.6890  -20.4900 N.pl3  74  ARG74      -0.0865
      9  CZ        13.3870   17.8590  -20.8420 C.cat  74  ARG74       0.5346
     10  NH1       13.7110   17.9610  -22.1240 N.pl3  74  ARG74       0.1354
     11  NH2       14.3400   17.9230  -19.9190 N.pl3  74  ARG74       0.1354
     12  N          7.5740   15.5460  -16.7650 N.am   75  GLN75      -0.1979
     13  CA         6.5480   16.1390  -15.8930 C.3    75  GLN75       0.1601
     14  C          6.7020   15.7600  -14.4130 C.2    75  GLN75       0.2287
     15  O          6.3150   16.5310  -13.5300 O.2    75  GLN75      -0.2864
     16  CB         5.1270   15.8410  -16.4010 C.3    75  GLN75       0.0394
     17  CG         4.7060   14.3740  -16.3770 C.3    75  GLN75       0.0908
     18  CD         5.0740   13.6120  -17.6410 C.2    75  GLN75       0.2608
     19  OE1        5.9510   14.0200  -18.4080 O.2    75  GLN75      -0.2717
     20  NE2        4.3980   12.4920  -17.8640 N.am   75  GLN75      -0.0878
     21  N          9.4050   18.0590  -13.1450 N.3    78  VAL78      -0.1245
     22  CA         8.7910   19.3660  -12.8860 C.3    78  VAL78       0.1561
     23  C          8.0440   19.3630  -11.5520 C.2    78  VAL78       0.2260
     24  O          8.2090   20.2800  -10.7500 O.2    78  VAL78      -0.2867
     25  CB         7.8500   19.8210  -14.0260 C.3    78  VAL78       0.0252
     26  CG1        7.0730   21.0660  -13.6160 C.3    78  VAL78       0.0019
     27  CG2        8.6420   20.0860  -15.2940 C.3    78  VAL78       0.0019
     28  N         10.2710   27.1530  -16.0390 N.3    94  ILE94      -0.1245
     29  CA        10.7830   25.8020  -16.3130 C.3    94  ILE94       0.1561
     30  C         11.7410   25.8430  -17.5060 C.2    94  ILE94       0.2260
     31  O         11.3670   26.2970  -18.5840 O.2    94  ILE94      -0.2867
     32  CB         9.6270   24.8090  -16.5950 C.3    94  ILE94       0.0252
     33  CG1        8.6480   24.7660  -15.4130 C.3    94  ILE94       0.0019
     34  CG2       10.1680   23.4150  -16.8980 C.3    94  ILE94       0.0019
     35  CD1        7.2480   24.3120  -15.7820 C.3    94  ILE94       0.0001
     36  N          0.5130   31.8750  -18.4120 N.3   119  ALA119     -0.1231
     37  CA         1.3570   30.8320  -18.9820 C.3   119  ALA119      0.1694
     38  C          1.9090   31.3530  -20.2980 C.2   119  ALA119      0.2592
     39  O          1.1660   31.9200  -21.1050 O.2   119  ALA119     -0.2718
     40  CB         0.5500   29.5650  -19.2210 C.3   119  ALA119      0.0304
     41  N          3.2110   31.1810  -20.5030 N.am  120  ALA120     -0.1966
     42  CA         3.8640   31.6020  -21.7370 C.3   120  ALA120      0.1728
     43  C          5.0670   30.7180  -22.0350 C.2   120  ALA120      0.2616
     44  O          5.6810   30.1470  -21.1290 O.2   120  ALA120     -0.2715
     45  CB         4.2790   33.0690  -21.6710 C.3   120  ALA120      0.0334
     46  N          5.3970   30.6080  -23.3160 N.am  121  VAL121     -0.1977
     47  CA         6.4950   29.7490  -23.7400 C.3   121  VAL121      0.1596
     48  C          7.2200   30.4310  -24.8900 C.2   121  VAL121      0.2287
     49  O          6.5820   31.0520  -25.7450 O.2   121  VAL121     -0.2864
     50  CB         5.9790   28.3430  -24.1300 C.3   121  VAL121      0.0276
     51  CG1        4.8620   28.4350  -25.1720 C.3   121  VAL121      0.0022
     52  CG2        7.1130   27.4400  -24.6150 C.3   121  VAL121      0.0022
     53  N          8.2650   25.0640  -30.3120 N.3   147  MET147     -0.1245
     54  CA         8.3610   25.4530  -28.8970 C.3   147  MET147      0.1570
     55  C          9.7770   25.2840  -28.3540 C.2   147  MET147      0.2261
     56  O         10.4710   24.3180  -28.6700 O.2   147  MET147     -0.2867
     57  CB         7.3830   24.6500  -28.0330 C.3   147  MET147      0.0387
     58  CG         5.9180   24.7450  -28.4390 C.3   147  MET147      0.0595
     59  SD         5.1940   26.3760  -28.1890 S.3   147  MET147     -0.1393
     60  CE         5.5250   27.1670  -29.7600 C.3   147  MET147      0.0692
     61  N          9.4820   27.6870  -20.2790 N.3   151  GLN151     -0.1231
     62  CA         8.0350   27.6300  -20.2430 C.3   151  GLN151      0.1698
     63  C          7.6510   28.1860  -18.8650 C.2   151  GLN151      0.2592
     64  O          8.0790   27.6760  -17.8250 O.2   151  GLN151     -0.2718
     65  CB         7.5690   26.1930  -20.4950 C.3   151  GLN151      0.0381
     66  CG         8.2130   25.6310  -21.7650 C.3   151  GLN151      0.0905
     67  CD         7.7420   24.2530  -22.1780 C.2   151  GLN151      0.2608
     68  OE1        7.3490   23.4360  -21.3490 O.2   151  GLN151     -0.2717
     69  NE2        7.8060   23.9800  -23.4830 N.am  151  GLN151     -0.0878
     70  N          6.8790   29.2670  -18.8830 N.am  152  VAL152     -0.1966
     71  CA         6.6380   30.0980  -17.7090 C.3   152  VAL152      0.1727
     72  C          5.1700   29.9760  -17.3200 C.2   152  VAL152      0.2616
     73  O          4.2820   30.1400  -18.1580 O.2   152  VAL152     -0.2715
     74  CB         7.0050   31.5720  -18.0070 C.3   152  VAL152      0.0290
     75  CG1        6.6320   32.4840  -16.8480 C.3   152  VAL152      0.0023
     76  CG2        8.4890   31.6960  -18.3220 C.3   152  VAL152      0.0023
     77  N          4.9210   29.6740  -16.0510 N.am  153  ILE153     -0.1977
     78  CA         3.5660   29.4140  -15.5810 C.3   153  ILE153      0.1596
     79  C          3.4070   29.8600  -14.1250 C.2   153  ILE153      0.2287
     80  O          4.3160   29.6960  -13.3070 O.2   153  ILE153     -0.2864
     81  CB         3.1740   27.9200  -15.7880 C.3   153  ILE153      0.0276
     82  CG1        1.6920   27.6760  -15.4810 C.3   153  ILE153      0.0022
     83  CG2        4.0820   26.9840  -14.9850 C.3   153  ILE153      0.0022
     84  CD1        1.1450   26.3810  -16.0470 C.3   153  ILE153      0.0001
     85  N         -0.1080   25.7410  -12.4230 N.3   158  LEU158     -0.1245
     86  CA         0.6310   24.4870  -12.5700 C.3   158  LEU158      0.1561
     87  C          0.1320   23.4210  -11.5890 C.2   158  LEU158      0.2260
     88  O         -0.0740   22.2650  -11.9780 O.2   158  LEU158     -0.2867
     89  CB         2.1400   24.7290  -12.4120 C.3   158  LEU158      0.0270
     90  CG         3.1210   23.5740  -12.6440 C.3   158  LEU158      0.0019
     91  CD1        2.9970   23.0050  -14.0480 C.3   158  LEU158      0.0001
     92  CD2        4.5440   24.0450  -12.3890 C.3   158  LEU158      0.0001
     93  N         -1.5500   19.6570  -12.4130 N.3   162  PHE162     -0.1241
     94  CA        -1.1460   18.3730  -11.8400 C.3   162  PHE162      0.1605
     95  C         -2.3070   17.6610  -11.1420 C.2   162  PHE162      0.2264
     96  O         -2.4340   16.4380  -11.2400 O.2   162  PHE162     -0.2867
     97  CB         0.0360   18.5490  -10.8800 C.3   162  PHE162      0.0534
     98  CG         1.3710   18.6420  -11.5680 C.ar  162  PHE162     -0.0203
     99  CD1        1.8750   17.5620  -12.2860 C.ar  162  PHE162     -0.0042
    100  CD2        2.1290   19.8060  -11.4930 C.ar  162  PHE162     -0.0042
    101  CE1        3.1040   17.6430  -12.9200 C.ar  162  PHE162     -0.0003
    102  CE2        3.3630   19.8920  -12.1230 C.ar  162  PHE162     -0.0003
    103  CZ         3.8500   18.8120  -12.8390 C.ar  162  PHE162     -0.0000
    104  N          4.8960   14.8170  -24.4360 N.3   174  ASP174     -0.1239
    105  CA         5.6200   16.0750  -24.6060 C.3   174  ASP174      0.1674
    106  C          4.7780   17.1030  -25.3640 C.2   174  ASP174      0.2266
    107  O          4.8010   18.2900  -25.0320 O.2   174  ASP174     -0.2867
    108  CB         6.9630   15.8560  -25.3090 C.3   174  ASP174      0.1410
    109  CG         7.9450   16.9970  -25.0660 C.2   174  ASP174      0.3668
    110  OD1        7.6550   17.8780  -24.2230 O.co2 174  ASP174     -0.2456
    111  OD2        9.0190   17.0140  -25.7090 O.co2 174  ASP174     -0.2456
    112  N          0.8980   18.2600  -23.0360 N.3   177  SER177     -0.1202
    113  CA         1.3880   18.4660  -21.6780 C.3   177  SER177      0.2020
    114  C          0.2620   18.8800  -20.7300 C.2   177  SER177      0.2619
    115  O         -0.9120   18.8890  -21.1090 O.2   177  SER177     -0.2717
    116  CB         2.5010   19.5170  -21.6740 C.3   177  SER177      0.2103
    117  OG         2.0240   20.7540  -22.1710 O.3   177  SER177     -0.2182
    118  N          0.6420   19.2180  -19.4990 N.am  178  ILE178     -0.1965
    119  CA        -0.2770   19.6760  -18.4560 C.3   178  ILE178      0.1727
    120  C         -1.2150   20.7790  -18.9670 C.2   178  ILE178      0.2616
    121  O         -2.4340   20.6890  -18.8010 O.2   178  ILE178     -0.2715
    122  CB         0.5150   20.1640  -17.2120 C.3   178  ILE178      0.0290
    123  CG1        1.2690   19.0050  -16.5300 C.3   178  ILE178      0.0022
    124  CG2       -0.3700   20.9470  -16.2450 C.3   178  ILE178      0.0023
    125  CD1        0.4250   18.0430  -15.7190 C.3   178  ILE178      0.0001
    126  N         -0.6410   21.7940  -19.6120 N.am  179  VAL179     -0.1977
    127  CA        -1.3990   22.9730  -20.0660 C.3   179  VAL179      0.1596
    128  C         -2.4330   22.6970  -21.1640 C.2   179  VAL179      0.2287
    129  O         -3.4190   23.4310  -21.2890 O.2   179  VAL179     -0.2864
    130  CB        -0.4710   24.1260  -20.5190 C.3   179  VAL179      0.0276
    131  CG1        0.2460   24.7340  -19.3250 C.3   179  VAL179      0.0022
    132  CG2        0.5230   23.6540  -21.5740 C.3   179  VAL179      0.0022
    133  N         -2.2970   29.9270  -23.2230 N.3   186  VAL186     -0.1245
    134  CA        -0.8450   29.8540  -23.2360 C.3   186  VAL186      0.1561
    135  C         -0.3360   30.7510  -24.3610 C.2   186  VAL186      0.2260
    136  O         -0.6560   30.5400  -25.5360 O.2   186  VAL186     -0.2867
    137  CB        -0.3330   28.4100  -23.4420 C.3   186  VAL186      0.0252
    138  CG1        1.1910   28.3920  -23.5010 C.3   186  VAL186      0.0019
    139  CG2       -0.8390   27.4920  -22.3340 C.3   186  VAL186      0.0019
@<TRIPOS>BOND
     1    53    54    1
     2    60    59    1
     3    54    55    1
     4    54    57    1
     5    56    55    2
     6    58    59    1
     7    58    57    1
     8    49    48    2
     9   111   109   ar
    10   136   135    2
    11   106   107    2
    12   106   105    1
    13   108   109    1
    14   108   105    1
    15    51    50    1
    16   109   110   ar
    17    48    47    1
    18    52    50    1
    19   105   104    1
    20   135   134    1
    21    50    47    1
    22    47    46    1
    23   138   137    1
    24    69    67   am
    25   137   134    1
    26   137   139    1
    27    46    43   am
    28   134   133    1
    29   112   113    1
    30    67    66    1
    31    67    68    2
    32   117   116    1
    33    10     9    1
    34    43    42    1
    35    43    44    2
    36    66    65    1
    37    42    45    1
    38    42    41    1
    39   113   116    1
    40   113   114    1
    41   132   130    1
    42   129   128    2
    43   128   127    1
    44   115   114    2
    45    39    38    2
    46     9     8    2
    47     9    11    1
    48   114   118   am
    49   130   127    1
    50   130   131    1
    51    41    38   am
    52    65    62    1
    53     8     7    1
    54    38    37    1
    55    61    62    1
    56    62    63    1
    57   127   126    1
    58   126   120   am
    59   118   119    1
    60    40    37    1
    61     7     6    1
    62     6     5    1
    63     5     2    1
    64    37    36    1
    65   120   121    2
    66   120   119    1
    67    70    63   am
    68    70    71    1
    69    63    64    2
    70    31    30    2
    71   119   122    1
    72    19    18    2
    73    76    74    1
    74    73    72    2
    75    74    71    1
    76    74    75    1
    77    20    18   am
    78     1     2    1
    79    71    72    1
    80    18    17    1
    81     2     3    1
    82    30    29    1
    83    72    77   am
    84   122   123    1
    85   122   124    1
    86    34    32    1
    87    12     3   am
    88    12    13    1
    89     3     4    2
    90    32    29    1
    91    32    33    1
    92   123   125    1
    93    16    17    1
    94    16    13    1
    95    29    28    1
    96    77    78    1
    97    84    82    1
    98    13    14    1
    99    81    78    1
   100    81    82    1
   101    81    83    1
   102    35    33    1
   103    78    79    1
   104    27    25    1
   105    14    15    2
   106    79    80    2
   107    91    90    1
   108    25    26    1
   109    25    22    1
   110    21    22    1
   111   101   103   ar
   112   101    99   ar
   113    22    23    1
   114   103   102   ar
   115    90    89    1
   116    90    92    1
   117    86    85    1
   118    86    89    1
   119    86    87    1
   120    93    94    1
   121    99    98   ar
   122   102   100   ar
   123    88    87    2
   124    94    95    1
   125    94    97    1
   126    98   100   ar
   127    98    97    1
   128    23    24    2
   129    96    95    2
