@<TRIPOS>MOLECULE
tmp/4nanA00.pdb
 139 129 0 0 0
SMALL
GASTEIGER

@<TRIPOS>ATOM
      1  N         16.0680   22.3470  -15.5590 N.3     9  LEU9       -0.1245
      2  CA        16.0450   20.9010  -15.7530 C.3     9  LEU9        0.1561
      3  C         17.4450   20.5270  -16.2010 C.2     9  LEU9        0.2260
      4  O         17.9270   20.9220  -17.2770 O.2     9  LEU9       -0.2867
      5  CB        14.9590   20.4380  -16.7330 C.3     9  LEU9        0.0270
      6  CG        13.5250   20.8590  -16.3110 C.3     9  LEU9        0.0019
      7  CD1       12.4580   20.7180  -17.4100 C.3     9  LEU9        0.0001
      8  CD2       13.0900   20.1200  -15.0910 C.3     9  LEU9        0.0001
      9  N          9.9640   14.1680  -17.7640 N.3    72  ARG72      -0.1231
     10  CA        10.2050   15.6010  -17.6000 C.3    72  ARG72       0.1694
     11  C          9.1600   16.2300  -16.6840 C.2    72  ARG72       0.2591
     12  O          9.4820   17.0680  -15.8700 O.2    72  ARG72      -0.2718
     13  CB        10.2460   16.2720  -18.9700 C.3    72  ARG72       0.0321
     14  CG        11.0660   17.5470  -19.0830 C.3    72  ARG72       0.0489
     15  CD        11.8750   17.5740  -20.3940 C.3    72  ARG72       0.2205
     16  NE        13.0520   18.4570  -20.3220 N.pl3  72  ARG72      -0.0865
     17  CZ        14.2780   18.1080  -19.8970 C.cat  72  ARG72       0.5346
     18  NH1       15.2490   19.0220  -19.8800 N.pl3  72  ARG72       0.1354
     19  NH2       14.5600   16.8640  -19.4860 N.pl3  72  ARG72       0.1354
     20  N          7.8960   15.8250  -16.7850 N.am   73  GLN73      -0.1979
     21  CA         6.8580   16.4360  -15.9310 C.3    73  GLN73       0.1601
     22  C          7.0280   16.0660  -14.4330 C.2    73  GLN73       0.2287
     23  O          6.6840   16.8350  -13.5510 O.2    73  GLN73      -0.2864
     24  CB         5.4290   16.1420  -16.4750 C.3    73  GLN73       0.0394
     25  CG         5.0410   14.6570  -16.5600 C.3    73  GLN73       0.0908
     26  CD         5.4930   13.9840  -17.8510 C.2    73  GLN73       0.2608
     27  OE1        6.3250   14.5200  -18.6610 O.2    73  GLN73      -0.2717
     28  NE2        4.9150   12.8110  -18.0900 N.am   73  GLN73      -0.0878
     29  N          9.6500   18.4360  -13.1530 N.3    76  VAL76      -0.1245
     30  CA         9.1050   19.7780  -12.9110 C.3    76  VAL76       0.1561
     31  C          8.3450   19.7460  -11.5990 C.2    76  VAL76       0.2260
     32  O          8.4570   20.6540  -10.8090 O.2    76  VAL76      -0.2867
     33  CB         8.1900   20.2560  -14.1140 C.3    76  VAL76       0.0252
     34  CG1        7.3780   21.4490  -13.7150 C.3    76  VAL76       0.0019
     35  CG2        9.0640   20.4850  -15.3210 C.3    76  VAL76       0.0019
     36  N         10.5360   27.5380  -16.1540 N.3    92  ILE92      -0.1245
     37  CA        11.0800   26.2120  -16.3660 C.3    92  ILE92       0.1561
     38  C         12.0020   26.2670  -17.5770 C.2    92  ILE92       0.2260
     39  O         11.6430   26.7290  -18.7080 O.2    92  ILE92      -0.2867
     40  CB         9.9650   25.2020  -16.6660 C.3    92  ILE92       0.0252
     41  CG1        8.9730   25.1670  -15.5770 C.3    92  ILE92       0.0019
     42  CG2       10.5440   23.8150  -16.9360 C.3    92  ILE92       0.0019
     43  CD1        7.6430   24.6440  -16.0940 C.3    92  ILE92       0.0001
     44  N          0.6850   32.2050  -18.5240 N.3   117  ALA117     -0.1231
     45  CA         1.5080   31.1150  -19.0810 C.3   117  ALA117      0.1694
     46  C          2.0630   31.6240  -20.4400 C.2   117  ALA117      0.2592
     47  O          1.3410   32.3290  -21.1600 O.2   117  ALA117     -0.2718
     48  CB         0.6640   29.8950  -19.2760 C.3   117  ALA117      0.0304
     49  N          3.3480   31.4220  -20.6850 N.am  118  ALA118     -0.1966
     50  CA         4.0490   31.8970  -21.9260 C.3   118  ALA118      0.1728
     51  C          5.2180   30.9680  -22.1920 C.2   118  ALA118      0.2616
     52  O          5.7390   30.3030  -21.2690 O.2   118  ALA118     -0.2715
     53  CB         4.4970   33.3020  -21.8470 C.3   118  ALA118      0.0334
     54  N          5.5750   30.8650  -23.4900 N.am  119  VAL119     -0.1977
     55  CA         6.6780   30.0390  -23.8980 C.3   119  VAL119      0.1596
     56  C          7.4270   30.7840  -24.9980 C.2   119  VAL119      0.2287
     57  O          6.8280   31.4800  -25.8120 O.2   119  VAL119     -0.2864
     58  CB         6.1250   28.6700  -24.3830 C.3   119  VAL119      0.0276
     59  CG1        5.0940   28.9130  -25.5150 C.3   119  VAL119      0.0022
     60  CG2        7.2640   27.7910  -24.8750 C.3   119  VAL119      0.0022
     61  N          8.5260   25.3380  -30.2950 N.3   144  MET144     -0.1245
     62  CA         8.5810   25.7940  -28.8960 C.3   144  MET144      0.1570
     63  C          9.9890   25.5830  -28.3520 C.2   144  MET144      0.2261
     64  O         10.6060   24.5050  -28.5370 O.2   144  MET144     -0.2867
     65  CB         7.6680   24.9630  -28.0410 C.3   144  MET144      0.0387
     66  CG         6.2240   24.8780  -28.4980 C.3   144  MET144      0.0595
     67  SD         5.3210   26.3820  -28.1900 S.3   144  MET144     -0.1393
     68  CE         5.7590   27.3400  -29.5860 C.3   144  MET144      0.0692
     69  N          9.6810   28.0470  -20.4470 N.3   148  GLN148     -0.1231
     70  CA         8.2140   27.9710  -20.2950 C.3   148  GLN148      0.1698
     71  C          7.8770   28.5730  -18.9200 C.2   148  GLN148      0.2592
     72  O          8.4200   28.1570  -17.8780 O.2   148  GLN148     -0.2718
     73  CB         7.8260   26.5140  -20.3750 C.3   148  GLN148      0.0381
     74  CG         8.1690   25.9160  -21.7180 C.3   148  GLN148      0.0905
     75  CD         8.1540   24.4030  -21.8270 C.2   148  GLN148      0.2608
     76  OE1        8.1400   23.6810  -20.8280 O.2   148  GLN148     -0.2717
     77  NE2        8.2990   23.9330  -23.0680 N.am  148  GLN148     -0.0878
     78  N          7.0530   29.6160  -18.9200 N.am  149  VAL149     -0.1966
     79  CA         6.8030   30.4920  -17.7900 C.3   149  VAL149      0.1727
     80  C          5.3380   30.3300  -17.4140 C.2   149  VAL149      0.2616
     81  O          4.3960   30.3650  -18.2940 O.2   149  VAL149     -0.2715
     82  CB         7.1850   31.9400  -18.1370 C.3   149  VAL149      0.0290
     83  CG1        6.9000   32.9150  -17.0280 C.3   149  VAL149      0.0023
     84  CG2        8.6350   32.0560  -18.4390 C.3   149  VAL149      0.0023
     85  N          5.0680   30.1130  -16.1220 N.am  150  ILE150     -0.1977
     86  CA         3.7260   29.8060  -15.6660 C.3   150  ILE150      0.1596
     87  C          3.5380   30.2690  -14.2280 C.2   150  ILE150      0.2287
     88  O          4.4620   30.1690  -13.4100 O.2   150  ILE150     -0.2864
     89  CB         3.3470   28.3400  -15.9040 C.3   150  ILE150      0.0276
     90  CG1        1.8830   28.0920  -15.5350 C.3   150  ILE150      0.0022
     91  CG2        4.2600   27.3980  -15.1370 C.3   150  ILE150      0.0022
     92  CD1        1.2530   26.8490  -16.1260 C.3   150  ILE150      0.0001
     93  N          0.1340   26.0760  -12.5350 N.3   155  LEU155     -0.1245
     94  CA         0.9040   24.8230  -12.6730 C.3   155  LEU155      0.1561
     95  C          0.3680   23.7300  -11.7670 C.2   155  LEU155      0.2260
     96  O          0.1280   22.5810  -12.2070 O.2   155  LEU155     -0.2867
     97  CB         2.3790   25.0910  -12.4290 C.3   155  LEU155      0.0270
     98  CG         3.3550   23.9390  -12.7340 C.3   155  LEU155      0.0019
     99  CD1        3.2130   23.3760  -14.1340 C.3   155  LEU155      0.0001
    100  CD2        4.7690   24.4930  -12.5270 C.3   155  LEU155      0.0001
    101  N         -1.1990   20.0950  -12.6130 N.3   159  PHE159     -0.1241
    102  CA        -0.7870   18.7870  -12.0830 C.3   159  PHE159      0.1605
    103  C         -1.9760   18.0350  -11.4300 C.2   159  PHE159      0.2264
    104  O         -2.1080   16.8170  -11.6070 O.2   159  PHE159     -0.2867
    105  CB         0.3370   18.9330  -11.0960 C.3   159  PHE159      0.0534
    106  CG         1.6760   19.0500  -11.7310 C.ar  159  PHE159     -0.0203
    107  CD1        2.2060   17.9990  -12.4050 C.ar  159  PHE159     -0.0042
    108  CD2        2.4070   20.2280  -11.6630 C.ar  159  PHE159     -0.0042
    109  CE1        3.4570   18.0710  -12.9780 C.ar  159  PHE159     -0.0003
    110  CE2        3.6410   20.3150  -12.2530 C.ar  159  PHE159     -0.0003
    111  CZ         4.1660   19.2380  -12.9260 C.ar  159  PHE159     -0.0000
    112  N          0.7860   18.7120  -23.6300 N.3   174  SER174     -0.1202
    113  CA         1.2100   19.2600  -22.4050 C.3   174  SER174      0.2020
    114  C          0.0200   19.2780  -21.4270 C.2   174  SER174      0.2619
    115  O         -1.1950   19.2120  -21.7670 O.2   174  SER174     -0.2717
    116  CB         1.6840   20.6940  -22.6350 C.3   174  SER174      0.2103
    117  OG         0.5660   21.4760  -23.0410 O.3   174  SER174     -0.2182
    118  N          0.4240   19.3840  -20.1940 N.am  175  ILE175     -0.1965
    119  CA        -0.4310   19.8150  -19.1030 C.3   175  ILE175      0.1727
    120  C         -1.2140   21.0820  -19.4020 C.2   175  ILE175      0.2616
    121  O         -2.3870   21.1680  -19.0400 O.2   175  ILE175     -0.2715
    122  CB         0.4510   20.0220  -17.8680 C.3   175  ILE175      0.0290
    123  CG1        0.9370   18.6380  -17.4120 C.3   175  ILE175      0.0022
    124  CG2       -0.2850   20.8320  -16.8110 C.3   175  ILE175      0.0023
    125  CD1        1.6090   18.5830  -16.0630 C.3   175  ILE175      0.0001
    126  N         -0.5770   22.0760  -20.0340 N.am  176  VAL176     -0.1977
    127  CA        -1.2850   23.3400  -20.3230 C.3   176  VAL176      0.1596
    128  C         -2.3070   23.2240  -21.4320 C.2   176  VAL176      0.2287
    129  O         -3.2460   24.0280  -21.5110 O.2   176  VAL176     -0.2864
    130  CB        -0.3440   24.5340  -20.6800 C.3   176  VAL176      0.0276
    131  CG1        0.3670   25.0350  -19.4330 C.3   176  VAL176      0.0022
    132  CG2        0.6130   24.2000  -21.8290 C.3   176  VAL176      0.0022
    133  N         -2.1420   30.2460  -23.3830 N.3   183  VAL183     -0.1245
    134  CA        -0.6590   30.2290  -23.3380 C.3   183  VAL183      0.1561
    135  C         -0.1200   31.1270  -24.4460 C.2   183  VAL183      0.2260
    136  O         -0.4160   30.8900  -25.6010 O.2   183  VAL183     -0.2867
    137  CB        -0.1460   28.8020  -23.5890 C.3   183  VAL183      0.0252
    138  CG1        1.3960   28.7810  -23.5230 C.3   183  VAL183      0.0019
    139  CG2       -0.7740   27.7870  -22.6430 C.3   183  VAL183      0.0019
@<TRIPOS>BOND
     1    61    62    1
     2    68    67    1
     3    62    63    1
     4    62    65    1
     5    64    63    2
     6    66    67    1
     7    66    65    1
     8    57    56    2
     9   136   135    2
    10    59    58    1
    11    56    55    1
    12    60    58    1
    13   135   134    1
    14    58    55    1
    15    55    54    1
    16   112   113    1
    17   137   138    1
    18   137   134    1
    19   137   139    1
    20    54    51   am
    21   133   134    1
    22    77    75   am
    23   117   116    1
    24   116   113    1
    25   113   114    1
    26    51    50    1
    27    51    52    2
    28    50    53    1
    29    50    49    1
    30   132   130    1
    31    75    74    1
    32    75    76    2
    33   115   114    2
    34    74    73    1
    35   129   128    2
    36   128   127    1
    37   114   118   am
    38    47    46    2
    39    49    46   am
    40   130   127    1
    41   130   131    1
    42    69    70    1
    43    46    45    1
    44    15    16    1
    45    15    14    1
    46    73    70    1
    47   127   126    1
    48    16    17    2
    49    70    71    1
    50   118   119    1
    51   126   120   am
    52    17    18    1
    53    17    19    1
    54   120   119    1
    55   120   121    2
    56    48    45    1
    57   119   122    1
    58    14    13    1
    59    45    44    1
    60    13    10    1
    61    78    71   am
    62    78    79    1
    63    71    72    2
    64    39    38    2
    65    27    26    2
    66    84    82    1
    67    81    80    2
    68    82    79    1
    69    82    83    1
    70    28    26   am
    71   122   123    1
    72   122   124    1
    73    26    25    1
    74    79    80    1
    75     9    10    1
    76    10    11    1
    77    38    37    1
    78    80    85   am
    79   123   125    1
    80     7     6    1
    81     4     3    2
    82    42    40    1
    83    20    11   am
    84    20    21    1
    85     5     6    1
    86     5     2    1
    87    11    12    2
    88    40    37    1
    89    40    41    1
    90    25    24    1
    91    24    21    1
    92    37    36    1
    93     6     8    1
    94     3     2    1
    95    92    90    1
    96    85    86    1
    97    43    41    1
    98    21    22    1
    99    89    86    1
   100    89    90    1
   101    89    91    1
   102     2     1    1
   103    86    87    1
   104    35    33    1
   105    22    23    2
   106    87    88    2
   107    99    98    1
   108    33    34    1
   109    33    30    1
   110    29    30    1
   111   109   111   ar
   112   109   107   ar
   113   111   110   ar
   114    30    31    1
   115    98   100    1
   116    98    97    1
   117    94    93    1
   118    94    97    1
   119    94    95    1
   120   101   102    1
   121   107   106   ar
   122   110   108   ar
   123    96    95    2
   124   102   103    1
   125   102   105    1
   126   106   108   ar
   127   106   105    1
   128   104   103    2
   129    31    32    2
