@<TRIPOS>MOLECULE
tmp/4naoA01.pdb
 111 102 0 0 0
SMALL
GASTEIGER

@<TRIPOS>ATOM
      1  N         59.5970   28.5600   43.5640 N.3    65  ARG65      -0.1245
      2  CA        60.3040   28.9800   42.3750 C.3    65  ARG65       0.1563
      3  C         59.4040   29.8800   41.5510 C.2    65  ARG65       0.2260
      4  O         58.1760   29.6830   41.5040 O.2    65  ARG65      -0.2867
      5  CB        60.6100   27.7700   41.4780 C.3    65  ARG65       0.0307
      6  CG        61.8640   26.9620   41.7360 C.3    65  ARG65       0.0489
      7  CD        62.0570   25.9130   40.5870 C.3    65  ARG65       0.2205
      8  NE        62.8460   26.3800   39.4500 N.pl3  65  ARG65      -0.0865
      9  CZ        64.1370   26.0860   39.2550 C.cat  65  ARG65       0.5346
     10  NH1       64.7830   25.3280   40.1410 N.pl3  65  ARG65       0.1354
     11  NH2       64.7970   26.5350   38.2070 N.pl3  65  ARG65       0.1354
     12  N         64.8980   30.9200   42.6700 N.3   108  ILE108     -0.1245
     13  CA        64.6330   29.7220   43.4710 C.3   108  ILE108      0.1561
     14  C         64.7990   30.1300   44.9140 C.2   108  ILE108      0.2260
     15  O         65.8290   30.6790   45.2760 O.2   108  ILE108     -0.2867
     16  CB        65.6950   28.6280   43.1940 C.3   108  ILE108      0.0252
     17  CG1       65.7600   28.3070   41.7040 C.3   108  ILE108      0.0019
     18  CG2       65.3400   27.3540   43.9390 C.3   108  ILE108      0.0019
     19  CD1       67.0300   27.5470   41.3620 C.3   108  ILE108      0.0001
     20  N         64.9780   28.7640   48.6040 N.3   110  ASN110     -0.1240
     21  CA        65.0490   27.6430   49.5260 C.3   110  ASN110      0.1653
     22  C         64.6500   28.1330   50.9140 C.2   110  ASN110      0.2266
     23  O         65.3940   28.8940   51.5340 O.2   110  ASN110     -0.2867
     24  CB        66.4980   27.1500   49.6410 C.3   110  ASN110      0.1155
     25  CG        67.0090   26.3830   48.4440 C.2   110  ASN110      0.2627
     26  OD1       66.3400   26.2030   47.4220 O.2   110  ASN110     -0.2716
     27  ND2       68.2600   25.9210   48.5760 N.am  110  ASN110     -0.0877
     28  N         70.6470   18.4640   48.2050 N.3   117  GLN117     -0.1245
     29  CA        70.2330   17.7940   46.9810 C.3   117  GLN117      0.1566
     30  C         71.1160   16.6150   46.6460 C.2   117  GLN117      0.2260
     31  O         72.1310   16.3780   47.2940 O.2   117  GLN117     -0.2867
     32  CB        70.3250   18.7660   45.8190 C.3   117  GLN117      0.0367
     33  CG        69.4940   20.0300   45.9190 C.3   117  GLN117      0.0905
     34  CD        69.7830   20.9650   44.7530 C.2   117  GLN117      0.2608
     35  OE1       70.9390   21.1290   44.3340 O.2   117  GLN117     -0.2717
     36  NE2       68.7330   21.5770   44.2090 N.am  117  GLN117     -0.0878
     37  N         74.4530   16.3650   40.9070 N.3   120  HIS120     -0.1241
     38  CA        73.9110   16.4460   39.5470 C.3   120  HIS120      0.1621
     39  C         74.6890   17.4260   38.7240 C.2   120  HIS120      0.2264
     40  O         75.5140   18.1770   39.2460 O.2   120  HIS120     -0.2867
     41  CB        72.4320   16.8530   39.5580 C.3   120  HIS120      0.0745
     42  CG        72.1830   18.2190   40.0970 C.ar  120  HIS120      0.0817
     43  ND1       72.2090   18.4930   41.4570 N.ar  120  HIS120     -0.2268
     44  CD2       71.9260   19.3890   39.4800 C.ar  120  HIS120      0.1154
     45  CE1       71.9580   19.7720   41.6430 C.ar  120  HIS120      0.1986
     46  NE2       71.7860   20.3440   40.4570 N.ar  120  HIS120     -0.2212
     47  N         73.7380   20.4390   35.6980 N.3   122  ASP122     -0.1239
     48  CA        72.5830   21.2290   35.2820 C.3   122  ASP122      0.1674
     49  C         72.1080   20.9500   33.8790 C.2   122  ASP122      0.2266
     50  O         70.9850   21.3140   33.5220 O.2   122  ASP122     -0.2867
     51  CB        72.8710   22.7280   35.4240 C.3   122  ASP122      0.1410
     52  CG        72.8080   23.2310   36.8580 C.2   122  ASP122      0.3668
     53  OD1       72.3860   22.4820   37.7650 O.co2 122  ASP122     -0.2456
     54  OD2       73.1500   24.4110   37.0610 O.co2 122  ASP122     -0.2456
     55  N         75.2740   28.5880   33.6130 N.3   141  ASN141     -0.1240
     56  CA        74.2640   29.1220   34.5150 C.3   141  ASN141      0.1653
     57  C         74.9400   30.1850   35.4010 C.2   141  ASN141      0.2266
     58  O         75.8530   29.8450   36.1800 O.2   141  ASN141     -0.2867
     59  CB        73.7590   27.9720   35.4050 C.3   141  ASN141      0.1155
     60  CG        72.6790   28.3960   36.4000 C.2   141  ASN141      0.2627
     61  OD1       72.3830   29.5740   36.5720 O.2   141  ASN141     -0.2716
     62  ND2       72.1120   27.4120   37.0940 N.am  141  ASN141     -0.0877
     63  N         74.6690   31.6140   38.3210 N.3   143  PHE143     -0.1241
     64  CA        73.8460   31.3300   39.4880 C.3   143  PHE143      0.1605
     65  C         74.1050   32.4330   40.4940 C.2   143  PHE143      0.2264
     66  O         75.1280   32.4500   41.1800 O.2   143  PHE143     -0.2867
     67  CB        74.2690   29.9540   40.0110 C.3   143  PHE143      0.0534
     68  CG        73.4320   29.4250   41.1380 C.ar  143  PHE143     -0.0203
     69  CD1       72.1450   28.9600   40.8990 C.ar  143  PHE143     -0.0042
     70  CD2       73.9610   29.3480   42.4190 C.ar  143  PHE143     -0.0042
     71  CE1       71.3830   28.4510   41.9780 C.ar  143  PHE143     -0.0003
     72  CE2       73.1930   28.8520   43.4900 C.ar  143  PHE143     -0.0003
     73  CZ        71.9180   28.3980   43.2420 C.ar  143  PHE143     -0.0000
     74  N         76.4270   26.0780   48.0880 N.3   156  THR156     -0.1218
     75  CA        76.3650   25.0280   47.0650 C.3   156  THR156      0.1862
     76  C         77.7270   24.3370   47.0460 C.2   156  THR156      0.2287
     77  O         78.7620   24.9690   47.2870 O.2   156  THR156     -0.2866
     78  CB        75.9660   25.6040   45.7060 C.3   156  THR156      0.1770
     79  OG1       74.6670   26.2130   45.8360 O.3   156  THR156     -0.2211
     80  CG2       75.9050   24.4740   44.6400 C.3   156  THR156      0.0375
     81  N         77.5310   19.0820   41.1190 N.3   196  HIS196     -0.1241
     82  CA        77.3010   19.8790   42.3250 C.3   196  HIS196      0.1621
     83  C         76.0030   19.5080   43.0260 C.2   196  HIS196      0.2264
     84  O         75.2140   18.7290   42.5080 O.2   196  HIS196     -0.2867
     85  CB        77.2940   21.3560   41.9580 C.3   196  HIS196      0.0745
     86  CG        76.2130   21.7250   41.0020 C.ar  196  HIS196      0.0817
     87  ND1       76.2780   21.4550   39.6480 N.ar  196  HIS196     -0.2268
     88  CD2       75.0260   22.3350   41.2090 C.ar  196  HIS196      0.1154
     89  CE1       75.1710   21.8730   39.0680 C.ar  196  HIS196      0.1986
     90  NE2       74.4100   22.4330   39.9890 N.ar  196  HIS196     -0.2212
     91  N         73.1200   21.5570   45.9460 N.3   198  GLY198     -0.1210
     92  CA        72.7970   22.4720   47.0530 C.3   198  GLY198      0.1956
     93  C         72.8310   21.8160   48.4250 C.2   198  GLY198      0.2612
     94  O         72.7300   20.5850   48.5720 O.2   198  GLY198     -0.2717
     95  N         72.9830   22.6500   49.4490 N.am  199  SER199     -0.1952
     96  CA        73.0800   22.1870   50.8430 C.3   199  SER199      0.1924
     97  C         71.7420   22.3890   51.5530 C.2   199  SER199      0.2314
     98  O         70.8500   23.0630   51.0060 O.2   199  SER199     -0.2863
     99  CB        74.1530   22.9900   51.6060 C.3   199  SER199      0.2116
    100  OG        75.4710   22.7360   51.1430 O.3   199  SER199     -0.2180
    101  N         66.6580   31.5320   51.4900 N.3   207  ARG207     -0.1245
    102  CA        67.8630   31.5700   50.6750 C.3   207  ARG207      0.1563
    103  C         67.4670   31.6790   49.2160 C.2   207  ARG207      0.2260
    104  O         66.9500   30.7150   48.6590 O.2   207  ARG207     -0.2867
    105  CB        68.6350   30.2780   50.9140 C.3   207  ARG207      0.0307
    106  CG        70.0790   30.2420   50.4370 C.3   207  ARG207      0.0489
    107  CD        70.1970   29.3090   49.2930 C.3   207  ARG207      0.2205
    108  NE        71.5730   28.9070   49.0380 N.pl3 207  ARG207     -0.0865
    109  CZ        71.9520   28.2760   47.9270 C.cat 207  ARG207      0.5346
    110  NH1       71.0480   27.9800   46.9860 N.pl3 207  ARG207      0.1354
    111  NH2       73.2260   27.9400   47.7550 N.pl3 207  ARG207      0.1354
@<TRIPOS>BOND
     1    50    49    2
     2    55    56    1
     3    49    48    1
     4    56    57    1
     5    56    59    1
     6    48    51    1
     7    48    47    1
     8    57    58    2
     9    59    60    1
    10    51    52    1
    11    60    61    2
    12    60    62   am
    13    52    54   ar
    14    52    53   ar
    15    11     9    1
    16    63    64    1
    17    39    40    2
    18    39    38    1
    19    89    87   ar
    20    89    90   ar
    21     9     8    2
    22     9    10    1
    23     8     7    1
    24    44    42   ar
    25    44    46   ar
    26    64    67    1
    27    64    65    1
    28    38    41    1
    29    38    37    1
    30    41    42    1
    31    87    86   ar
    32    90    88   ar
    33    67    68    1
    34    42    43   ar
    35    46    45   ar
    36    65    66    2
    37     7     6    1
    38    69    68   ar
    39    69    71   ar
    40    86    88   ar
    41    86    85    1
    42    81    82    1
    43    68    70   ar
    44    19    17    1
    45    43    45   ar
    46     5     6    1
    47     5     2    1
    48     4     3    2
    49     3     2    1
    50    17    16    1
    51    85    82    1
    52    71    73   ar
    53    82    83    1
    54     2     1    1
    55    70    72   ar
    56    84    83    2
    57    12    13    1
    58    16    13    1
    59    16    18    1
    60    73    72   ar
    61    13    14    1
    62    36    34   am
    63    35    34    2
    64    80    78    1
    65    34    33    1
    66    14    15    2
    67    78    79    1
    68    78    75    1
    69    32    33    1
    70    32    29    1
    71    91    92    1
    72    30    29    1
    73    30    31    2
    74    29    28    1
    75   110   109    1
    76    76    75    1
    77    76    77    2
    78    92    93    1
    79    75    74    1
    80    26    25    2
    81   111   109    1
    82   109   108    2
    83    93    94    2
    84    93    95   am
    85    25    27   am
    86    25    24    1
    87    20    21    1
    88   104   103    2
    89   108   107    1
    90   103   102    1
    91   107   106    1
    92    95    96    1
    93    21    24    1
    94    21    22    1
    95   106   105    1
    96   102   105    1
    97   102   101    1
    98    96    97    1
    99    96    99    1
   100    22    23    2
   101    98    97    2
   102   100    99    1
