@<TRIPOS>MOLECULE
tmp/4napD00.pdb
 143 141 0 0 0
SMALL
GASTEIGER

@<TRIPOS>ATOM
      1  N         38.7810  -24.0100   95.1620 N.3     9  PHE9       -0.1228
      2  CA        39.8790  -24.3890   96.0370 C.3     9  PHE9        0.1721
      3  C         39.6240  -24.3040   97.5680 C.2     9  PHE9        0.2437
      4  O         40.1570  -25.1330   98.3040 O.2     9  PHE9       -0.2733
      5  CB        41.1920  -23.6850   95.6220 C.3     9  PHE9        0.0547
      6  CG        41.1880  -22.1760   95.7950 C.ar    9  PHE9       -0.0202
      7  CD1       41.5710  -21.6120   96.9960 C.ar    9  PHE9       -0.0042
      8  CD2       40.8100  -21.3300   94.7480 C.ar    9  PHE9       -0.0042
      9  CE1       41.5590  -20.2290   97.1660 C.ar    9  PHE9       -0.0003
     10  CE2       40.8120  -19.9310   94.9120 C.ar    9  PHE9       -0.0003
     11  CZ        41.1740  -19.3910   96.1310 C.ar    9  PHE9       -0.0000
     12  N         38.8200  -23.3310   98.0460 N.am   10  PRO10      -0.2718
     13  CA        38.6290  -23.1670   99.4960 C.3    10  PRO10       0.1520
     14  C         37.4120  -23.9220  100.0230 C.2    10  PRO10       0.2440
     15  O         36.6570  -24.4500   99.2240 O.2    10  PRO10      -0.2731
     16  CB        38.4030  -21.6610   99.6300 C.3    10  PRO10       0.0310
     17  CG        37.6800  -21.3230   98.3810 C.3    10  PRO10       0.0237
     18  CD        38.2240  -22.2090   97.3030 C.3    10  PRO10       0.0939
     19  N         37.2220  -23.9850  101.3600 N.am   11  PRO11      -0.2727
     20  CA        36.0180  -24.6730  101.8480 C.3    11  PRO11       0.1402
     21  C         34.7340  -23.9840  101.4200 C.2    11  PRO11       0.2269
     22  O         34.7130  -22.7920  101.0240 O.2    11  PRO11      -0.2865
     23  CB        36.1720  -24.6520  103.3660 C.3    11  PRO11       0.0296
     24  CG        37.6560  -24.5120  103.5740 C.3    11  PRO11       0.0237
     25  CD        38.1360  -23.6290  102.4560 C.3    11  PRO11       0.0939
     26  N         33.2210  -20.5480  102.5350 N.3    14  THR14      -0.1203
     27  CA        33.9140  -19.2990  102.2050 C.3    14  THR14       0.1994
     28  C         33.3610  -18.6430  100.9250 C.2    14  THR14       0.2618
     29  O         32.7420  -19.3200  100.0930 O.2    14  THR14      -0.2717
     30  CB        35.4070  -19.5200  102.0040 C.3    14  THR14       0.1784
     31  OG1       35.6330  -20.3800  100.8630 O.3    14  THR14      -0.2211
     32  CG2       36.0340  -20.0830  103.2790 C.3    14  THR14       0.0376
     33  N         33.6130  -17.3430  100.7520 N.am   15  PHE15      -0.1962
     34  CA        32.8650  -16.5760   99.7720 C.3    15  PHE15       0.1756
     35  C         33.1650  -16.9700   98.3130 C.2    15  PHE15       0.2461
     36  O         32.2970  -16.9170   97.4620 O.2    15  PHE15      -0.2730
     37  CB        32.9840  -15.0780  100.0500 C.3    15  PHE15       0.0574
     38  CG        34.1520  -14.4200   99.4070 C.ar   15  PHE15      -0.0200
     39  CD1       34.0450  -13.9120   98.1300 C.ar   15  PHE15      -0.0042
     40  CD2       35.3540  -14.2990  100.0780 C.ar   15  PHE15      -0.0042
     41  CE1       35.1190  -13.3400   97.5100 C.ar   15  PHE15      -0.0003
     42  CE2       36.4400  -13.7180   99.4530 C.ar   15  PHE15      -0.0003
     43  CZ        36.3060  -13.2270   98.1520 C.ar   15  PHE15      -0.0000
     44  N         34.3820  -17.4540   98.0290 N.am   16  PRO16      -0.2727
     45  CA        34.5580  -17.9040   96.6600 C.3    16  PRO16       0.1402
     46  C         33.6710  -19.0990   96.2850 C.2    16  PRO16       0.2269
     47  O         33.2800  -19.2220   95.1270 O.2    16  PRO16      -0.2865
     48  CB        36.0240  -18.2730   96.6130 C.3    16  PRO16       0.0296
     49  CG        36.6390  -17.4490   97.6040 C.3    16  PRO16       0.0237
     50  CD        35.6620  -17.4060   98.7340 C.3    16  PRO16       0.0939
     51  N         42.5280  -17.0870   92.1880 N.3    63  SER63      -0.1217
     52  CA        42.9750  -15.8910   92.8920 C.3    63  SER63       0.1889
     53  C         44.1980  -15.3170   92.1720 C.2    63  SER63       0.2288
     54  O         45.2580  -15.8970   92.2660 O.2    63  SER63      -0.2866
     55  CB        43.3380  -16.2540   94.3340 C.3    63  SER63       0.2089
     56  OG        43.5710  -15.1000   95.1220 O.3    63  SER63      -0.2183
     57  N         47.8470  -15.4110   93.4910 N.3    66  TYR66      -0.1241
     58  CA        48.6160  -16.6470   93.6070 C.3    66  TYR66       0.1605
     59  C         49.5660  -16.8960   92.4310 C.2    66  TYR66       0.2264
     60  O         50.3880  -17.8390   92.4730 O.2    66  TYR66      -0.2867
     61  CB        47.6900  -17.8730   93.7470 C.3    66  TYR66       0.0534
     62  CG        46.8370  -17.8760   94.9820 C.ar   66  TYR66      -0.0201
     63  CD1       46.9540  -16.8720   95.9460 C.ar   66  TYR66      -0.0009
     64  CD2       45.8750  -18.8610   95.1740 C.ar   66  TYR66      -0.0009
     65  CE1       46.1400  -16.8630   97.0680 C.ar   66  TYR66       0.0417
     66  CE2       45.0590  -18.8660   96.2790 C.ar   66  TYR66       0.0417
     67  CZ        45.1920  -17.8690   97.2260 C.ar   66  TYR66       0.1957
     68  OH        44.3750  -17.8730   98.3250 O.3    66  TYR66      -0.2866
     69  N         37.9300   -9.6640   97.0650 N.3   114  SER114     -0.1217
     70  CA        37.6560   -9.7440   98.5040 C.3   114  SER114      0.1889
     71  C         37.3270   -8.3300   99.0380 C.2   114  SER114      0.2288
     72  O         37.3420   -7.3610   98.3030 O.2   114  SER114     -0.2866
     73  CB        38.8540  -10.3350   99.2610 C.3   114  SER114      0.2089
     74  OG        39.9990   -9.4920   99.1620 O.3   114  SER114     -0.2183
     75  N         51.0490  -13.8380  106.8060 N.3   135  ARG135     -0.1245
     76  CA        50.6900  -14.4330  105.5210 C.3   135  ARG135      0.1563
     77  C         50.0600  -13.3820  104.6080 C.2   135  ARG135      0.2260
     78  O         49.1460  -12.6360  104.9870 O.2   135  ARG135     -0.2867
     79  CB        49.7430  -15.6620  105.6820 C.3   135  ARG135      0.0307
     80  CG        48.3870  -15.6370  104.9160 C.3   135  ARG135      0.0489
     81  CD        48.5530  -15.4480  103.4400 C.3   135  ARG135      0.2205
     82  NE        47.6930  -16.2210  102.5480 N.pl3 135  ARG135     -0.0865
     83  CZ        46.5160  -15.8270  102.0570 C.cat 135  ARG135      0.5346
     84  NH1       45.8900  -16.6060  101.2040 N.pl3 135  ARG135      0.1354
     85  NH2       45.9580  -14.6890  102.4200 N.pl3 135  ARG135      0.1354
     86  N         43.9610  -21.9500  101.8650 N.3   155  PRO155     -0.2116
     87  CA        43.7030  -23.2160  102.5710 C.3   155  PRO155      0.1372
     88  C         44.8660  -23.8100  103.3620 C.2   155  PRO155      0.2244
     89  O         44.6230  -24.7430  104.1370 O.2   155  PRO155     -0.2868
     90  CB        43.2670  -24.1690  101.4540 C.3   155  PRO155      0.0268
     91  CG        43.4010  -23.3910  100.1590 C.3   155  PRO155      0.0207
     92  CD        43.4770  -21.9750  100.4750 C.3   155  PRO155      0.0892
     93  N         44.3390  -10.1890  105.3460 N.3   171  THR171     -0.1203
     94  CA        43.2710  -10.4140  104.3530 C.3   171  THR171      0.1994
     95  C         41.9390   -9.9110  104.9110 C.2   171  THR171      0.2618
     96  O         41.9300   -9.2190  105.9330 O.2   171  THR171     -0.2717
     97  CB        43.1360  -11.8900  103.9710 C.3   171  THR171      0.1784
     98  OG1       42.2590  -12.0210  102.8320 O.3   171  THR171     -0.2211
     99  CG2       42.6220  -12.7210  105.2050 C.3   171  THR171      0.0376
    100  N         40.8220  -10.2520  104.2620 N.am  172  SER172     -0.1951
    101  CA        39.5330   -9.7180  104.6990 C.3   172  SER172      0.1924
    102  C         38.9960  -10.5780  105.8180 C.2   172  SER172      0.2314
    103  O         39.4380  -11.7360  105.9970 O.2   172  SER172     -0.2863
    104  CB        38.5140   -9.5510  103.5480 C.3   172  SER172      0.2116
    105  OG        38.3010  -10.7400  102.8110 O.3   172  SER172     -0.2180
    106  N         36.0250  -11.9070  106.6200 N.3   174  ASP174     -0.1225
    107  CA        35.0250  -12.9750  106.4450 C.3   174  ASP174      0.1805
    108  C         35.5430  -14.2880  107.0100 C.2   174  ASP174      0.2597
    109  O         34.7410  -15.1150  107.4540 O.2   174  ASP174     -0.2718
    110  CB        34.6360  -13.1710  104.9580 C.3   174  ASP174      0.1424
    111  CG        35.8640  -13.2020  104.0220 C.2   174  ASP174      0.3668
    112  OD1       36.5460  -12.1480  103.9260 O.co2 174  ASP174     -0.2456
    113  OD2       36.1580  -14.2700  103.4010 O.co2 174  ASP174     -0.2456
    114  N         36.8700  -14.4750  106.9940 N.am  175  VAL175     -0.1980
    115  CA        37.4690  -15.7650  107.3910 C.3   175  VAL175      0.1595
    116  C         37.5390  -15.9840  108.9110 C.2   175  VAL175      0.2287
    117  O         37.7470  -17.1180  109.3640 O.2   175  VAL175     -0.2864
    118  CB        38.8920  -15.9790  106.7740 C.3   175  VAL175      0.0276
    119  CG1       38.8440  -15.9010  105.2660 C.3   175  VAL175      0.0022
    120  CG2       39.9210  -14.9640  107.3570 C.3   175  VAL175      0.0022
    121  N         42.1220   -8.7450   97.3250 N.3   193  TYR193     -0.1241
    122  CA        42.5660   -9.8010   96.4300 C.3   193  TYR193      0.1605
    123  C         41.6020   -9.9420   95.2470 C.2   193  TYR193      0.2264
    124  O         40.4020  -10.2010   95.4180 O.2   193  TYR193     -0.2867
    125  CB        42.6140  -11.1230   97.1790 C.3   193  TYR193      0.0534
    126  CG        43.6580  -11.2160   98.2680 C.ar  193  TYR193     -0.0201
    127  CD1       43.5080  -10.5360   99.4630 C.ar  193  TYR193     -0.0009
    128  CD2       44.7780  -12.0200   98.1160 C.ar  193  TYR193     -0.0009
    129  CE1       44.4480  -10.6300  100.4630 C.ar  193  TYR193      0.0417
    130  CE2       45.7270  -12.1330   99.1360 C.ar  193  TYR193      0.0417
    131  CZ        45.5570  -11.4410  100.2920 C.ar  193  TYR193      0.1957
    132  OH        46.4850  -11.5780  101.3020 O.3   193  TYR193     -0.2866
    133  N         39.9070  -11.8440   91.9780 N.3   195  PHE195     -0.1241
    134  CA        39.6110  -13.2310   91.5970 C.3   195  PHE195      0.1605
    135  C         39.0700  -13.1620   90.1710 C.2   195  PHE195      0.2264
    136  O         38.4370  -12.1550   89.7740 O.2   195  PHE195     -0.2867
    137  CB        38.5420  -13.9030   92.4760 C.3   195  PHE195      0.0534
    138  CG        38.9710  -14.2230   93.8880 C.ar  195  PHE195     -0.0203
    139  CD1       39.1850  -13.2200   94.8260 C.ar  195  PHE195     -0.0042
    140  CD2       39.1220  -15.5440   94.2920 C.ar  195  PHE195     -0.0042
    141  CE1       39.5780  -13.5240   96.1450 C.ar  195  PHE195     -0.0003
    142  CE2       39.5400  -15.8420   95.5950 C.ar  195  PHE195     -0.0003
    143  CZ        39.7530  -14.8110   96.5250 C.ar  195  PHE195     -0.0000
@<TRIPOS>BOND
     1   136   135    2
     2   135   134    1
     3   134   133    1
     4   134   137    1
     5    53    54    2
     6    53    52    1
     7    51    52    1
     8    59    60    2
     9    59    58    1
    10   137   138    1
    11    52    55    1
    12    57    58    1
    13    58    61    1
    14    61    62    1
    15   138   140   ar
    16   138   139   ar
    17   140   142   ar
    18    55    56    1
    19     8    10   ar
    20     8     6   ar
    21   139   141   ar
    22    10    11   ar
    23    62    64   ar
    24    62    63   ar
    25    47    46    2
    26     1     2    1
    27    64    66   ar
    28   123   124    2
    29   123   122    1
    30   142   143   ar
    31     5     6    1
    32     5     2    1
    33     6     7   ar
    34    63    65   ar
    35     2     3    1
    36    11     9   ar
    37   141   143   ar
    38    66    67   ar
    39    46    45    1
    40   122   125    1
    41   122   121    1
    42    48    45    1
    43    48    49    1
    44    45    44    1
    45     7     9   ar
    46    69    70    1
    47    65    67   ar
    48   125   126    1
    49    67    68    1
    50    18    12    1
    51    18    17    1
    52    36    35    2
    53    41    39   ar
    54    41    43   ar
    55     3    12   am
    56     3     4    2
    57    49    50    1
    58    44    35   am
    59    44    50    1
    60    12    13    1
    61   128   126   ar
    62   128   130   ar
    63    39    38   ar
    64    43    42   ar
    65   126   127   ar
    66    72    71    2
    67    35    34    1
    68    17    16    1
    69    70    71    1
    70    70    73    1
    71   130   131   ar
    72    74    73    1
    73    15    14    2
    74    38    37    1
    75    38    40   ar
    76    42    40   ar
    77   127   129   ar
    78    13    16    1
    79    13    14    1
    80    34    37    1
    81    34    33    1
    82    14    19   am
    83    29    28    2
    84    91    92    1
    85    91    90    1
    86   131   129   ar
    87   131   132    1
    88    92    86    1
    89    33    28   am
    90    31    30    1
    91    28    27    1
    92    22    21    2
    93    84    83    1
    94    19    20    1
    95    19    25    1
    96    21    20    1
    97    90    87    1
    98    20    23    1
    99    86    87    1
   100    30    27    1
   101    30    32    1
   102    83    85    1
   103    83    82    2
   104    27    26    1
   105    25    24    1
   106    82    81    1
   107    87    88    1
   108   105   104    1
   109    98    97    1
   110    88    89    2
   111    23    24    1
   112   113   111   ar
   113    81    80    1
   114   104   101    1
   115   112   111   ar
   116    97    94    1
   117    97    99    1
   118   111   110    1
   119   100   101    1
   120   100    95   am
   121    94    95    1
   122    94    93    1
   123    77    78    2
   124    77    76    1
   125   101   102    1
   126    95    96    2
   127    80    79    1
   128   110   107    1
   129   119   118    1
   130    76    79    1
   131    76    75    1
   132   102   103    2
   133   107   106    1
   134   107   108    1
   135   118   120    1
   136   118   115    1
   137   114   108   am
   138   114   115    1
   139   108   109    2
   140   115   116    1
   141   116   117    2
