@<TRIPOS>MOLECULE
tmp/4natB00.pdb
 186 179 0 0 0
SMALL
GASTEIGER

@<TRIPOS>ATOM
      1  N         19.6690   17.5200  -45.3440 N.3     9  PRO9       -0.2102
      2  CA        18.7410   17.6080  -44.2790 C.3     9  PRO9        0.1504
      3  C         18.7140   18.9780  -43.6090 C.2     9  PRO9        0.2576
      4  O         19.6750   19.7300  -43.7040 O.2     9  PRO9       -0.2718
      5  CB        19.2090   16.5000  -43.3380 C.3     9  PRO9        0.0282
      6  CG        20.7060   16.5090  -43.4960 C.3     9  PRO9        0.0208
      7  CD        20.9680   16.9630  -44.9260 C.3     9  PRO9        0.0893
      8  N         17.6310   19.3130  -42.9520 N.am   10  GLY10      -0.1957
      9  CA        17.5820   20.5600  -42.1830 C.3    10  GLY10       0.1869
     10  C         16.2140   20.8310  -41.6210 C.2    10  GLY10       0.2309
     11  O         15.2680   20.1440  -41.9540 O.2    10  GLY10      -0.2863
     12  N         15.4760   17.1340  -47.2020 N.3    36  CYS36      -0.1221
     13  CA        14.7220   16.3680  -46.2310 C.3    36  CYS36       0.1808
     14  C         14.5270   17.1980  -44.9570 C.2    36  CYS36       0.2601
     15  O         15.4730   17.8150  -44.4420 O.2    36  CYS36      -0.2717
     16  CB        15.4440   15.0480  -45.9970 C.3    36  CYS36       0.0970
     17  SG        14.4000   13.8860  -45.0660 S.3    36  CYS36      -0.0800
     18  N         13.2780   17.3290  -44.5440 N.am   37  VAL37      -0.1965
     19  CA        12.8470   18.2300  -43.4700 C.3    37  VAL37       0.1727
     20  C         12.3240   17.3080  -42.3570 C.2    37  VAL37       0.2616
     21  O         11.7220   16.2760  -42.6450 O.2    37  VAL37      -0.2715
     22  CB        11.7290   19.2020  -43.9340 C.3    37  VAL37       0.0290
     23  CG1       11.5450   20.3330  -42.9410 C.3    37  VAL37       0.0023
     24  CG2       11.9940   19.7700  -45.3160 C.3    37  VAL37       0.0023
     25  N         12.5760   17.6650  -41.1000 N.am   38  LEU38      -0.1977
     26  CA        12.2780   16.7880  -39.9310 C.3    38  LEU38       0.1596
     27  C         10.7600   16.7580  -39.5530 C.2    38  LEU38       0.2287
     28  O         10.1080   17.7870  -39.5510 O.2    38  LEU38      -0.2864
     29  CB        13.0750   17.1880  -38.6500 C.3    38  LEU38       0.0297
     30  CG        14.4230   17.9340  -38.6610 C.3    38  LEU38       0.0022
     31  CD1       14.3340   19.3080  -39.3180 C.3    38  LEU38       0.0001
     32  CD2       15.0410   18.1130  -37.2540 C.3    38  LEU38       0.0001
     33  N         10.2310   13.4010  -43.0260 N.3    67  PHE67      -0.1227
     34  CA        10.5270   12.1490  -42.2210 C.3    67  PHE67       0.1736
     35  C         10.7200   12.7930  -40.8250 C.2    67  PHE67       0.2596
     36  O         11.2250   13.9000  -40.8100 O.2    67  PHE67      -0.2718
     37  CB        11.8310   11.5300  -42.7690 C.3    67  PHE67       0.0547
     38  CG        11.9900   10.0300  -42.5690 C.ar   67  PHE67      -0.0202
     39  CD1       11.2320    9.1260  -43.2860 C.ar   67  PHE67      -0.0042
     40  CD2       13.0050    9.5270  -41.7370 C.ar   67  PHE67      -0.0042
     41  CE1       11.4360    7.7540  -43.1440 C.ar   67  PHE67      -0.0003
     42  CE2       13.2100    8.1650  -41.5760 C.ar   67  PHE67      -0.0003
     43  CZ        12.4080    7.2710  -42.2710 C.ar   67  PHE67      -0.0000
     44  N         10.3510   12.3120  -39.6320 N.am   68  SER68      -0.1938
     45  CA         9.7790   11.0620  -39.1590 C.3    68  SER68       0.2055
     46  C         10.9040   10.3560  -38.3350 C.2    68  SER68       0.2644
     47  O         11.1960   10.7820  -37.2400 O.2    68  SER68      -0.2714
     48  CB         9.1190   10.2130  -40.2230 C.3    68  SER68       0.2130
     49  OG         8.2490    9.3310  -39.5280 O.3    68  SER68      -0.2179
     50  N         11.5520    9.3360  -38.8550 N.am   69  GLY69      -0.1939
     51  CA        12.6070    8.6520  -38.0910 C.3    69  GLY69       0.2014
     52  C         13.9960    9.2690  -38.2350 C.2    69  GLY69       0.2639
     53  O         14.1600   10.4780  -38.4350 O.2    69  GLY69      -0.2714
     54  N         14.9830    8.3970  -38.1600 N.am   70  LEU70      -0.1963
     55  CA        16.3580    8.7350  -38.3110 C.3    70  LEU70       0.1728
     56  C         16.6950    9.1170  -39.7350 C.2    70  LEU70       0.2616
     57  O         16.2880    8.4610  -40.7160 O.2    70  LEU70      -0.2715
     58  CB        17.2350    7.5510  -37.9040 C.3    70  LEU70       0.0311
     59  CG        17.1810    7.1030  -36.4340 C.3    70  LEU70       0.0022
     60  CD1       17.7540    5.6980  -36.3200 C.3    70  LEU70       0.0001
     61  CD2       17.8960    8.0800  -35.4950 C.3    70  LEU70       0.0001
     62  N         17.5430   10.1170  -39.8590 N.am   71  LEU71      -0.1963
     63  CA        18.0250   10.5140  -41.1550 C.3    71  LEU71       0.1728
     64  C         18.6320    9.3710  -41.9100 C.2    71  LEU71       0.2616
     65  O         18.3450    9.1770  -43.0730 O.2    71  LEU71      -0.2715
     66  CB        19.0510   11.6680  -41.0260 C.3    71  LEU71       0.0311
     67  CG        19.6630   12.1440  -42.3370 C.3    71  LEU71       0.0022
     68  CD1       18.5890   12.6470  -43.2900 C.3    71  LEU71       0.0001
     69  CD2       20.6970   13.2260  -42.0750 C.3    71  LEU71       0.0001
     70  N         19.4850    8.5880  -41.2600 N.am   72  VAL72      -0.1977
     71  CA        20.1800    7.4940  -41.8990 C.3    72  VAL72       0.1596
     72  C         19.1980    6.3960  -42.4170 C.2    72  VAL72       0.2287
     73  O         19.4830    5.6950  -43.4110 O.2    72  VAL72      -0.2864
     74  CB        21.2170    7.0090  -40.8620 C.3    72  VAL72       0.0276
     75  CG1       20.6710    5.9180  -39.9540 C.3    72  VAL72       0.0022
     76  CG2       22.5200    6.6330  -41.4930 C.3    72  VAL72       0.0022
     77  N         16.0310    7.1870  -43.4200 N.3    74  TYR74      -0.1241
     78  CA        15.5840    7.8670  -44.6530 C.3    74  TYR74       0.1605
     79  C         16.5240    7.6220  -45.8140 C.2    74  TYR74       0.2264
     80  O         16.0940    7.2140  -46.9370 O.2    74  TYR74      -0.2867
     81  CB        15.3430    9.3670  -44.4350 C.3    74  TYR74       0.0534
     82  CG        14.8760   10.0420  -45.7140 C.ar   74  TYR74      -0.0201
     83  CD1       13.5100   10.0830  -46.0370 C.ar   74  TYR74      -0.0009
     84  CD2       15.8070   10.5490  -46.6640 C.ar   74  TYR74      -0.0009
     85  CE1       13.0550   10.6400  -47.2510 C.ar   74  TYR74       0.0417
     86  CE2       15.3610   11.1010  -47.8730 C.ar   74  TYR74       0.0417
     87  CZ        13.9800   11.1610  -48.1560 C.ar   74  TYR74       0.1957
     88  OH        13.5180   11.7050  -49.3400 O.3    74  TYR74      -0.2866
     89  N         24.9590   12.0750  -47.3880 N.3    83  ILE83      -0.1245
     90  CA        24.3710   13.2490  -46.7030 C.3    83  ILE83       0.1561
     91  C         25.2840   14.4420  -46.9640 C.2    83  ILE83       0.2260
     92  O         26.5230   14.3400  -46.8750 O.2    83  ILE83      -0.2867
     93  CB        24.2480   13.0480  -45.1900 C.3    83  ILE83       0.0252
     94  CG1       23.3400   11.8700  -44.8400 C.3    83  ILE83       0.0019
     95  CG2       23.6830   14.3000  -44.4740 C.3    83  ILE83       0.0019
     96  CD1       23.5240   11.3480  -43.4220 C.3    83  ILE83       0.0001
     97  N         26.0930   18.4550  -46.0430 N.3    85  ARG85      -0.1245
     98  CA        25.9450   19.4510  -45.0110 C.3    85  ARG85       0.1563
     99  C         26.9130   20.6120  -45.3320 C.2    85  ARG85       0.2260
    100  O         28.0060   20.3940  -45.8960 O.2    85  ARG85      -0.2867
    101  CB        26.3350   18.8640  -43.6760 C.3    85  ARG85       0.0307
    102  CG        25.5000   17.6720  -43.2180 C.3    85  ARG85       0.0489
    103  CD        24.1420   18.1170  -42.7170 C.3    85  ARG85       0.2205
    104  NE        24.1900   18.5650  -41.3060 N.pl3  85  ARG85      -0.0865
    105  CZ        23.2250   19.2420  -40.6940 C.cat  85  ARG85       0.5346
    106  NH1       23.3570   19.6040  -39.4110 N.pl3  85  ARG85       0.1354
    107  NH2       22.1260   19.5970  -41.3620 N.pl3  85  ARG85       0.1354
    108  N         29.9580   20.5810  -33.8180 N.3    95  TYR95      -0.1227
    109  CA        28.6390   19.9530  -33.7640 C.3    95  TYR95       0.1736
    110  C         28.4970   18.8470  -34.8510 C.2    95  TYR95       0.2595
    111  O         28.0640   17.7320  -34.5660 O.2    95  TYR95      -0.2718
    112  CB        27.6020   21.0580  -33.9070 C.3    95  TYR95       0.0548
    113  CG        26.1750   20.6260  -34.0510 C.ar   95  TYR95      -0.0200
    114  CD1       25.5000   20.0160  -32.9950 C.ar   95  TYR95      -0.0009
    115  CD2       25.4830   20.8450  -35.2440 C.ar   95  TYR95      -0.0009
    116  CE1       24.1870   19.6350  -33.1280 C.ar   95  TYR95       0.0417
    117  CE2       24.1520   20.4740  -35.3730 C.ar   95  TYR95       0.0417
    118  CZ        23.5250   19.8810  -34.2990 C.ar   95  TYR95       0.1957
    119  OH        22.2270   19.5000  -34.4210 O.3    95  TYR95      -0.2866
    120  N         28.9200   19.1540  -36.0780 N.am   96  GLU96      -0.1979
    121  CA        28.7910   18.2110  -37.2220 C.3    96  GLU96       0.1602
    122  C         29.6520   16.9860  -37.0220 C.2    96  GLU96       0.2287
    123  O         29.3440   15.8920  -37.4950 O.2    96  GLU96      -0.2864
    124  CB        29.1690   18.8880  -38.5560 C.3    96  GLU96       0.0415
    125  CG        28.1620   19.9380  -39.0310 C.3    96  GLU96       0.1163
    126  CD        26.7590   19.4490  -39.2450 C.2    96  GLU96       0.3649
    127  OE1       25.8330   20.1450  -38.7750 O.co2  96  GLU96      -0.2457
    128  OE2       26.5770   18.3360  -39.7740 O.co2  96  GLU96      -0.2457
    129  N         27.7570   14.6130  -34.7760 N.3    99  LEU99      -0.1231
    130  CA        26.6580   13.9860  -35.5110 C.3    99  LEU99       0.1693
    131  C         27.1210   12.9250  -36.4650 C.2    99  LEU99       0.2592
    132  O         26.5240   11.8250  -36.4810 O.2    99  LEU99      -0.2718
    133  CB        25.8460   15.0040  -36.2870 C.3    99  LEU99       0.0284
    134  CG        25.1080   16.1310  -35.5790 C.3    99  LEU99       0.0019
    135  CD1       24.3790   17.0190  -36.6030 C.3    99  LEU99       0.0001
    136  CD2       24.1810   15.5640  -34.5220 C.3    99  LEU99       0.0001
    137  N         28.2010   13.1800  -37.2000 N.am  100  THR100     -0.1953
    138  CA        28.7010   12.1810  -38.1690 C.3   100  THR100      0.1897
    139  C         29.3500   11.0030  -37.4560 C.2   100  THR100      0.2313
    140  O         29.1950    9.8750  -37.8910 O.2   100  THR100     -0.2863
    141  CB        29.6550   12.7760  -39.2610 C.3   100  THR100      0.1794
    142  OG1       29.8140   11.8300  -40.3390 O.3   100  THR100     -0.2208
    143  CG2       31.0240   13.0480  -38.7380 C.3   100  THR100      0.0378
    144  N         28.2600    9.7060  -34.7330 N.3   102  MET102     -0.1230
    145  CA        27.1460    8.9050  -34.3750 C.3   102  MET102      0.1702
    146  C         26.4670    8.2370  -35.5800 C.2   102  MET102      0.2592
    147  O         26.0880    7.0120  -35.5420 O.2   102  MET102     -0.2718
    148  CB        26.1320    9.7280  -33.5920 C.3   102  MET102      0.0401
    149  CG        24.9080    8.9470  -33.1700 C.3   102  MET102      0.0596
    150  SD        25.3240    7.4710  -32.1540 S.3   102  MET102     -0.1393
    151  CE        25.5430    8.2900  -30.5880 C.3   102  MET102      0.0692
    152  N         26.1940    9.0300  -36.6080 N.am  103  ASN103     -0.1974
    153  CA        25.6140    8.4330  -37.8520 C.3   103  ASN103      0.1688
    154  C         26.4140    7.2730  -38.4690 C.2   103  ASN103      0.2292
    155  O         25.8190    6.3590  -39.0790 O.2   103  ASN103     -0.2864
    156  CB        25.4270    9.5380  -38.9260 C.3   103  ASN103      0.1181
    157  CG        24.2260   10.4540  -38.6510 C.2   103  ASN103      0.2629
    158  OD1       24.2190   11.6410  -39.0330 O.2   103  ASN103     -0.2716
    159  ND2       23.1700    9.9000  -38.1190 N.am  103  ASN103     -0.0877
    160  N         25.4210    4.3710  -36.5230 N.3   106  LEU106     -0.1245
    161  CA        24.0450    3.9590  -36.9040 C.3   106  LEU106      0.1561
    162  C         23.9880    3.2440  -38.2470 C.2   106  LEU106      0.2260
    163  O         23.2640    2.2810  -38.4000 O.2   106  LEU106     -0.2867
    164  CB        23.0610    5.1160  -36.8840 C.3   106  LEU106      0.0270
    165  CG        22.8380    5.7800  -35.5260 C.3   106  LEU106      0.0019
    166  CD1       22.2090    7.1310  -35.6680 C.3   106  LEU106      0.0001
    167  CD2       21.9930    4.9410  -34.5490 C.3   106  LEU106      0.0001
    168  N         28.8680   11.2310  -44.9330 N.3   112  THR112     -0.1218
    169  CA        28.4800   12.6590  -44.8090 C.3   112  THR112      0.1862
    170  C         29.6010   13.4380  -45.4530 C.2   112  THR112      0.2287
    171  O         30.7580   13.2710  -45.0730 O.2   112  THR112     -0.2866
    172  CB        28.1850   13.0850  -43.3560 C.3   112  THR112      0.1770
    173  OG1       27.1050   12.3140  -42.8260 O.3   112  THR112     -0.2211
    174  CG2       27.8010   14.5460  -43.3040 C.3   112  THR112      0.0375
    175  N         30.9150   17.3570  -46.6890 N.3   114  TYR114     -0.1241
    176  CA        30.6950   18.6980  -46.2880 C.3   114  TYR114      0.1605
    177  C         31.2220   19.6370  -47.3550 C.2   114  TYR114      0.2264
    178  O         32.1870   19.3170  -48.0600 O.2   114  TYR114     -0.2867
    179  CB        31.3720   19.0120  -44.9520 C.3   114  TYR114      0.0534
    180  CG        30.8940   18.1360  -43.8150 C.ar  114  TYR114     -0.0201
    181  CD1       31.5130   16.9600  -43.5570 C.ar  114  TYR114     -0.0009
    182  CD2       29.8620   18.5120  -43.0060 C.ar  114  TYR114     -0.0009
    183  CE1       31.0960   16.1350  -42.5480 C.ar  114  TYR114      0.0417
    184  CE2       29.4070   17.6810  -41.9910 C.ar  114  TYR114      0.0417
    185  CZ        30.0710   16.4930  -41.7810 C.ar  114  TYR114      0.1957
    186  OH        29.7380   15.6120  -40.8050 O.3   114  TYR114     -0.2866
@<TRIPOS>BOND
     1    88    87    1
     2    87    86   ar
     3    87    85   ar
     4   178   177    2
     5    86    84   ar
     6    89    90    1
     7   177   176    1
     8    85    83   ar
     9    12    13    1
    10    91    92    2
    11    91    90    1
    12    80    79    2
    13    90    93    1
    14   175   176    1
    15    84    82   ar
    16   176   179    1
    17    13    16    1
    18    13    14    1
    19    97    98    1
    20    83    82   ar
    21    16    17    1
    22   100    99    2
    23    79    78    1
    24    82    81    1
    25   170   171    2
    26   170   169    1
    27     1     7    1
    28     1     2    1
    29    99    98    1
    30    24    22    1
    31    93    94    1
    32    93    95    1
    33    98   101    1
    34    14    18   am
    35    14    15    2
    36   179   180    1
    37   168   169    1
    38     7     6    1
    39    94    96    1
    40   169   172    1
    41    78    81    1
    42    78    77    1
    43    18    19    1
    44     2     3    1
    45     2     5    1
    46    22    19    1
    47    22    23    1
    48   180   181   ar
    49   180   182   ar
    50     4     3    2
    51   101   102    1
    52     3     8   am
    53   181   183   ar
    54     6     5    1
    55    19    20    1
    56    73    72    2
    57   172   174    1
    58   172   173    1
    59    68    67    1
    60    39    41   ar
    61    39    38   ar
    62   102   103    1
    63    41    43   ar
    64    65    64    2
    65    33    34    1
    66   182   184   ar
    67     8     9    1
    68    37    38    1
    69    37    34    1
    70   103   104    1
    71    21    20    2
    72    38    40   ar
    73   183   185   ar
    74    72    71    1
    75    20    25   am
    76    67    69    1
    77    67    66    1
    78    43    42   ar
    79    34    35    1
    80     9    10    1
    81   184   185   ar
    82    11    10    2
    83    64    70   am
    84    64    63    1
    85    71    70    1
    86    71    74    1
    87   185   186    1
    88    40    42   ar
    89    76    74    1
    90   107   105    1
    91   104   105    2
    92    63    66    1
    93    63    62    1
    94    25    26    1
    95    74    75    1
    96    35    36    2
    97    35    44   am
    98    57    56    2
    99   105   106    1
   100   142   141    1
   101    48    49    1
   102    48    45    1
   103    26    27    1
   104    26    29    1
   105    62    56   am
   106   128   126   ar
   107    56    55    1
   108    44    45    1
   109    27    28    2
   110    31    30    1
   111   141   143    1
   112   141   138    1
   113   126   125    1
   114   126   127   ar
   115    45    46    1
   116   155   154    2
   117   158   157    2
   118   125   124    1
   119   156   157    1
   120   156   153    1
   121    50    46   am
   122    50    51    1
   123    30    29    1
   124    30    32    1
   125   157   159   am
   126   124   121    1
   127   154   153    1
   128    53    52    2
   129   163   162    2
   130    46    47    2
   131    55    54    1
   132    55    58    1
   133   162   161    1
   134    52    54   am
   135    52    51    1
   136   138   139    1
   137   138   137    1
   138    58    59    1
   139   140   139    2
   140   153   152    1
   141   123   122    2
   142   121   122    1
   143   121   120    1
   144   137   131   am
   145   161   164    1
   146   161   160    1
   147   164   165    1
   148   152   146   am
   149   135   134    1
   150   132   131    2
   151   131   130    1
   152    59    60    1
   153    59    61    1
   154   133   134    1
   155   133   130    1
   156   120   110   am
   157   166   165    1
   158   146   147    2
   159   146   145    1
   160   134   136    1
   161   165   167    1
   162   130   129    1
   163   117   115   ar
   164   117   118   ar
   165   115   113   ar
   166   110   111    2
   167   110   109    1
   168   144   145    1
   169   119   118    1
   170   145   148    1
   171   118   116   ar
   172   113   112    1
   173   113   114   ar
   174   112   109    1
   175   108   109    1
   176   148   149    1
   177   149   150    1
   178   116   114   ar
   179   150   151    1
