@<TRIPOS>MOLECULE
tmp/4natB01.pdb
 114 110 0 0 0
SMALL
GASTEIGER

@<TRIPOS>ATOM
      1  N         19.6690   17.5200  -45.3440 N.3     9  PRO9       -0.2102
      2  CA        18.7410   17.6080  -44.2790 C.3     9  PRO9        0.1504
      3  C         18.7140   18.9780  -43.6090 C.2     9  PRO9        0.2576
      4  O         19.6750   19.7300  -43.7040 O.2     9  PRO9       -0.2718
      5  CB        19.2090   16.5000  -43.3380 C.3     9  PRO9        0.0282
      6  CG        20.7060   16.5090  -43.4960 C.3     9  PRO9        0.0208
      7  CD        20.9680   16.9630  -44.9260 C.3     9  PRO9        0.0893
      8  N         17.6310   19.3130  -42.9520 N.am   10  GLY10      -0.1943
      9  CA        17.5820   20.5600  -42.1830 C.3    10  GLY10       0.2014
     10  C         16.2140   20.8310  -41.6210 C.2    10  GLY10       0.2640
     11  O         15.2680   20.1440  -41.9540 O.2    10  GLY10      -0.2714
     12  N         16.0630   21.8750  -40.8000 N.am   11  SER11      -0.1935
     13  CA        14.7240   22.3780  -40.4780 C.3    11  SER11       0.2055
     14  C         14.1610   23.4470  -41.4440 C.2    11  SER11       0.2643
     15  O         12.9450   23.5600  -41.5410 O.2    11  SER11      -0.2714
     16  CB        14.6760   22.9060  -39.0240 C.3    11  SER11       0.2130
     17  OG        15.8500   23.6040  -38.8000 O.3    11  SER11      -0.2179
     18  N         15.0040   24.2620  -42.0760 N.am   12  PHE12      -0.1959
     19  CA        14.6120   25.2310  -43.1210 C.3    12  PHE12       0.1771
     20  C         13.4750   26.1010  -42.6730 C.2    12  PHE12       0.2619
     21  O         12.3960   26.0600  -43.2630 O.2    12  PHE12      -0.2715
     22  CB        14.2230   24.4930  -44.4420 C.3    12  PHE12       0.0574
     23  CG        15.3120   23.5730  -44.9880 C.ar   12  PHE12      -0.0200
     24  CD1       16.4120   24.0790  -45.6130 C.ar   12  PHE12      -0.0042
     25  CD2       15.2630   22.2170  -44.7750 C.ar   12  PHE12      -0.0042
     26  CE1       17.4350   23.2350  -46.0710 C.ar   12  PHE12      -0.0003
     27  CE2       16.2620   21.3690  -45.1910 C.ar   12  PHE12      -0.0003
     28  CZ        17.3710   21.8870  -45.8600 C.ar   12  PHE12      -0.0000
     29  N         13.7090   26.8890  -41.6230 N.am   13  ASP13      -0.1971
     30  CA        12.6560   27.6640  -40.9470 C.3    13  ASP13       0.1709
     31  C         12.9240   29.1410  -40.9960 C.2    13  ASP13       0.2293
     32  O         13.1410   29.8060  -39.9530 O.2    13  ASP13      -0.2864
     33  CB        12.4700   27.1780  -39.5140 C.3    13  ASP13       0.1436
     34  CG        11.2820   27.8070  -38.8080 C.2    13  ASP13       0.3671
     35  OD1       10.2020   28.0240  -39.4530 O.co2  13  ASP13      -0.2456
     36  OD2       11.4100   28.0460  -37.5740 O.co2  13  ASP13      -0.2456
     37  N         21.2960   28.1730  -47.3330 N.3    19  HIS19      -0.1241
     38  CA        20.8990   26.7660  -47.6450 C.3    19  HIS19       0.1621
     39  C         20.9490   26.5060  -49.1580 C.2    19  HIS19       0.2264
     40  O         21.4610   25.4630  -49.6260 O.2    19  HIS19      -0.2867
     41  CB        19.4770   26.4480  -47.1630 C.3    19  HIS19       0.0745
     42  CG        19.1820   26.8060  -45.7480 C.ar   19  HIS19       0.0817
     43  ND1       19.5230   25.9930  -44.6840 N.ar   19  HIS19      -0.2268
     44  CD2       18.5080   27.8460  -45.2100 C.ar   19  HIS19       0.1154
     45  CE1       19.1060   26.5350  -43.5610 C.ar   19  HIS19       0.1986
     46  NE2       18.4660   27.6480  -43.8500 N.ar   19  HIS19      -0.2212
     47  N         12.5760   17.6650  -41.1000 N.3    38  LEU38      -0.1245
     48  CA        12.2780   16.7880  -39.9310 C.3    38  LEU38       0.1561
     49  C         10.7600   16.7580  -39.5530 C.2    38  LEU38       0.2260
     50  O         10.1080   17.7870  -39.5510 O.2    38  LEU38      -0.2867
     51  CB        13.0750   17.1880  -38.6500 C.3    38  LEU38       0.0270
     52  CG        14.4230   17.9340  -38.6610 C.3    38  LEU38       0.0019
     53  CD1       14.3340   19.3080  -39.3180 C.3    38  LEU38       0.0001
     54  CD2       15.0410   18.1130  -37.2540 C.3    38  LEU38       0.0001
     55  N         26.0930   18.4550  -46.0430 N.3    85  ARG85      -0.1245
     56  CA        25.9450   19.4510  -45.0110 C.3    85  ARG85       0.1563
     57  C         26.9130   20.6120  -45.3320 C.2    85  ARG85       0.2260
     58  O         28.0060   20.3940  -45.8960 O.2    85  ARG85      -0.2867
     59  CB        26.3350   18.8640  -43.6760 C.3    85  ARG85       0.0307
     60  CG        25.5000   17.6720  -43.2180 C.3    85  ARG85       0.0489
     61  CD        24.1420   18.1170  -42.7170 C.3    85  ARG85       0.2205
     62  NE        24.1900   18.5650  -41.3060 N.pl3  85  ARG85      -0.0865
     63  CZ        23.2250   19.2420  -40.6940 C.cat  85  ARG85       0.5346
     64  NH1       23.3570   19.6040  -39.4110 N.pl3  85  ARG85       0.1354
     65  NH2       22.1260   19.5970  -41.3620 N.pl3  85  ARG85       0.1354
     66  N         29.9570   26.5890  -41.8740 N.3    88  ARG88      -0.1245
     67  CA        30.2370   28.0390  -41.8850 C.3    88  ARG88       0.1563
     68  C         31.3740   28.4170  -40.9150 C.2    88  ARG88       0.2260
     69  O         32.2220   29.2590  -41.2280 O.2    88  ARG88      -0.2867
     70  CB        28.9740   28.8630  -41.5210 C.3    88  ARG88       0.0307
     71  CG        27.6210   28.3620  -42.0160 C.3    88  ARG88       0.0489
     72  CD        26.5680   28.6190  -40.9320 C.3    88  ARG88       0.2205
     73  NE        25.1890   28.3940  -41.3730 N.pl3  88  ARG88      -0.0865
     74  CZ        24.0800   28.7200  -40.6800 C.cat  88  ARG88       0.5346
     75  NH1       22.8580   28.4930  -41.1970 N.pl3  88  ARG88       0.1354
     76  NH2       24.1770   29.2930  -39.4850 N.pl3  88  ARG88       0.1354
     77  N         32.0000   26.4610  -34.8760 N.3    91  SER91      -0.1202
     78  CA        31.0200   25.8270  -33.9440 C.3    91  SER91       0.2020
     79  C         30.1050   24.8670  -34.7070 C.2    91  SER91       0.2618
     80  O         29.7180   23.8240  -34.1580 O.2    91  SER91      -0.2717
     81  CB        30.2270   26.8600  -33.1850 C.3    91  SER91       0.2103
     82  OG        29.7070   27.8100  -34.1040 O.3    91  SER91      -0.2182
     83  N         29.7800   25.2290  -35.9540 N.am   92  ASP92      -0.1973
     84  CA        29.2260   24.2410  -36.9170 C.3    92  ASP92       0.1709
     85  C         30.0720   22.9950  -37.0170 C.2    92  ASP92       0.2293
     86  O         29.5740   21.8890  -37.0010 O.2    92  ASP92      -0.2864
     87  CB        29.1340   24.7930  -38.3420 C.3    92  ASP92       0.1436
     88  CG        28.2960   26.0270  -38.4250 C.2    92  ASP92       0.3671
     89  OD1       27.1150   25.9540  -38.0410 O.co2  92  ASP92      -0.2456
     90  OD2       28.8350   27.0750  -38.8610 O.co2  92  ASP92      -0.2456
     91  N         29.9580   20.5810  -33.8180 N.3    95  TYR95      -0.1241
     92  CA        28.6390   19.9530  -33.7640 C.3    95  TYR95       0.1605
     93  C         28.4970   18.8470  -34.8510 C.2    95  TYR95       0.2264
     94  O         28.0640   17.7320  -34.5660 O.2    95  TYR95      -0.2867
     95  CB        27.6020   21.0580  -33.9070 C.3    95  TYR95       0.0534
     96  CG        26.1750   20.6260  -34.0510 C.ar   95  TYR95      -0.0201
     97  CD1       25.5000   20.0160  -32.9950 C.ar   95  TYR95      -0.0009
     98  CD2       25.4830   20.8450  -35.2440 C.ar   95  TYR95      -0.0009
     99  CE1       24.1870   19.6350  -33.1280 C.ar   95  TYR95       0.0417
    100  CE2       24.1520   20.4740  -35.3730 C.ar   95  TYR95       0.0417
    101  CZ        23.5250   19.8810  -34.2990 C.ar   95  TYR95       0.1957
    102  OH        22.2270   19.5000  -34.4210 O.3    95  TYR95      -0.2866
    103  N         21.6260   32.7470  -41.3100 N.3   125  SER125     -0.1202
    104  CA        20.9670   31.6040  -40.7040 C.3   125  SER125      0.2020
    105  C         19.5200   32.0070  -40.7950 C.2   125  SER125      0.2619
    106  O         19.2110   33.2300  -40.8200 O.2   125  SER125     -0.2717
    107  CB        21.3490   31.3770  -39.2140 C.3   125  SER125      0.2103
    108  OG        21.1510   32.5130  -38.4250 O.3   125  SER125     -0.2182
    109  N         18.6560   31.0190  -40.7200 N.am  126  SER126     -0.1951
    110  CA        17.2330   31.2810  -40.5550 C.3   126  SER126      0.1924
    111  C         16.9750   32.2440  -39.3890 C.2   126  SER126      0.2314
    112  O         16.1590   33.1550  -39.4790 O.2   126  SER126     -0.2863
    113  CB        16.4950   29.9720  -40.3640 C.3   126  SER126      0.2116
    114  OG        16.7690   29.1500  -41.5170 O.3   126  SER126     -0.2180
@<TRIPOS>BOND
     1    40    39    2
     2    39    38    1
     3    38    37    1
     4    38    41    1
     5    41    42    1
     6    26    28   ar
     7    26    24   ar
     8    55    56    1
     9    58    57    2
    10    28    27   ar
    11    42    44   ar
    12    42    43   ar
    13    24    23   ar
    14     1     7    1
    15     1     2    1
    16    57    56    1
    17    44    46   ar
    18    27    25   ar
    19    56    59    1
    20    23    25   ar
    21    23    22    1
    22     7     6    1
    23    43    45   ar
    24    22    19    1
    25     2     3    1
    26     2     5    1
    27    46    45   ar
    28     4     3    2
    29    59    60    1
    30     3     8   am
    31     6     5    1
    32    21    20    2
    33    60    61    1
    34    19    20    1
    35    19    18    1
    36     8     9    1
    37    61    62    1
    38    20    29   am
    39     9    10    1
    40    18    14   am
    41    71    70    1
    42    71    72    1
    43    11    10    2
    44    67    66    1
    45    67    70    1
    46    67    68    1
    47    29    30    1
    48    10    12   am
    49    15    14    2
    50   114   113    1
    51    14    13    1
    52    73    72    1
    53    73    74    2
    54    65    63    1
    55   103   104    1
    56    62    63    2
    57    69    68    2
    58    75    74    1
    59    47    48    1
    60    31    30    1
    61    31    32    2
    62    30    33    1
    63   106   105    2
    64    12    13    1
    65   105   109   am
    66   105   104    1
    67   109   110    1
    68   104   107    1
    69    63    64    1
    70    74    76    1
    71   110   113    1
    72   110   111    1
    73    13    16    1
    74    48    49    1
    75    48    51    1
    76    49    50    2
    77    33    34    1
    78   112   111    2
    79    35    34   ar
    80    53    52    1
    81   107   108    1
    82    16    17    1
    83    90    88   ar
    84    34    36   ar
    85    52    51    1
    86    52    54    1
    87    88    87    1
    88    88    89   ar
    89    87    84    1
    90    85    86    2
    91    85    84    1
    92    84    83    1
    93    83    79   am
    94   100    98   ar
    95   100   101   ar
    96    98    96   ar
    97    77    78    1
    98    93    94    2
    99    93    92    1
   100    79    80    2
   101    79    78    1
   102   102   101    1
   103   101    99   ar
   104    82    81    1
   105    96    95    1
   106    96    97   ar
   107    78    81    1
   108    95    92    1
   109    91    92    1
   110    99    97   ar
