@<TRIPOS>MOLECULE
tmp/4nauA01.pdb
 200 191 0 0 0
SMALL
GASTEIGER

@<TRIPOS>ATOM
      1  N        -11.8430  -48.4420   26.4780 N.3     8  PRO8       -0.2102
      2  CA       -13.0860  -47.7100   26.3200 C.3     8  PRO8        0.1504
      3  C        -12.9620  -46.5100   25.4630 C.2     8  PRO8        0.2576
      4  O        -11.8810  -45.9670   25.3220 O.2     8  PRO8       -0.2718
      5  CB       -13.4070  -47.2500   27.7470 C.3     8  PRO8        0.0282
      6  CG       -12.0740  -47.0610   28.3530 C.3     8  PRO8        0.0208
      7  CD       -11.2790  -48.2260   27.8270 C.3     8  PRO8        0.0893
      8  N        -14.1010  -46.0850   24.9290 N.am    9  GLY9       -0.1943
      9  CA       -14.1690  -44.9110   24.0920 C.3     9  GLY9        0.2014
     10  C        -15.5430  -44.7350   23.4760 C.2     9  GLY9        0.2639
     11  O        -16.3650  -45.6410   23.5130 O.2     9  GLY9       -0.2714
     12  N        -15.7910  -43.5430   22.9350 N.am   10  SER10      -0.1949
     13  CA       -16.9300  -43.3260   22.0770 C.3    10  SER10       0.1924
     14  C        -16.6170  -43.8130   20.6360 C.2    10  SER10       0.2314
     15  O        -17.4790  -44.4040   19.9950 O.2    10  SER10      -0.2863
     16  CB       -17.4180  -41.8740   22.1410 C.3    10  SER10       0.2116
     17  OG       -16.4290  -40.9640   21.7490 O.3    10  SER10      -0.2180
     18  N        -14.5320  -51.3970   24.2890 N.3    35  CYS35      -0.1221
     19  CA       -15.8870  -51.1520   24.7390 C.3    35  CYS35       0.1808
     20  C        -16.4110  -49.8900   24.2410 C.2    35  CYS35       0.2601
     21  O        -15.8120  -48.8600   24.4680 O.2    35  CYS35      -0.2717
     22  CB       -15.9230  -51.0100   26.2280 C.3    35  CYS35       0.0970
     23  SG       -15.5960  -52.5990   26.8790 S.3    35  CYS35      -0.0800
     24  N        -17.5630  -49.9440   23.6030 N.am   36  VAL36      -0.1965
     25  CA       -18.1370  -48.7340   23.0430 C.3    36  VAL36       0.1727
     26  C        -19.1930  -48.2070   23.9870 C.2    36  VAL36       0.2616
     27  O        -20.0240  -48.9240   24.5170 O.2    36  VAL36      -0.2715
     28  CB       -18.6830  -48.9380   21.6240 C.3    36  VAL36       0.0290
     29  CG1      -19.1950  -47.6310   21.0440 C.3    36  VAL36       0.0023
     30  CG2      -17.5980  -49.4730   20.7320 C.3    36  VAL36       0.0023
     31  N        -19.1170  -46.9150   24.1900 N.am   37  LEU37      -0.1977
     32  CA       -20.1030  -46.1910   24.9620 C.3    37  LEU37       0.1596
     33  C        -21.4530  -45.9860   24.2600 C.2    37  LEU37       0.2287
     34  O        -21.4940  -45.4900   23.1290 O.2    37  LEU37      -0.2864
     35  CB       -19.5190  -44.8320   25.2520 C.3    37  LEU37       0.0297
     36  CG       -20.3910  -43.9730   26.1200 C.3    37  LEU37       0.0022
     37  CD1      -20.8770  -44.7600   27.3390 C.3    37  LEU37       0.0001
     38  CD2      -19.5160  -42.7680   26.4780 C.3    37  LEU37       0.0001
     39  N        -25.0220  -41.2190   24.5710 N.3    40  SER40      -0.1217
     40  CA       -25.1990  -41.2600   26.0270 C.3    40  SER40       0.1889
     41  C        -25.4680  -39.8300   26.6070 C.2    40  SER40       0.2288
     42  O        -24.8620  -39.4820   27.6520 O.2    40  SER40      -0.2866
     43  CB       -23.9170  -41.8590   26.6520 C.3    40  SER40       0.2089
     44  OG       -22.7430  -41.2330   26.1070 O.3    40  SER40      -0.2183
     45  N        -25.5370  -37.3110   23.5910 N.3    42  LYS42      -0.1245
     46  CA       -24.4470  -36.7580   22.7240 C.3    42  LYS42       0.1561
     47  C        -24.6700  -36.9660   21.2260 C.2    42  LYS42       0.2260
     48  O        -24.7490  -38.1190   20.7680 O.2    42  LYS42      -0.2867
     49  CB       -23.0830  -37.3470   23.1250 C.3    42  LYS42       0.0271
     50  CG       -22.8870  -37.4970   24.6360 C.3    42  LYS42       0.0035
     51  CD       -23.1780  -36.1980   25.4080 C.3    42  LYS42       0.0206
     52  CE       -22.6420  -36.2490   26.8450 C.3    42  LYS42       0.1093
     53  NZ       -21.1560  -36.0170   26.8730 N.3    42  LYS42      -0.1314
     54  N        -21.4320  -51.0750   26.4030 N.3    70  PHE70      -0.1227
     55  CA       -21.9980  -51.0370   27.7680 C.3    70  PHE70       0.1736
     56  C        -22.7590  -49.7420   28.0600 C.2    70  PHE70       0.2596
     57  O        -22.5050  -48.6650   27.4770 O.2    70  PHE70      -0.2718
     58  CB       -20.9040  -51.2870   28.8170 C.3    70  PHE70       0.0547
     59  CG       -21.4220  -51.7640   30.1530 C.ar   70  PHE70      -0.0202
     60  CD1      -21.9710  -53.0320   30.2860 C.ar   70  PHE70      -0.0042
     61  CD2      -21.3310  -50.9600   31.2870 C.ar   70  PHE70      -0.0042
     62  CE1      -22.4240  -53.4920   31.5130 C.ar   70  PHE70      -0.0003
     63  CE2      -21.7850  -51.4230   32.5190 C.ar   70  PHE70      -0.0003
     64  CZ       -22.3350  -52.6860   32.6260 C.ar   70  PHE70      -0.0000
     65  N        -23.7360  -49.8890   28.9540 N.am   71  SER71      -0.1938
     66  CA       -24.5820  -48.7980   29.4010 C.3    71  SER71       0.2055
     67  C        -24.0260  -48.3380   30.7270 C.2    71  SER71       0.2644
     68  O        -23.5260  -47.2060   30.8520 O.2    71  SER71      -0.2714
     69  CB       -26.0500  -49.2740   29.5440 C.3    71  SER71       0.2130
     70  OG       -26.1890  -50.6250   30.0590 O.3    71  SER71      -0.2179
     71  N        -24.0450  -49.2370   31.7070 N.am   72  GLY72      -0.1939
     72  CA       -23.6070  -48.9120   33.0760 C.3    72  GLY72       0.2014
     73  C        -22.2300  -48.2370   33.1940 C.2    72  GLY72       0.2639
     74  O        -21.8550  -47.3650   32.3900 O.2    72  GLY72      -0.2714
     75  N        -21.5070  -48.6080   34.2430 N.am   73  LEU73      -0.1963
     76  CA       -20.2550  -47.9740   34.5850 C.3    73  LEU73       0.1728
     77  C        -19.1420  -48.8140   34.0710 C.2    73  LEU73       0.2616
     78  O        -19.2450  -50.0250   34.0760 O.2    73  LEU73      -0.2715
     79  CB       -20.0870  -47.9090   36.0900 C.3    73  LEU73       0.0311
     80  CG       -20.8550  -46.8340   36.8140 C.3    73  LEU73       0.0022
     81  CD1      -20.4350  -46.9050   38.2650 C.3    73  LEU73       0.0001
     82  CD2      -20.5550  -45.4690   36.2520 C.3    73  LEU73       0.0001
     83  N        -18.0430  -48.1760   33.7090 N.am   74  LEU74      -0.1977
     84  CA       -16.9590  -48.8930   33.1060 C.3    74  LEU74       0.1596
     85  C        -16.3860  -49.8930   34.1000 C.2    74  LEU74       0.2287
     86  O        -16.0850  -51.0050   33.7290 O.2    74  LEU74      -0.2864
     87  CB       -15.9060  -47.9160   32.5950 C.3    74  LEU74       0.0297
     88  CG       -14.7280  -48.5360   31.8700 C.3    74  LEU74       0.0022
     89  CD1      -15.2010  -49.4150   30.7410 C.3    74  LEU74       0.0001
     90  CD2      -13.8200  -47.4390   31.3630 C.3    74  LEU74       0.0001
     91  N        -18.6640  -53.0380   34.1570 N.3    77  TYR77      -0.1241
     92  CA       -18.2350  -53.8590   33.0200 C.3    77  TYR77       0.1605
     93  C        -16.9820  -54.6950   33.3180 C.2    77  TYR77       0.2264
     94  O        -17.0340  -55.9210   33.2650 O.2    77  TYR77      -0.2867
     95  CB       -18.0010  -53.0280   31.7500 C.3    77  TYR77       0.0534
     96  CG       -17.7700  -53.9300   30.5610 C.ar   77  TYR77      -0.0201
     97  CD1      -18.8280  -54.3470   29.7690 C.ar   77  TYR77      -0.0009
     98  CD2      -16.4950  -54.4360   30.2760 C.ar   77  TYR77      -0.0009
     99  CE1      -18.6210  -55.2210   28.7020 C.ar   77  TYR77       0.0417
    100  CE2      -16.2710  -55.3040   29.2210 C.ar   77  TYR77       0.0417
    101  CZ       -17.3460  -55.7000   28.4360 C.ar   77  TYR77       0.1957
    102  OH       -17.1570  -56.5500   27.3830 O.3    77  TYR77      -0.2866
    103  N         -7.8100  -51.2910   32.7060 N.3    86  ILE86      -0.1245
    104  CA        -8.3520  -50.3980   31.7220 C.3    86  ILE86       0.1561
    105  C         -7.1860  -49.6800   31.0360 C.2    86  ILE86       0.2260
    106  O         -6.3080  -49.1370   31.7090 O.2    86  ILE86      -0.2867
    107  CB        -9.2140  -49.3330   32.4130 C.3    86  ILE86       0.0252
    108  CG1      -10.4330  -49.9960   33.0420 C.3    86  ILE86       0.0019
    109  CG2       -9.5910  -48.1850   31.4580 C.3    86  ILE86       0.0019
    110  CD1      -11.3510  -48.9970   33.7010 C.3    86  ILE86       0.0001
    111  N         -5.9820  -46.6290   28.3320 N.3    88  ARG88      -0.1245
    112  CA        -6.2910  -45.3750   27.6730 C.3    88  ARG88       0.1563
    113  C         -5.0050  -44.7670   27.1610 C.2    88  ARG88       0.2260
    114  O         -3.9280  -45.0940   27.6290 O.2    88  ARG88      -0.2867
    115  CB        -6.8810  -44.3180   28.6080 C.3    88  ARG88       0.0307
    116  CG        -7.9030  -44.7660   29.6030 C.3    88  ARG88       0.0489
    117  CD        -9.2560  -44.7150   28.9640 C.3    88  ARG88       0.2205
    118  NE        -9.8510  -43.3780   29.0080 N.pl3  88  ARG88      -0.0865
    119  CZ       -10.6800  -42.8910   28.0920 C.cat  88  ARG88       0.5346
    120  NH1      -11.1940  -41.6780   28.2280 N.pl3  88  ARG88       0.1354
    121  NH2      -10.9860  -43.6120   27.0240 N.pl3  88  ARG88       0.1354
    122  N         -7.8670  -34.3750   32.5700 N.3    98  TYR98      -0.1227
    123  CA        -9.1720  -35.0040   32.4230 C.3    98  TYR98       0.1736
    124  C         -9.0320  -36.4250   32.9420 C.2    98  TYR98       0.2595
    125  O         -9.8130  -36.8300   33.8010 O.2    98  TYR98      -0.2718
    126  CB        -9.6440  -34.8670   30.9390 C.3    98  TYR98       0.0548
    127  CG       -10.8540  -35.6790   30.4630 C.ar   98  TYR98      -0.0200
    128  CD1      -12.1740  -35.2760   30.7360 C.ar   98  TYR98      -0.0009
    129  CD2      -10.6730  -36.8350   29.6820 C.ar   98  TYR98      -0.0009
    130  CE1      -13.2720  -36.0320   30.2890 C.ar   98  TYR98       0.0417
    131  CE2      -11.7610  -37.5940   29.2260 C.ar   98  TYR98       0.0417
    132  CZ       -13.0590  -37.1890   29.5230 C.ar   98  TYR98       0.1957
    133  OH       -14.1230  -37.9590   29.0450 O.3    98  TYR98      -0.2866
    134  N         -7.9980  -37.1620   32.5110 N.am   99  GLU99      -0.1979
    135  CA        -7.8140  -38.5610   32.9350 C.3    99  GLU99       0.1602
    136  C         -7.5510  -38.7870   34.4130 C.2    99  GLU99       0.2287
    137  O         -8.1110  -39.7250   34.9960 O.2    99  GLU99      -0.2864
    138  CB        -6.7230  -39.2620   32.1260 C.3    99  GLU99       0.0415
    139  CG        -7.2110  -39.7340   30.7660 C.3    99  GLU99       0.1163
    140  CD        -8.3240  -40.7640   30.8540 C.2    99  GLU99       0.3649
    141  OE1       -9.0550  -40.8930   29.8850 O.co2  99  GLU99      -0.2457
    142  OE2       -8.4850  -41.4340   31.8910 O.co2  99  GLU99      -0.2457
    143  N        -10.8860  -38.7110   36.2830 N.3   102  LEU102     -0.1231
    144  CA       -11.7230  -39.8860   36.0110 C.3   102  LEU102      0.1693
    145  C        -11.1520  -41.1140   36.6880 C.2   102  LEU102      0.2592
    146  O        -11.9160  -41.8930   37.2570 O.2   102  LEU102     -0.2718
    147  CB       -11.8230  -40.2290   34.5220 C.3   102  LEU102      0.0284
    148  CG       -12.2560  -39.2360   33.4490 C.3   102  LEU102      0.0019
    149  CD1      -12.5640  -39.9960   32.1750 C.3   102  LEU102      0.0001
    150  CD2      -13.4740  -38.4550   33.8740 C.3   102  LEU102      0.0001
    151  N         -9.8290  -41.3140   36.5930 N.am  103  THR103     -0.1953
    152  CA        -9.1720  -42.4780   37.2400 C.3   103  THR103      0.1897
    153  C         -9.2300  -42.3870   38.8010 C.2   103  THR103      0.2313
    154  O         -9.3210  -43.3970   39.5150 O.2   103  THR103     -0.2863
    155  CB        -7.7520  -42.7890   36.6330 C.3   103  THR103      0.1794
    156  OG1       -7.1320  -43.8590   37.3150 O.3   103  THR103     -0.2208
    157  CG2       -6.7830  -41.6590   36.7330 C.3   103  THR103      0.0378
    158  N        -11.8690  -41.1000   40.4780 N.3   105  MET105     -0.1230
    159  CA       -13.2140  -41.5510   40.7740 C.3   105  MET105      0.1702
    160  C        -13.3920  -43.0570   40.5560 C.2   105  MET105      0.2592
    161  O        -14.0020  -43.7260   41.3710 O.2   105  MET105     -0.2718
    162  CB       -14.2320  -40.8010   39.9250 C.3   105  MET105      0.0401
    163  CG       -15.6390  -41.3510   40.0620 C.3   105  MET105      0.0596
    164  SD       -16.1620  -41.1900   41.7840 S.3   105  MET105     -0.1393
    165  CE       -16.4610  -39.4320   41.9860 C.3   105  MET105      0.0692
    166  N        -12.8820  -43.5700   39.4490 N.am  106  ASN106     -0.1974
    167  CA       -12.8540  -45.0210   39.1970 C.3   106  ASN106      0.1688
    168  C        -12.1850  -45.8000   40.3270 C.2   106  ASN106      0.2292
    169  O        -12.6780  -46.8670   40.7170 O.2   106  ASN106     -0.2864
    170  CB       -12.2730  -45.3660   37.7890 C.3   106  ASN106      0.1181
    171  CG       -13.2770  -45.0980   36.6330 C.2   106  ASN106      0.2629
    172  OD1      -12.9120  -45.0370   35.4470 O.2   106  ASN106     -0.2716
    173  ND2      -14.5420  -44.9530   36.9740 N.am  106  ASN106     -0.0877
    174  N        -14.6150  -46.0360   43.1430 N.3   109  LEU109     -0.1245
    175  CA       -15.7680  -46.8930   42.7680 C.3   109  LEU109      0.1561
    176  C        -15.4290  -48.3510   42.7140 C.2   109  LEU109      0.2260
    177  O        -16.3170  -49.1820   42.8400 O.2   109  LEU109     -0.2867
    178  CB       -16.3240  -46.5100   41.3990 C.3   109  LEU109      0.0270
    179  CG       -16.9410  -45.1410   41.1870 C.3   109  LEU109      0.0019
    180  CD1      -17.0590  -44.8600   39.7040 C.3   109  LEU109      0.0001
    181  CD2      -18.2960  -44.9820   41.8550 C.3   109  LEU109      0.0001
    182  N         -6.0970  -48.3910   35.8480 N.3   115  THR115     -0.1218
    183  CA        -6.0360  -47.8000   34.5550 C.3   115  THR115      0.1862
    184  C         -4.5800  -47.6670   34.2380 C.2   115  THR115      0.2287
    185  O         -3.8070  -47.1690   35.0240 O.2   115  THR115     -0.2866
    186  CB        -6.7000  -46.3910   34.5130 C.3   115  THR115      0.1770
    187  OG1       -8.0030  -46.4410   35.0750 O.3   115  THR115     -0.2211
    188  CG2       -6.8470  -45.9370   33.1430 C.3   115  THR115      0.0375
    189  N         -1.9010  -46.1570   31.3210 N.3   117  TYR117     -0.1241
    190  CA        -1.8030  -45.2020   30.2700 C.3   117  TYR117      0.1605
    191  C         -0.5790  -45.4210   29.3720 C.2   117  TYR117      0.2264
    192  O          0.4930  -45.7430   29.8650 O.2   117  TYR117     -0.2867
    193  CB        -1.7780  -43.8160   30.8830 C.3   117  TYR117      0.0534
    194  CG        -3.0610  -43.4900   31.5710 C.ar  117  TYR117     -0.0201
    195  CD1       -3.2120  -43.7200   32.9280 C.ar  117  TYR117     -0.0009
    196  CD2       -4.1220  -42.9250   30.8780 C.ar  117  TYR117     -0.0009
    197  CE1       -4.3900  -43.4220   33.5660 C.ar  117  TYR117      0.0417
    198  CE2       -5.2960  -42.6310   31.5050 C.ar  117  TYR117      0.0417
    199  CZ        -5.4090  -42.8780   32.8640 C.ar  117  TYR117      0.1957
    200  OH        -6.5800  -42.6110   33.5380 O.3   117  TYR117     -0.2866
@<TRIPOS>BOND
     1    15    14    2
     2    14    13    1
     3    30    28    1
     4    48    47    2
     5    29    28    1
     6    47    46    1
     7    28    25    1
     8    17    16    1
     9    13    16    1
    10    13    12    1
    11    46    49    1
    12    46    45    1
    13    12    10   am
    14    25    24    1
    15    25    26    1
    16    49    50    1
    17    34    33    2
    18    10    11    2
    19    10     9    1
    20    24    20   am
    21    26    31   am
    22    26    27    2
    23     9     8    1
    24    31    32    1
    25    20    21    2
    26    20    19    1
    27    33    32    1
    28    18    19    1
    29    39    40    1
    30    50    51    1
    31    19    22    1
    32     8     3   am
    33    32    35    1
    34    35    36    1
    35     4     3    2
    36    51    52    1
    37     3     2    1
    38    40    41    1
    39    40    43    1
    40    44    43    1
    41    36    38    1
    42    36    37    1
    43    22    23    1
    44     2     1    1
    45     2     5    1
    46    54    55    1
    47     1     7    1
    48    41    42    2
    49    52    53    1
    50   121   119    1
    51   113   114    2
    52   113   112    1
    53   102   101    1
    54    57    56    2
    55   112   111    1
    56   112   115    1
    57     5     6    1
    58    55    56    1
    59    55    58    1
    60     7     6    1
    61    56    65   am
    62   119   120    1
    63   119   118    2
    64   101    99   ar
    65   101   100   ar
    66   115   116    1
    67    99    97   ar
    68    58    59    1
    69    65    66    1
    70   117   118    1
    71   117   116    1
    72   133   132    1
    73   100    98   ar
    74   131   132   ar
    75   131   129   ar
    76   191   192    2
    77   191   190    1
    78    66    69    1
    79    66    67    1
    80   132   130   ar
    81    69    70    1
    82   129   127   ar
    83    97    96   ar
    84   141   140   ar
    85    59    60   ar
    86    59    61   ar
    87   190   193    1
    88   190   189    1
    89    98    96   ar
    90    60    62   ar
    91   130   128   ar
    92   127   128   ar
    93   127   126    1
    94    96    95    1
    95    67    68    2
    96    67    71   am
    97    89    88    1
    98   139   140    1
    99   139   138    1
   100   140   142   ar
   101   196   198   ar
   102   196   194   ar
   103   193   194    1
   104   126   123    1
   105   105   106    2
   106   105   104    1
   107    61    63   ar
   108    90    88    1
   109   109   107    1
   110   198   199   ar
   111    62    64   ar
   112   194   195   ar
   113    71    72    1
   114   104   107    1
   115   104   103    1
   116    95    92    1
   117    88    87    1
   118   138   135    1
   119   149   148    1
   120    74    73    2
   121   107   108    1
   122   123   122    1
   123   123   124    1
   124   134   135    1
   125   134   124   am
   126    63    64   ar
   127    87    84    1
   128   199   200    1
   129   199   197   ar
   130   195   197   ar
   131   135   136    1
   132   124   125    2
   133    92    93    1
   134    92    91    1
   135   108   110    1
   136    72    73    1
   137    84    83    1
   138    84    85    1
   139   188   186    1
   140    73    75   am
   141    94    93    2
   142   148   150    1
   143   148   147    1
   144    83    77   am
   145    86    85    2
   146    77    78    2
   147    77    76    1
   148   184   183    1
   149   184   185    2
   150    75    76    1
   151   136   137    2
   152   186   183    1
   153   186   187    1
   154   147   144    1
   155   183   182    1
   156    76    79    1
   157   172   171    2
   158   144   143    1
   159   144   145    1
   160    79    80    1
   161    82    80    1
   162   151   145   am
   163   151   152    1
   164   155   157    1
   165   155   152    1
   166   155   156    1
   167   171   173   am
   168   171   170    1
   169   145   146    2
   170    80    81    1
   171   152   153    1
   172   170   167    1
   173   153   154    2
   174   167   166    1
   175   167   168    1
   176   166   160   am
   177   180   179    1
   178   162   163    1
   179   162   159    1
   180   163   164    1
   181   168   169    2
   182   158   159    1
   183   160   159    1
   184   160   161    2
   185   179   178    1
   186   179   181    1
   187   178   175    1
   188   164   165    1
   189   176   175    1
   190   176   177    2
   191   175   174    1
