@<TRIPOS>MOLECULE
tmp/4nawI00.pdb
 130 125 0 0 0
SMALL
GASTEIGER

@<TRIPOS>ATOM
      1  N        -58.9680    2.9160   33.3690 N.3     2  LYS2       -0.1245
      2  CA       -57.6970    3.1320   32.6820 C.3     2  LYS2        0.1561
      3  C        -56.4960    3.0800   33.6240 C.2     2  LYS2        0.2260
      4  O        -56.6020    3.3940   34.8090 O.2     2  LYS2       -0.2867
      5  CB       -57.7120    4.4670   31.9370 C.3     2  LYS2        0.0271
      6  CG       -58.5750    4.4590   30.6870 C.3     2  LYS2        0.0035
      7  CD       -58.3820    5.7240   29.8650 C.3     2  LYS2        0.0206
      8  CE       -59.0750    5.6160   28.5200 C.3     2  LYS2        0.1093
      9  NZ       -58.7510    6.7650   27.6350 N.3     2  LYS2       -0.1314
     10  N        -52.5670    4.2110   34.6850 N.3     4  ASP4       -0.1239
     11  CA       -51.5710    5.2720   34.5930 C.3     4  ASP4        0.1674
     12  C        -50.1990    4.6680   34.3230 C.2     4  ASP4        0.2266
     13  O        -49.7700    3.7560   35.0270 O.2     4  ASP4       -0.2867
     14  CB       -51.5340    6.0910   35.8840 C.3     4  ASP4        0.1410
     15  CG       -52.6550    7.1120   35.9640 C.2     4  ASP4        0.3668
     16  OD1      -53.6810    6.9410   35.2710 O.co2   4  ASP4       -0.2456
     17  OD2      -52.5060    8.0890   36.7270 O.co2   4  ASP4       -0.2456
     18  N        -43.6410    6.8570   31.3280 N.3     7  LEU7       -0.1245
     19  CA       -42.6030    6.5200   30.3640 C.3     7  LEU7        0.1561
     20  C        -41.3180    7.2720   30.6820 C.2     7  LEU7        0.2260
     21  O        -41.3300    8.4920   30.8480 O.2     7  LEU7       -0.2867
     22  CB       -43.0690    6.8680   28.9500 C.3     7  LEU7        0.0270
     23  CG       -44.3800    6.2120   28.5140 C.3     7  LEU7        0.0019
     24  CD1      -44.8500    6.7880   27.1900 C.3     7  LEU7        0.0001
     25  CD2      -44.2180    4.7050   28.4090 C.3     7  LEU7        0.0001
     26  N        -44.1950   14.7650   26.9380 N.3    18  THR18      -0.1218
     27  CA       -45.1930   14.3040   27.8990 C.3    18  THR18       0.1862
     28  C        -44.9120   12.8460   28.2610 C.2    18  THR18       0.2287
     29  O        -44.7430   12.0000   27.3780 O.2    18  THR18      -0.2866
     30  CB       -46.6170   14.4400   27.3330 C.3    18  THR18       0.1770
     31  OG1      -46.8200   15.7810   26.8670 O.3    18  THR18      -0.2211
     32  CG2      -47.6540   14.1130   28.3970 C.3    18  THR18       0.0375
     33  N        -46.3590   11.0370   31.4310 N.3    20  LYS20      -0.1231
     34  CA       -47.3980   10.2880   32.1370 C.3    20  LYS20       0.1693
     35  C        -48.6780   10.2110   31.3110 C.2    20  LYS20       0.2592
     36  O        -49.1420   11.2200   30.7780 O.2    20  LYS20      -0.2718
     37  CB       -47.6880   10.9040   33.5050 C.3    20  LYS20       0.0285
     38  CG       -48.5820   10.0290   34.3730 C.3    20  LYS20       0.0035
     39  CD       -48.6250   10.5060   35.8140 C.3    20  LYS20       0.0206
     40  CE       -49.4020    9.5340   36.6920 C.3    20  LYS20       0.1093
     41  NZ       -49.3690    9.9200   38.1320 N.3    20  LYS20      -0.1314
     42  N        -49.2450    9.0090   31.2230 N.am   21  TRP21      -0.1962
     43  CA       -50.3720    8.7490   30.3360 C.3    21  TRP21       0.1771
     44  C        -51.4240    7.8410   30.9560 C.2    21  TRP21       0.2619
     45  O        -51.0980    6.8950   31.6710 O.2    21  TRP21      -0.2715
     46  CB       -49.8730    8.1080   29.0460 C.3    21  TRP21       0.0590
     47  CG       -48.9380    8.9760   28.2820 C.ar   21  TRP21       0.0006
     48  CD1      -47.5850    9.0480   28.4240 C.ar   21  TRP21       0.0946
     49  CD2      -49.2850    9.9050   27.2510 C.ar   21  TRP21       0.0152
     50  NE1      -47.0660    9.9640   27.5430 N.ar   21  TRP21      -0.2442
     51  CE2      -48.0900   10.5050   26.8110 C.ar   21  TRP21       0.0810
     52  CE3      -50.4920   10.2880   26.6560 C.ar   21  TRP21       0.0012
     53  CZ2      -48.0650   11.4650   25.8030 C.ar   21  TRP21       0.0191
     54  CZ3      -50.4650   11.2410   25.6570 C.ar   21  TRP21       0.0001
     55  CH2      -49.2600   11.8180   25.2400 C.ar   21  TRP21       0.0015
     56  N        -52.6870    8.1380   30.6620 N.am   22  ALA22      -0.1963
     57  CA       -53.8010    7.2750   31.0380 C.3    22  ALA22       0.1728
     58  C        -54.0720    6.3310   29.8770 C.2    22  ALA22       0.2616
     59  O        -54.2860    6.7730   28.7480 O.2    22  ALA22      -0.2715
     60  CB       -55.0350    8.1030   31.3520 C.3    22  ALA22       0.0334
     61  N        -54.0630    5.0310   30.1560 N.am   23  VAL23      -0.1963
     62  CA       -54.0650    4.0260   29.0990 C.3    23  VAL23       0.1727
     63  C        -55.0730    2.9110   29.3520 C.2    23  VAL23       0.2616
     64  O        -55.2820    2.4840   30.4850 O.2    23  VAL23      -0.2715
     65  CB       -52.6660    3.4040   28.9480 C.3    23  VAL23       0.0290
     66  CG1      -52.6350    2.4330   27.7880 C.3    23  VAL23       0.0023
     67  CG2      -51.6240    4.4940   28.7480 C.3    23  VAL23       0.0023
     68  N        -55.6890    2.4440   28.2730 N.am   24  GLU24      -0.1977
     69  CA       -56.6270    1.3330   28.3420 C.3    24  GLU24       0.1602
     70  C        -55.8500    0.0710   28.7060 C.2    24  GLU24       0.2287
     71  O        -54.7760   -0.1800   28.1630 O.2    24  GLU24      -0.2864
     72  CB       -57.3460    1.1350   27.0000 C.3    24  GLU24       0.0415
     73  CG       -57.5210    2.4020   26.1560 C.3    24  GLU24       0.1163
     74  CD       -56.3460    2.6540   25.2120 C.2    24  GLU24       0.3649
     75  OE1      -55.7090    3.7270   25.3140 O.co2  24  GLU24      -0.2457
     76  OE2      -56.0590    1.7790   24.3660 O.co2  24  GLU24      -0.2457
     77  N        -54.6600   -2.1560   25.9270 N.3    27  ARG27      -0.1245
     78  CA       -53.5990   -1.7030   25.0340 C.3    27  ARG27       0.1563
     79  C        -52.3740   -2.5880   25.2070 C.2    27  ARG27       0.2260
     80  O        -51.9600   -2.8780   26.3300 O.2    27  ARG27      -0.2867
     81  CB       -53.2130   -0.2470   25.2970 C.3    27  ARG27       0.0307
     82  CG       -52.0100    0.2050   24.4630 C.3    27  ARG27       0.0489
     83  CD       -51.7790    1.7050   24.5340 C.3    27  ARG27       0.2205
     84  NE       -52.9420    2.4520   24.0580 N.pl3  27  ARG27      -0.0865
     85  CZ       -53.0450    3.0290   22.8640 C.cat  27  ARG27       0.5346
     86  NH1      -52.0520    2.9730   21.9810 N.pl3  27  ARG27       0.1354
     87  NH2      -54.1560    3.6800   22.5530 N.pl3  27  ARG27       0.1354
     88  N        -48.9130   -1.5050   20.7630 N.3    31  GLY31      -0.1210
     89  CA       -49.7490   -0.3310   20.5970 C.3    31  GLY31       0.1956
     90  C        -49.1120    0.8570   21.2890 C.2    31  GLY31       0.2611
     91  O        -49.2000    1.9940   20.8230 O.2    31  GLY31      -0.2717
     92  N        -48.4570    0.5790   22.4080 N.am   32  LEU32      -0.1979
     93  CA       -47.7490    1.6010   23.1560 C.3    32  LEU32       0.1596
     94  C        -46.5100    2.0590   22.3930 C.2    32  LEU32       0.2287
     95  O        -46.2360    3.2570   22.3040 O.2    32  LEU32      -0.2864
     96  CB       -47.3600    1.0600   24.5280 C.3    32  LEU32       0.0297
     97  CG       -46.5290    1.9840   25.4130 C.3    32  LEU32       0.0022
     98  CD1      -47.2300    3.3180   25.6250 C.3    32  LEU32       0.0001
     99  CD2      -46.2580    1.3000   26.7370 C.3    32  LEU32       0.0001
    100  N        -47.4330    4.3800   19.5330 N.3    35  PHE35      -0.1241
    101  CA       -47.7610    5.7240   19.9790 C.3    35  PHE35       0.1605
    102  C        -46.4900    6.5210   20.2330 C.2    35  PHE35       0.2264
    103  O        -46.3750    7.6680   19.8050 O.2    35  PHE35      -0.2867
    104  CB       -48.6090    5.6860   21.2470 C.3    35  PHE35       0.0534
    105  CG       -49.0110    7.0440   21.7360 C.ar   35  PHE35      -0.0203
    106  CD1      -50.1950    7.6230   21.3160 C.ar   35  PHE35      -0.0042
    107  CD2      -48.1940    7.7500   22.6020 C.ar   35  PHE35      -0.0042
    108  CE1      -50.5620    8.8800   21.7600 C.ar   35  PHE35      -0.0003
    109  CE2      -48.5520    9.0050   23.0490 C.ar   35  PHE35      -0.0003
    110  CZ       -49.7380    9.5710   22.6290 C.ar   35  PHE35      -0.0000
    111  N        -44.7040    7.6990   16.9790 N.3    38  LYS38      -0.1231
    112  CA       -45.3450    8.8160   16.2970 C.3    38  LYS38       0.1693
    113  C        -45.2280   10.1010   17.1070 C.2    38  LYS38       0.2592
    114  O        -45.0970   11.1870   16.5410 O.2    38  LYS38      -0.2718
    115  CB       -46.8150    8.4970   16.0180 C.3    38  LYS38       0.0285
    116  CG       -47.0080    7.3350   15.0560 C.3    38  LYS38       0.0035
    117  CD       -48.4710    7.1120   14.7070 C.3    38  LYS38       0.0206
    118  CE       -49.2460    6.5260   15.8730 C.3    38  LYS38       0.1093
    119  NZ       -50.6470    6.1980   15.4880 N.3    38  LYS38      -0.1314
    120  N        -45.2690    9.9770   18.4300 N.am   39  PHE39      -0.1976
    121  CA       -45.1280   11.1380   19.3020 C.3    39  PHE39       0.1639
    122  C        -43.7440   11.7440   19.1190 C.2    39  PHE39       0.2290
    123  O        -43.5980   12.9600   19.0190 O.2    39  PHE39      -0.2864
    124  CB       -45.3370   10.7450   20.7670 C.3    39  PHE39       0.0560
    125  CG       -45.3800   11.9180   21.7110 C.ar   39  PHE39      -0.0200
    126  CD1      -46.5870   12.3750   22.2150 C.ar   39  PHE39      -0.0042
    127  CD2      -44.2140   12.5640   22.0930 C.ar   39  PHE39      -0.0042
    128  CE1      -46.6300   13.4530   23.0840 C.ar   39  PHE39      -0.0003
    129  CE2      -44.2530   13.6450   22.9580 C.ar   39  PHE39      -0.0003
    130  CZ       -45.4610   14.0870   23.4540 C.ar   39  PHE39      -0.0000
@<TRIPOS>BOND
     1   117   116    1
     2   117   118    1
     3   116   115    1
     4   119   118    1
     5   115   112    1
     6   112   111    1
     7   112   113    1
     8   114   113    2
     9   113   120   am
    10   120   121    1
    11   123   122    2
    12   122   121    1
    13   121   124    1
    14   100   101    1
    15   103   102    2
    16   101   102    1
    17   101   104    1
    18    89    88    1
    19    89    90    1
    20   124   125    1
    21    91    90    2
    22   104   105    1
    23    90    92   am
    24   106   105   ar
    25   106   108   ar
    26   125   127   ar
    27   125   126   ar
    28   105   107   ar
    29   108   110   ar
    30    86    85    1
    31   127   129   ar
    32   126   128   ar
    33    95    94    2
    34    94    93    1
    35    92    93    1
    36    87    85    1
    37   107   109   ar
    38   110   109   ar
    39    85    84    2
    40   129   130   ar
    41   128   130   ar
    42    93    96    1
    43    84    83    1
    44    76    74   ar
    45    82    83    1
    46    82    81    1
    47    96    97    1
    48    78    79    1
    49    78    81    1
    50    78    77    1
    51    79    80    2
    52    74    75   ar
    53    74    73    1
    54    55    54   ar
    55    55    53   ar
    56    97    98    1
    57    97    99    1
    58    54    52   ar
    59    53    51   ar
    60    73    72    1
    61    52    49   ar
    62    51    49   ar
    63    51    50   ar
    64    31    30    1
    65    26    27    1
    66    72    69    1
    67    24    23    1
    68    49    47   ar
    69    30    27    1
    70    30    32    1
    71    29    28    2
    72    50    48   ar
    73     9     8    1
    74    66    65    1
    75    27    28    1
    76    71    70    2
    77    68    69    1
    78    68    63   am
    79    47    48   ar
    80    47    46    1
    81    69    70    1
    82    25    23    1
    83    23    22    1
    84     8     7    1
    85    67    65    1
    86    59    58    2
    87    65    62    1
    88    22    19    1
    89    46    43    1
    90    62    63    1
    91    62    61    1
    92    63    64    2
    93     7     6    1
    94    58    61   am
    95    58    57    1
    96    43    44    1
    97    43    42    1
    98    19    20    1
    99    19    18    1
   100    56    44   am
   101    56    57    1
   102    20    21    2
   103     6     5    1
   104    36    35    2
   105    44    45    2
   106    57    60    1
   107    42    35   am
   108    35    34    1
   109    33    34    1
   110     5     2    1
   111    34    37    1
   112     2     1    1
   113     2     3    1
   114    37    38    1
   115     3     4    2
   116    12    11    1
   117    12    13    2
   118    38    39    1
   119    11    10    1
   120    11    14    1
   121    16    15   ar
   122    39    40    1
   123    14    15    1
   124    15    17   ar
   125    40    41    1
