@<TRIPOS>MOLECULE
tmp/4naxA00.pdb
 211 206 0 0 0
SMALL
GASTEIGER

@<TRIPOS>ATOM
      1  N         -3.3960   13.5940  -22.6390 N.3    26  THR26      -0.1204
      2  CA        -4.1320   13.6350  -21.3950 C.3    26  THR26       0.1979
      3  C         -5.3270   14.5510  -21.6550 C.2    26  THR26       0.2460
      4  O         -5.3500   15.2570  -22.6520 O.2    26  THR26      -0.2732
      5  CB        -3.3060   14.3040  -20.3080 C.3    26  THR26       0.1783
      6  OG1       -3.0040   15.6380  -20.7420 O.3    26  THR26      -0.2211
      7  CG2       -2.0090   13.5810  -20.0130 C.3    26  THR26       0.0376
      8  N         -6.3130   14.5970  -20.7530 N.am   27  PRO27      -0.2717
      9  CA        -7.4650   15.4190  -21.0780 C.3    27  PRO27       0.1535
     10  C         -7.1290   16.8880  -21.2710 C.2    27  PRO27       0.2598
     11  O         -7.7990   17.5490  -22.0460 O.2    27  PRO27      -0.2715
     12  CB        -8.4100   15.2090  -19.8750 C.3    27  PRO27       0.0310
     13  CG        -7.5280   14.6180  -18.7950 C.3    27  PRO27       0.0237
     14  CD        -6.5590   13.7630  -19.5710 C.3    27  PRO27       0.0939
     15  N         -6.1420   17.4070  -20.5440 N.am   28  ASN28      -0.1973
     16  CA        -5.7230   18.7850  -20.7600 C.3    28  ASN28       0.1688
     17  C         -4.8270   18.9870  -21.9690 C.2    28  ASN28       0.2292
     18  O         -4.9690   19.9620  -22.6860 O.2    28  ASN28      -0.2864
     19  CB        -5.0940   19.3450  -19.4990 C.3    28  ASN28       0.1181
     20  CG        -6.0990   19.4040  -18.3760 C.2    28  ASN28       0.2629
     21  OD1       -7.2310   19.8640  -18.5740 O.2    28  ASN28      -0.2716
     22  ND2       -5.7200   18.9350  -17.2070 N.am   28  ASN28      -0.0877
     23  N         -6.7580   19.0130  -25.3420 N.3    31  LYS31      -0.1245
     24  CA        -7.5100   20.2230  -25.6770 C.3    31  LYS31       0.1561
     25  C         -6.6960   20.9960  -26.7260 C.2    31  LYS31       0.2260
     26  O         -7.2600   21.5280  -27.6820 O.2    31  LYS31      -0.2867
     27  CB        -7.6800   21.1200  -24.4570 C.3    31  LYS31       0.0271
     28  CG        -8.5320   20.5820  -23.3290 C.3    31  LYS31       0.0035
     29  CD        -8.4390   21.5300  -22.1480 C.3    31  LYS31       0.0206
     30  CE        -9.1080   21.0370  -20.8760 C.3    31  LYS31       0.1093
     31  NZ        -8.8390   22.0010  -19.7470 N.3    31  LYS31      -0.1314
     32  N          6.0180   12.0860  -18.1790 N.3    50  PHE50      -0.1241
     33  CA         5.9320   12.0900  -16.7100 C.3    50  PHE50       0.1605
     34  C          6.7750   10.9630  -16.0900 C.2    50  PHE50       0.2264
     35  O          7.2930   11.0960  -14.9790 O.2    50  PHE50      -0.2867
     36  CB         4.4790   11.9530  -16.2530 C.3    50  PHE50       0.0534
     37  CG         3.5860   13.1150  -16.6290 C.ar   50  PHE50      -0.0203
     38  CD1        4.1010   14.3130  -17.1260 C.ar   50  PHE50      -0.0042
     39  CD2        2.2120   12.9970  -16.4760 C.ar   50  PHE50      -0.0042
     40  CE1        3.2580   15.3550  -17.4600 C.ar   50  PHE50      -0.0003
     41  CE2        1.3660   14.0450  -16.8020 C.ar   50  PHE50      -0.0003
     42  CZ         1.8930   15.2220  -17.2870 C.ar   50  PHE50      -0.0000
     43  N          8.3490   16.9890  -16.7470 N.3    55  GLN55      -0.1231
     44  CA         7.5860   18.1800  -16.3950 C.3    55  GLN55       0.1698
     45  C          8.1560   18.8610  -15.1500 C.2    55  GLN55       0.2592
     46  O          7.8060   19.9840  -14.8330 O.2    55  GLN55      -0.2718
     47  CB         6.0870   17.8660  -16.2080 C.3    55  GLN55       0.0381
     48  CG         5.6750   17.2500  -14.8760 C.3    55  GLN55       0.0905
     49  CD         6.0470   15.7920  -14.6600 C.2    55  GLN55       0.2608
     50  OE1        6.8450   15.1910  -15.3880 O.2    55  GLN55      -0.2717
     51  NE2        5.4580   15.2180  -13.6320 N.am   55  GLN55      -0.0878
     52  N          9.0320   18.1500  -14.4430 N.am   56  LEU56      -0.1980
     53  CA         9.7210   18.7200  -13.2840 C.3    56  LEU56       0.1596
     54  C         11.1310   19.2360  -13.6140 C.2    56  LEU56       0.2287
     55  O         11.8280   19.7500  -12.7240 O.2    56  LEU56      -0.2864
     56  CB         9.8150   17.6970  -12.1550 C.3    56  LEU56       0.0297
     57  CG         8.4750   17.1470  -11.6620 C.3    56  LEU56       0.0022
     58  CD1        8.6390   16.0720  -10.6080 C.3    56  LEU56       0.0001
     59  CD2        7.5870   18.2520  -11.1080 C.3    56  LEU56       0.0001
     60  N          4.1540   26.2700  -13.5380 N.3    66  ASN66      -0.1225
     61  CA         3.4020   25.3820  -12.6490 C.3    66  ASN66       0.1785
     62  C          3.7430   23.9110  -12.8480 C.2    66  ASN66       0.2597
     63  O          3.0910   23.0530  -12.2710 O.2    66  ASN66      -0.2718
     64  CB         1.9220   25.6920  -12.8380 C.3    66  ASN66       0.1169
     65  CG         1.0120   24.9630  -11.8760 C.2    66  ASN66       0.2627
     66  OD1        1.2610   24.8860  -10.6700 O.2    66  ASN66      -0.2716
     67  ND2       -0.0990   24.4710  -12.4040 N.am   66  ASN66      -0.0877
     68  N          4.7740   23.6250  -13.6330 N.am   67  ASN67      -0.1960
     69  CA         5.2440   22.2620  -13.8440 C.3    67  ASN67       0.1819
     70  C          4.2220   21.3210  -14.4680 C.2    67  ASN67       0.2621
     71  O          4.2720   20.1160  -14.2480 O.2    67  ASN67      -0.2715
     72  CB         6.0300   21.6560  -12.6490 C.3    67  ASN67       0.1195
     73  CG         5.2250   21.3180  -11.4060 C.2    67  ASN67       0.2630
     74  OD1        5.3810   21.9770  -10.3660 O.2    67  ASN67      -0.2716
     75  ND2        4.4710   20.2390  -11.4580 N.am   67  ASN67      -0.0877
     76  N          3.3310   21.8760  -15.2910 N.am   68  LYS68      -0.1963
     77  CA         2.2800   21.0770  -15.9080 C.3    68  LYS68       0.1728
     78  C          2.2130   21.2500  -17.3970 C.2    68  LYS68       0.2616
     79  O          2.6120   22.2820  -17.9460 O.2    68  LYS68      -0.2715
     80  CB         0.9370   21.3540  -15.2240 C.3    68  LYS68       0.0311
     81  CG         0.9930   20.8440  -13.7600 C.3    68  LYS68       0.0038
     82  CD        -0.2700   20.7570  -12.9930 C.3    68  LYS68       0.0206
     83  CE         0.0630   20.2690  -11.6040 C.3    68  LYS68       0.1093
     84  NZ        -1.1430   20.0690  -10.7860 N.3    68  LYS68      -0.1314
     85  N          1.7320   20.2140  -18.0600 N.am   69  ILE69      -0.1964
     86  CA         1.3890   20.3000  -19.4680 C.3    69  ILE69       0.1712
     87  C         -0.0970   20.6020  -19.5920 C.2    69  ILE69       0.2458
     88  O         -0.8920   20.2970  -18.6800 O.2    69  ILE69      -0.2730
     89  CB         1.7760   19.0030  -20.2410 C.3    69  ILE69       0.0289
     90  CG1        0.9870   17.7560  -19.7990 C.3    69  ILE69       0.0022
     91  CG2        3.2670   18.7540  -20.1590 C.3    69  ILE69       0.0023
     92  CD1       -0.3540   17.5630  -20.4890 C.3    69  ILE69       0.0001
     93  N         -0.5320   21.1450  -20.7380 N.am   70  PRO70      -0.2727
     94  CA         0.2660   21.5630  -21.8930 C.3    70  PRO70       0.1402
     95  C          0.9030   22.9480  -21.7150 C.2    70  PRO70       0.2269
     96  O          0.4480   23.7720  -20.9090 O.2    70  PRO70      -0.2865
     97  CB        -0.7550   21.6000  -23.0120 C.3    70  PRO70       0.0296
     98  CG        -2.0150   22.0410  -22.3230 C.3    70  PRO70       0.0237
     99  CD        -1.9700   21.3380  -20.9700 C.3    70  PRO70       0.0939
    100  N         -1.2610   26.7890  -19.2750 N.3    87  GLU87      -0.1231
    101  CA        -2.6890   26.6700  -18.9530 C.3    87  GLU87       0.1699
    102  C         -3.4860   26.3880  -20.2170 C.2    87  GLU87       0.2592
    103  O         -3.6320   27.2540  -21.0910 O.2    87  GLU87      -0.2718
    104  CB        -3.2820   27.8680  -18.2150 C.3    87  GLU87       0.0402
    105  CG        -2.7520   28.0320  -16.8080 C.3    87  GLU87       0.1161
    106  CD        -3.1870   26.9220  -15.8700 C.2    87  GLU87       0.3649
    107  OE1       -4.3310   26.4190  -16.0170 O.co2  87  GLU87      -0.2457
    108  OE2       -2.3690   26.5710  -14.9780 O.co2  87  GLU87      -0.2457
    109  N         -4.0190   25.1720  -20.3100 N.am   88  SER88      -0.1952
    110  CA        -4.7850   24.7740  -21.4780 C.3    88  SER88       0.1924
    111  C         -5.8410   25.7880  -21.8810 C.2    88  SER88       0.2314
    112  O         -5.9740   26.1200  -23.0600 O.2    88  SER88      -0.2863
    113  CB        -5.4010   23.4000  -21.2580 C.3    88  SER88       0.2116
    114  OG        -6.4030   23.4170  -20.2680 O.3    88  SER88      -0.2180
    115  N        -15.4890   24.9110  -17.2270 N.3   120  GLN120     -0.1231
    116  CA       -14.6630   23.7400  -17.4320 C.3   120  GLN120      0.1698
    117  C        -13.4150   23.7880  -16.5620 C.2   120  GLN120      0.2592
    118  O        -13.0590   22.8190  -15.8720 O.2   120  GLN120     -0.2718
    119  CB       -14.2950   23.5900  -18.9140 C.3   120  GLN120      0.0381
    120  CG       -13.5810   22.2870  -19.2380 C.3   120  GLN120      0.0905
    121  CD       -12.1180   22.2860  -18.8260 C.2   120  GLN120      0.2608
    122  OE1      -11.3740   23.1890  -19.1850 O.2   120  GLN120     -0.2717
    123  NE2      -11.6850   21.2580  -18.1150 N.am  120  GLN120     -0.0878
    124  N        -12.7230   24.9230  -16.6130 N.am  121  MET121     -0.1979
    125  CA       -11.4150   25.0470  -15.9670 C.3   121  MET121      0.1605
    126  C        -11.4970   24.9850  -14.4540 C.2   121  MET121      0.2287
    127  O        -10.5790   24.4840  -13.8080 O.2   121  MET121     -0.2864
    128  CB       -10.7160   26.3240  -16.4280 C.3   121  MET121      0.0413
    129  CG       -10.2040   26.2470  -17.8830 C.3   121  MET121      0.0598
    130  SD        -8.8070   25.1570  -18.1550 S.3   121  MET121     -0.1393
    131  CE        -7.5300   26.0700  -17.3320 C.3   121  MET121      0.0692
    132  N        -12.6440   20.0470  -15.0250 N.3   125  GLY125     -0.1210
    133  CA       -11.2930   19.4700  -14.9070 C.3   125  GLY125      0.1940
    134  C        -10.9320   19.1050  -13.4700 C.2   125  GLY125      0.2453
    135  O        -10.5520   17.9820  -13.1850 O.2   125  GLY125     -0.2732
    136  N        -11.0380   20.0820  -12.5540 N.am  126  PRO126     -0.2728
    137  CA       -10.5840   19.8000  -11.1890 C.3   126  PRO126      0.1401
    138  C        -11.3980   18.6920  -10.5340 C.2   126  PRO126      0.2269
    139  O        -10.8330   17.8350   -9.8640 O.2   126  PRO126     -0.2865
    140  CB       -10.7660   21.1620  -10.4880 C.3   126  PRO126      0.0296
    141  CG       -10.5050   22.1640  -11.5790 C.3   126  PRO126      0.0237
    142  CD       -11.1860   21.5390  -12.7910 C.3   126  PRO126      0.0939
    143  N        -11.0240   15.2070  -12.2380 N.3   129  GLY129     -0.1210
    144  CA        -9.7080   14.7220  -11.8790 C.3   129  GLY129      0.1956
    145  C         -9.6740   14.0910  -10.4950 C.2   129  GLY129      0.2611
    146  O         -8.9420   13.1270  -10.2750 O.2   129  GLY129     -0.2717
    147  N        -10.4620   14.6110   -9.5510 N.am  130  GLN130     -0.1979
    148  CA       -10.5160   14.0090   -8.2240 C.3   130  GLN130      0.1601
    149  C        -11.2390   12.6660   -8.2400 C.2   130  GLN130      0.2287
    150  O        -10.8860   11.7770   -7.4690 O.2   130  GLN130     -0.2864
    151  CB       -11.1410   14.9350   -7.1810 C.3   130  GLN130      0.0394
    152  CG       -10.5220   16.3260   -7.0620 C.3   130  GLN130      0.0908
    153  CD        -9.0310   16.3190   -7.2320 C.2   130  GLN130      0.2608
    154  OE1       -8.3050   15.7030   -6.4500 O.2   130  GLN130     -0.2717
    155  NE2       -8.5580   17.0000   -8.2540 N.am  130  GLN130     -0.0878
    156  N         -8.6140   10.3210   -9.0890 N.3   133  PHE133     -0.1241
    157  CA        -7.7730    9.9740   -7.9470 C.3   133  PHE133      0.1605
    158  C         -8.4330    8.9320   -7.0420 C.2   133  PHE133      0.2264
    159  O         -7.7830    7.9660   -6.6250 O.2   133  PHE133     -0.2867
    160  CB        -7.3900   11.1890   -7.1060 C.3   133  PHE133      0.0534
    161  CG        -6.4490   10.8360   -5.9970 C.ar  133  PHE133     -0.0203
    162  CD1       -5.1440   10.4600   -6.2930 C.ar  133  PHE133     -0.0042
    163  CD2       -6.8820   10.7720   -4.6810 C.ar  133  PHE133     -0.0042
    164  CE1       -4.2850   10.0500   -5.2860 C.ar  133  PHE133     -0.0003
    165  CE2       -6.0260   10.3730   -3.6760 C.ar  133  PHE133     -0.0003
    166  CZ        -4.7300   10.0150   -3.9780 C.ar  133  PHE133     -0.0000
    167  N         -6.7740    5.9920   -9.4360 N.3   137  PHE137     -0.1241
    168  CA        -5.4090    6.0720   -8.9290 C.3   137  PHE137      0.1605
    169  C         -5.3740    5.6770   -7.4350 C.2   137  PHE137      0.2264
    170  O         -6.2240    4.9170   -6.9870 O.2   137  PHE137     -0.2867
    171  CB        -4.7880    7.4460   -9.2380 C.3   137  PHE137      0.0534
    172  CG        -4.7080    7.7540  -10.7200 C.ar  137  PHE137     -0.0203
    173  CD1       -3.8180    7.0560  -11.5490 C.ar  137  PHE137     -0.0042
    174  CD2       -5.5100    8.7280  -11.3000 C.ar  137  PHE137     -0.0042
    175  CE1       -3.7410    7.3310  -12.9090 C.ar  137  PHE137     -0.0003
    176  CE2       -5.4340    9.0030  -12.6570 C.ar  137  PHE137     -0.0003
    177  CZ        -4.5560    8.3060  -13.4630 C.ar  137  PHE137     -0.0000
    178  N        -12.5500   15.8450  -21.2570 N.3   186  TRP186     -0.1241
    179  CA       -12.6950   15.4870  -19.8460 C.3   186  TRP186      0.1605
    180  C        -13.8640   14.5340  -19.5990 C.2   186  TRP186      0.2264
    181  O        -13.7600   13.6330  -18.7700 O.2   186  TRP186     -0.2867
    182  CB       -12.8030   16.7390  -18.9760 C.3   186  TRP186      0.0550
    183  CG       -11.4770   17.1350  -18.4110 C.ar  186  TRP186      0.0003
    184  CD1      -10.6970   18.2050  -18.7420 C.ar  186  TRP186      0.0946
    185  CD2      -10.7780   16.4200  -17.3970 C.ar  186  TRP186      0.0152
    186  NE1       -9.5540   18.2090  -17.9570 N.ar  186  TRP186     -0.2442
    187  CE2       -9.5950   17.1220  -17.1190 C.ar  186  TRP186      0.0810
    188  CE3      -11.0490   15.2420  -16.6900 C.ar  186  TRP186      0.0012
    189  CZ2       -8.6960   16.7040  -16.1590 C.ar  186  TRP186      0.0191
    190  CZ3      -10.1450   14.8140  -15.7560 C.ar  186  TRP186      0.0001
    191  CH2       -8.9780   15.5500  -15.4830 C.ar  186  TRP186      0.0015
    192  N        -12.5650   11.2630  -20.6290 N.3   189  ASN189     -0.1240
    193  CA       -11.6300   10.7050  -19.6680 C.3   189  ASN189      0.1653
    194  C        -12.3330   10.0950  -18.4580 C.2   189  ASN189      0.2266
    195  O        -11.9170    9.0480  -17.9520 O.2   189  ASN189     -0.2867
    196  CB       -10.6330   11.7650  -19.2040 C.3   189  ASN189      0.1155
    197  CG        -9.3030   11.1690  -18.8200 C.2   189  ASN189      0.2627
    198  OD1       -8.7110   10.4370  -19.6010 O.2   189  ASN189     -0.2716
    199  ND2       -8.8210   11.4950  -17.6390 N.am  189  ASN189     -0.0877
    200  N        -10.9350    6.6270  -16.5940 N.3   194  TYR194     -0.1241
    201  CA       -11.1440    6.4800  -15.1600 C.3   194  TYR194      0.1605
    202  C        -12.1170    5.3880  -14.8010 C.2   194  TYR194      0.2264
    203  O        -12.3070    5.1110  -13.6100 O.2   194  TYR194     -0.2867
    204  CB       -11.6490    7.7650  -14.5260 C.3   194  TYR194      0.0534
    205  CG       -10.7090    8.9200  -14.5420 C.ar  194  TYR194     -0.0201
    206  CD1       -9.3360    8.7710  -14.7610 C.ar  194  TYR194     -0.0009
    207  CD2      -11.1970   10.1880  -14.2370 C.ar  194  TYR194     -0.0009
    208  CE1       -8.4930    9.8630  -14.7160 C.ar  194  TYR194      0.0417
    209  CE2      -10.3600   11.2750  -14.2050 C.ar  194  TYR194      0.0417
    210  CZ        -9.0190   11.1230  -14.4330 C.ar  194  TYR194      0.1957
    211  OH        -8.2170   12.2340  -14.4060 O.3   194  TYR194     -0.2866
@<TRIPOS>BOND
     1    26    25    2
     2    25    24    1
     3    24    23    1
     4    24    27    1
     5    27    28    1
     6    28    29    1
     7   112   111    2
     8    97    98    1
     9    97    94    1
    10    18    17    2
    11     4     3    2
    12     1     2    1
    13    98    99    1
    14    29    30    1
    15    11    10    2
    16    17    16    1
    17    94    95    1
    18    94    93    1
    19   111   110    1
    20    95    96    2
    21     3     2    1
    22     3     8   am
    23   110   113    1
    24   110   109    1
    25     2     5    1
    26    10     9    1
    27    10    15   am
    28   113   114    1
    29   178   179    1
    30   103   102    2
    31     9     8    1
    32     9    12    1
    33    99    93    1
    34    30    31    1
    35    16    15    1
    36    16    19    1
    37     8    14    1
    38     6     5    1
    39    93    87   am
    40   192   193    1
    41    92    90    1
    42   109   102   am
    43     5     7    1
    44    89    91    1
    45    89    90    1
    46    89    86    1
    47   102   101    1
    48    12    13    1
    49   179   180    1
    50   179   182    1
    51   193   196    1
    52   193   194    1
    53   198   197    2
    54   180   181    2
    55    87    86    1
    56    87    88    2
    57    14    13    1
    58    19    20    1
    59    86    85    1
    60   100   101    1
    61   120   119    1
    62   120   121    1
    63   196   197    1
    64   122   121    2
    65   182   183    1
    66   101   104    1
    67   119   116    1
    68   121   123   am
    69   197   199   am
    70   184   183   ar
    71   184   186   ar
    72    21    20    2
    73   194   195    2
    74   183   185   ar
    75    20    22   am
    76   104   105    1
    77    32    33    1
    78   130   129    1
    79   130   131    1
    80    85    78   am
    81   186   187   ar
    82    79    78    2
    83   129   128    1
    84    40    42   ar
    85    40    38   ar
    86   116   115    1
    87   116   117    1
    88   185   187   ar
    89   185   188   ar
    90    78    77    1
    91    42    41   ar
    92    38    37   ar
    93   187   189   ar
    94   105   106    1
    95    41    39   ar
    96    43    44    1
    97    33    36    1
    98    33    34    1
    99   188   190   ar
   100    37    39   ar
   101    37    36    1
   102   124   117   am
   103   124   125    1
   104   200   201    1
   105   117   118    2
   106   128   125    1
   107    44    47    1
   108    44    45    1
   109    47    48    1
   110   189   191   ar
   111    34    35    2
   112   107   106   ar
   113   125   126    1
   114    77    76    1
   115    77    80    1
   116   106   108   ar
   117   190   191   ar
   118    50    49    2
   119    76    70   am
   120    80    81    1
   121   201   202    1
   122   201   204    1
   123    45    46    2
   124    45    52   am
   125   132   133    1
   126   133   134    1
   127    48    49    1
   128   202   203    2
   129   206   208   ar
   130   206   205   ar
   131   208   210   ar
   132    49    51   am
   133   205   204    1
   134   205   207   ar
   135    70    71    2
   136    70    69    1
   137   126   127    2
   138    52    53    1
   139   210   211    1
   140   210   209   ar
   141   207   209   ar
   142    69    68    1
   143    69    72    1
   144    81    82    1
   145    68    62   am
   146    54    53    1
   147    54    55    2
   148    60    61    1
   149   134   135    2
   150   134   136   am
   151   177   175   ar
   152   177   176   ar
   153    53    56    1
   154    82    83    1
   155   175   173   ar
   156    62    61    1
   157    62    63    2
   158    64    61    1
   159    64    65    1
   160   142   136    1
   161   142   141    1
   162   176   174   ar
   163    72    73    1
   164   136   137    1
   165    67    65   am
   166   143   144    1
   167    56    57    1
   168   144   145    1
   169    65    66    2
   170    57    59    1
   171    57    58    1
   172    83    84    1
   173   141   140    1
   174   173   172   ar
   175    75    73   am
   176    73    74    2
   177   174   172   ar
   178   137   138    1
   179   137   140    1
   180   172   171    1
   181   138   139    2
   182   145   146    2
   183   145   147   am
   184   147   148    1
   185   167   168    1
   186   171   168    1
   187   156   157    1
   188   168   169    1
   189   155   153   am
   190   149   148    1
   191   149   150    2
   192   148   151    1
   193   157   160    1
   194   157   158    1
   195   169   170    2
   196   153   152    1
   197   153   154    2
   198   151   152    1
   199   160   161    1
   200   158   159    2
   201   162   161   ar
   202   162   164   ar
   203   161   163   ar
   204   164   166   ar
   205   163   165   ar
   206   166   165   ar
