@<TRIPOS>MOLECULE
tmp/4nb4D00.pdb
 126 120 0 0 0
SMALL
GASTEIGER

@<TRIPOS>ATOM
      1  N          4.5370   22.7870   28.6700 N.3   156  VAL156     -0.1245
      2  CA         3.2850   22.1450   28.2790 C.3   156  VAL156      0.1561
      3  C          3.4910   21.1500   27.1240 C.2   156  VAL156      0.2260
      4  O          2.9220   20.0550   27.1450 O.2   156  VAL156     -0.2867
      5  CB         2.2200   23.2020   27.9100 C.3   156  VAL156      0.0252
      6  CG1        1.0060   22.5660   27.2460 C.3   156  VAL156      0.0019
      7  CG2        1.7910   23.9620   29.1540 C.3   156  VAL156      0.0019
      8  N          4.7360   17.6150   28.0120 N.3   159  ILE159     -0.1231
      9  CA         3.7100   16.7150   28.5250 C.3   159  ILE159      0.1692
     10  C          2.8220   16.2360   27.3800 C.2   159  ILE159      0.2592
     11  O          2.4610   15.0640   27.3270 O.2   159  ILE159     -0.2718
     12  CB         2.8460   17.3930   29.6200 C.3   159  ILE159      0.0266
     13  CG1        3.7070   17.7600   30.8310 C.3   159  ILE159      0.0019
     14  CG2        1.7120   16.4750   30.0680 C.3   159  ILE159      0.0020
     15  CD1        3.0070   18.6390   31.8500 C.3   159  ILE159      0.0001
     16  N          2.4630   17.1490   26.4780 N.am  160  TYR160     -0.1976
     17  CA         1.5960   16.8200   25.3380 C.3   160  TYR160      0.1639
     18  C          2.3630   16.2640   24.1290 C.2   160  TYR160      0.2290
     19  O          1.7530   15.7220   23.2050 O.2   160  TYR160     -0.2864
     20  CB         0.7220   18.0230   24.9520 C.3   160  TYR160      0.0560
     21  CG        -0.5660   18.0470   25.7330 C.ar  160  TYR160     -0.0198
     22  CD1       -0.6020   18.5290   27.0420 C.ar  160  TYR160     -0.0009
     23  CD2       -1.7390   17.5390   25.1830 C.ar  160  TYR160     -0.0009
     24  CE1       -1.7780   18.5230   27.7730 C.ar  160  TYR160      0.0417
     25  CE2       -2.9240   17.5250   25.9020 C.ar  160  TYR160      0.0417
     26  CZ        -2.9420   18.0150   27.1960 C.ar  160  TYR160      0.1957
     27  OH        -4.1240   17.9990   27.9000 O.3   160  TYR160     -0.2866
     28  N         -4.0050   21.9150   24.6700 N.3   166  PRO166     -0.2102
     29  CA        -5.1350   22.8270   24.8430 C.3   166  PRO166      0.1504
     30  C         -4.7100   24.2190   25.3200 C.2   166  PRO166      0.2575
     31  O         -5.5110   25.1490   25.2900 O.2   166  PRO166     -0.2718
     32  CB        -5.9720   22.1260   25.9100 C.3   166  PRO166      0.0282
     33  CG        -4.9610   21.4320   26.7590 C.3   166  PRO166      0.0208
     34  CD        -3.8810   20.9840   25.8090 C.3   166  PRO166      0.0893
     35  N         -3.4630   24.3360   25.7690 N.am  167  ILE167     -0.1980
     36  CA        -2.8430   25.6080   26.1490 C.3   167  ILE167      0.1595
     37  C         -1.5890   25.7420   25.2880 C.2   167  ILE167      0.2287
     38  O         -1.0000   24.7250   24.9350 O.2   167  ILE167     -0.2864
     39  CB        -2.3960   25.5920   27.6290 C.3   167  ILE167      0.0276
     40  CG1       -3.5100   25.0920   28.5510 C.3   167  ILE167      0.0022
     41  CG2       -1.9600   26.9780   28.0730 C.3   167  ILE167      0.0022
     42  CD1       -2.9980   24.6640   29.9150 C.3   167  ILE167      0.0001
     43  N          4.4150   26.3140   24.5730 N.3   170  ASP170     -0.1225
     44  CA         5.6170   26.9690   25.0650 C.3   170  ASP170      0.1805
     45  C          5.5110   27.3950   26.5400 C.2   170  ASP170      0.2598
     46  O          6.5290   27.6680   27.1720 O.2   170  ASP170     -0.2718
     47  CB         5.9380   28.1820   24.1870 C.3   170  ASP170      0.1424
     48  CG         7.3460   28.6970   24.3890 C.2   170  ASP170      0.3668
     49  OD1        8.2380   27.8910   24.7340 O.co2 170  ASP170     -0.2456
     50  OD2        7.5590   29.9130   24.1970 O.co2 170  ASP170     -0.2456
     51  N          4.2980   27.4620   27.0840 N.am  171  LEU171     -0.1966
     52  CA         4.1160   27.8670   28.4850 C.3   171  LEU171      0.1728
     53  C          4.7080   26.8510   29.4610 C.2   171  LEU171      0.2617
     54  O          4.7460   25.6470   29.1930 O.2   171  LEU171     -0.2715
     55  CB         2.6360   28.0640   28.8270 C.3   171  LEU171      0.0311
     56  CG         1.8670   29.1980   28.1540 C.3   171  LEU171      0.0022
     57  CD1        0.4640   29.2470   28.7290 C.3   171  LEU171      0.0001
     58  CD2        2.5390   30.5510   28.3310 C.3   171  LEU171      0.0001
     59  N          5.1680   27.3570   30.5960 N.am  172  THR172     -0.1937
     60  CA         5.7130   26.5130   31.6480 C.3   172  THR172      0.2028
     61  C          4.5780   25.7030   32.2490 C.2   172  THR172      0.2642
     62  O          3.5890   26.2680   32.7160 O.2   172  THR172     -0.2714
     63  CB         6.3890   27.3490   32.7510 C.3   172  THR172      0.1808
     64  OG1        7.3230   28.2600   32.1570 O.3   172  THR172     -0.2208
     65  CG2        7.1180   26.4520   33.7420 C.3   172  THR172      0.0379
     66  N          4.7220   24.3820   32.2070 N.am  173  ALA173     -0.1963
     67  CA         3.7580   23.4800   32.8090 C.3   173  ALA173      0.1728
     68  C          4.0830   23.2990   34.2870 C.2   173  ALA173      0.2616
     69  O          3.1860   23.3090   35.1290 O.2   173  ALA173     -0.2715
     70  CB         3.7680   22.1370   32.0930 C.3   173  ALA173      0.0334
     71  N          5.3670   23.1470   34.5990 N.am  174  ALA174     -0.1963
     72  CA         5.7890   22.8440   35.9620 C.3   174  ALA174      0.1728
     73  C          7.2010   23.3470   36.2420 C.2   174  ALA174      0.2616
     74  O          8.1770   22.7490   35.7880 O.2   174  ALA174     -0.2715
     75  CB         5.7080   21.3420   36.2040 C.3   174  ALA174      0.0334
     76  N          7.3130   24.4360   36.9990 N.am  175  ASN175     -0.1972
     77  CA         8.6210   24.9360   37.3960 C.3   175  ASN175      0.1688
     78  C          9.3670   23.8270   38.1280 C.2   175  ASN175      0.2292
     79  O          8.7770   23.1140   38.9380 O.2   175  ASN175     -0.2864
     80  CB         8.5040   26.1720   38.2900 C.3   175  ASN175      0.1181
     81  CG         7.7640   27.3080   37.6180 C.2   175  ASN175      0.2629
     82  OD1        6.5310   27.3470   37.6270 O.2   175  ASN175     -0.2716
     83  ND2        8.5070   28.2410   37.0390 N.am  175  ASN175     -0.0877
     84  N          6.9880   34.2030   37.3500 N.3   202  GLU202     -0.1245
     85  CA         5.7730   33.6200   36.7860 C.3   202  GLU202      0.1567
     86  C          4.5670   33.7310   37.7180 C.2   202  GLU202      0.2260
     87  O          3.4630   34.0190   37.2610 O.2   202  GLU202     -0.2867
     88  CB         6.0240   32.1690   36.3820 C.3   202  GLU202      0.0388
     89  CG         6.9230   32.0600   35.1600 C.3   202  GLU202      0.1160
     90  CD         7.0760   30.6430   34.6430 C.2   202  GLU202      0.3649
     91  OE1        6.7430   29.6880   35.3690 O.co2 202  GLU202     -0.2457
     92  OE2        7.5620   30.4860   33.5050 O.co2 202  GLU202     -0.2457
     93  N          1.2490   35.9990   37.0950 N.3   206  THR206     -0.1218
     94  CA        -0.0170   35.2630   37.0220 C.3   206  THR206      0.1862
     95  C         -1.0660   35.8900   37.9300 C.2   206  THR206      0.2287
     96  O         -2.2010   36.1240   37.5070 O.2   206  THR206     -0.2866
     97  CB         0.1560   33.7840   37.3830 C.3   206  THR206      0.1770
     98  OG1        1.0810   33.1810   36.4730 O.3   206  THR206     -0.2211
     99  CG2       -1.1750   33.0390   37.3010 C.3   206  THR206      0.0375
    100  N         10.7720   38.2900   32.5620 N.3   236  VAL236     -0.1245
    101  CA         9.7910   37.2280   32.7770 C.3   236  VAL236      0.1561
    102  C          8.3980   37.8310   32.9480 C.2   236  VAL236      0.2260
    103  O          7.4440   37.3850   32.2980 O.2   236  VAL236     -0.2867
    104  CB        10.1640   36.3250   33.9790 C.3   236  VAL236      0.0252
    105  CG1        8.9990   35.4320   34.3930 C.3   236  VAL236      0.0019
    106  CG2       11.3740   35.4670   33.6390 C.3   236  VAL236      0.0019
    107  N          5.1590   37.8630   29.8080 N.3   240  TYR240     -0.1241
    108  CA         3.9080   37.1650   30.0660 C.3   240  TYR240      0.1605
    109  C          2.7480   38.1370   30.2590 C.2   240  TYR240      0.2264
    110  O          1.6060   37.7960   29.9640 O.2   240  TYR240     -0.2867
    111  CB         4.0310   36.2440   31.2770 C.3   240  TYR240      0.0534
    112  CG         2.8830   35.2670   31.3990 C.ar  240  TYR240     -0.0201
    113  CD1        2.5970   34.3740   30.3690 C.ar  240  TYR240     -0.0009
    114  CD2        2.0870   35.2310   32.5370 C.ar  240  TYR240     -0.0009
    115  CE1        1.5530   33.4740   30.4710 C.ar  240  TYR240      0.0417
    116  CE2        1.0430   34.3290   32.6490 C.ar  240  TYR240      0.0417
    117  CZ         0.7800   33.4540   31.6120 C.ar  240  TYR240      0.1957
    118  OH        -0.2490   32.5520   31.7060 O.3   240  TYR240     -0.2866
    119  N          1.8820   38.9010   26.8220 N.3   243  LEU243     -0.1245
    120  CA         1.3500   37.6840   26.2010 C.3   243  LEU243      0.1561
    121  C         -0.1220   37.4430   26.5420 C.2   243  LEU243      0.2260
    122  O         -0.8620   36.8680   25.7420 O.2   243  LEU243     -0.2867
    123  CB         2.1980   36.4700   26.6040 C.3   243  LEU243      0.0270
    124  CG         1.8430   35.1170   25.9740 C.3   243  LEU243      0.0019
    125  CD1        3.1030   34.3450   25.6190 C.3   243  LEU243      0.0001
    126  CD2        0.9560   34.2830   26.8870 C.3   243  LEU243      0.0001
@<TRIPOS>BOND
     1    19    18    2
     2    18    17    1
     3    47    48    1
     4    47    44    1
     5    50    48   ar
     6    48    49   ar
     7    43    44    1
     8    28    29    1
     9    28    34    1
    10    29    30    1
    11    29    32    1
    12    38    37    2
    13    20    17    1
    14    20    21    1
    15    44    45    1
    16    23    21   ar
    17    23    25   ar
    18    37    36    1
    19    31    30    2
    20    30    35   am
    21    17    16    1
    22   125   124    1
    23    21    22   ar
    24   122   121    2
    25    35    36    1
    26    34    33    1
    27    25    26   ar
    28    32    33    1
    29   124   123    1
    30   124   126    1
    31    36    39    1
    32   120   121    1
    33   120   123    1
    34   120   119    1
    35    16    10   am
    36    45    51   am
    37    45    46    2
    38    22    24   ar
    39    51    52    1
    40     3     4    2
    41     3     2    1
    42    26    24   ar
    43    26    27    1
    44     6     5    1
    45    11    10    2
    46    10     9    1
    47    39    41    1
    48    39    40    1
    49     5     2    1
    50     5     7    1
    51     8     9    1
    52    56    58    1
    53    56    57    1
    54    56    55    1
    55     2     1    1
    56    52    55    1
    57    52    53    1
    58     9    12    1
    59    40    42    1
    60    54    53    2
    61    53    59   am
    62    12    14    1
    63    12    13    1
    64   107   108    1
    65   110   109    2
    66   108   109    1
    67   108   111    1
    68   113   115   ar
    69   113   112   ar
    70   115   117   ar
    71    59    60    1
    72    13    15    1
    73   111   112    1
    74   112   114   ar
    75   117   118    1
    76   117   116   ar
    77    60    61    1
    78    60    63    1
    79    70    67    1
    80    64    63    1
    81    66    61   am
    82    66    67    1
    83    61    62    2
    84   103   102    2
    85   114   116   ar
    86   100   101    1
    87    63    65    1
    88   101   102    1
    89   101   104    1
    90    67    68    1
    91    92    90   ar
    92   106   104    1
    93   104   105    1
    94    68    71   am
    95    68    69    2
    96    71    72    1
    97    90    89    1
    98    90    91   ar
    99    89    88    1
   100    74    73    2
   101    72    75    1
   102    72    73    1
   103    73    76   am
   104    88    85    1
   105    98    97    1
   106    85    84    1
   107    85    86    1
   108    76    77    1
   109    94    93    1
   110    94    97    1
   111    94    95    1
   112    83    81   am
   113    87    86    2
   114    99    97    1
   115    77    78    1
   116    77    80    1
   117    96    95    2
   118    81    82    2
   119    81    80    1
   120    78    79    2
