@<TRIPOS>MOLECULE
tmp/4nb4D01.pdb
 112 104 0 0 0
SMALL
GASTEIGER

@<TRIPOS>ATOM
      1  N         11.1950   54.6600   53.7030 N.3     6  ASP6       -0.1239
      2  CA        10.4510   53.4110   53.6050 C.3     6  ASP6        0.1674
      3  C         11.3140   52.2980   54.2090 C.2     6  ASP6        0.2266
      4  O         12.1500   51.6980   53.5210 O.2     6  ASP6       -0.2867
      5  CB        10.1190   53.1240   52.1340 C.3     6  ASP6        0.1410
      6  CG         9.2250   51.9050   51.9440 C.2     6  ASP6        0.3668
      7  OD1        9.0350   51.1120   52.8900 O.co2   6  ASP6       -0.2456
      8  OD2        8.7040   51.7370   50.8230 O.co2   6  ASP6       -0.2456
      9  N         11.4250   48.9900   54.9440 N.3     8  GLY8       -0.1210
     10  CA        10.9250   47.6400   54.7020 C.3     8  GLY8        0.1956
     11  C         11.7860   46.5380   55.3010 C.2     8  GLY8        0.2612
     12  O         12.7050   46.7980   56.0820 O.2     8  GLY8       -0.2717
     13  N         11.4870   45.2970   54.9180 N.am    9  GLY9       -0.1956
     14  CA        12.0890   44.1170   55.5470 C.3     9  GLY9        0.1869
     15  C         13.5340   43.8320   55.1730 C.2     9  GLY9        0.2309
     16  O         14.2600   43.1900   55.9360 O.2     9  GLY9       -0.2863
     17  N         14.7150   52.5510   52.0970 N.3    13  LYS13      -0.1245
     18  CA        14.8160   53.5010   51.0080 C.3    13  LYS13       0.1561
     19  C         14.5710   54.8920   51.5600 C.2    13  LYS13       0.2260
     20  O         13.5700   55.1320   52.2360 O.2    13  LYS13      -0.2867
     21  CB        13.8160   53.1730   49.9040 C.3    13  LYS13       0.0271
     22  CG        14.1550   51.9130   49.1140 C.3    13  LYS13       0.0035
     23  CD        13.8030   50.6270   49.8490 C.3    13  LYS13       0.0206
     24  CE        12.3150   50.5240   50.1430 C.3    13  LYS13       0.1093
     25  NZ        11.9160   49.1370   50.4940 N.3    13  LYS13      -0.1314
     26  N          7.7150   48.3300   57.5970 N.3    52  GLY52      -0.1225
     27  CA         7.7150   47.4900   58.7940 C.3    52  GLY52       0.1811
     28  C          8.5740   47.9690   59.9500 C.2    52  GLY52       0.2280
     29  O          8.1920   47.8270   61.1030 O.2    52  GLY52      -0.2866
     30  N          2.2280   51.6300   54.4750 N.3    70  GLU70      -0.1231
     31  CA         3.0110   51.5270   53.2300 C.3    70  GLU70       0.1699
     32  C          2.1860   51.3700   51.9510 C.2    70  GLU70       0.2592
     33  O          2.6760   51.6730   50.8630 O.2    70  GLU70      -0.2718
     34  CB         4.0380   50.3870   53.3200 C.3    70  GLU70       0.0402
     35  CG         3.4470   48.9890   53.4810 C.3    70  GLU70       0.1161
     36  CD         4.5040   47.8960   53.4610 C.2    70  GLU70       0.3649
     37  OE1        4.9450   47.5090   52.3570 O.co2  70  GLU70      -0.2457
     38  OE2        4.8790   47.4090   54.5480 O.co2  70  GLU70      -0.2457
     39  N          0.9490   50.8940   52.0800 N.am   71  PHE71      -0.1976
     40  CA         0.1130   50.6060   50.9170 C.3    71  PHE71       0.1639
     41  C         -0.3840   51.8950   50.2600 C.2    71  PHE71       0.2290
     42  O         -0.2880   52.0460   49.0340 O.2    71  PHE71      -0.2864
     43  CB        -1.0580   49.6930   51.3050 C.3    71  PHE71       0.0560
     44  CG        -0.6360   48.3920   51.9450 C.ar   71  PHE71      -0.0200
     45  CD1        0.4750   47.6900   51.4810 C.ar   71  PHE71      -0.0042
     46  CD2       -1.3610   47.8590   53.0010 C.ar   71  PHE71      -0.0042
     47  CE1        0.8540   46.4960   52.0640 C.ar   71  PHE71      -0.0003
     48  CE2       -0.9850   46.6640   53.5890 C.ar   71  PHE71      -0.0003
     49  CZ         0.1240   45.9810   53.1200 C.ar   71  PHE71      -0.0000
     50  N          3.7250   45.2590   44.1780 N.3    96  ASN96      -0.1240
     51  CA         4.9060   45.6380   44.9280 C.3    96  ASN96       0.1653
     52  C          5.7140   44.4020   45.2700 C.2    96  ASN96       0.2266
     53  O          5.4260   43.7050   46.2430 O.2    96  ASN96      -0.2867
     54  CB         4.5500   46.4260   46.1870 C.3    96  ASN96       0.1155
     55  CG         5.7400   47.1850   46.7440 C.2    96  ASN96       0.2627
     56  OD1        6.8910   46.8350   46.4740 O.2    96  ASN96      -0.2716
     57  ND2        5.4710   48.2330   47.5210 N.am   96  ASN96      -0.0877
     58  N          8.6360   43.2730   46.7850 N.3    98  GLY98      -0.1210
     59  CA         9.7000   43.5610   47.7420 C.3    98  GLY98       0.1956
     60  C         10.1950   42.2850   48.3860 C.2    98  GLY98       0.2613
     61  O         10.3990   41.2870   47.7020 O.2    98  GLY98      -0.2717
     62  N         10.3870   42.3070   49.7030 N.am   99  THR99      -0.1938
     63  CA        10.7150   41.0910   50.4360 C.3    99  THR99       0.2028
     64  C          9.6320   40.0520   50.1610 C.2    99  THR99       0.2643
     65  O          9.9250   38.8740   49.9460 O.2    99  THR99      -0.2714
     66  CB        10.8270   41.3520   51.9500 C.3    99  THR99       0.1808
     67  OG1       11.8110   42.3680   52.1840 O.3    99  THR99      -0.2208
     68  CG2       11.2400   40.0830   52.6940 C.3    99  THR99       0.0379
     69  N          8.3820   40.5110   50.2020 N.am  100  GLY100     -0.1939
     70  CA         7.2290   39.7640   49.7150 C.3   100  GLY100      0.2014
     71  C          6.5190   40.5980   48.6600 C.2   100  GLY100      0.2640
     72  O          6.9500   41.7180   48.3520 O.2   100  GLY100     -0.2714
     73  N          5.4320   40.0590   48.1080 N.am  101  THR101     -0.1936
     74  CA         4.7150   40.7140   47.0180 C.3   101  THR101      0.2028
     75  C          3.3010   41.1180   47.4320 C.2   101  THR101      0.2642
     76  O          2.5200   40.2880   47.8930 O.2   101  THR101     -0.2714
     77  CB         4.6590   39.8230   45.7570 C.3   101  THR101      0.1808
     78  OG1        5.9900   39.5870   45.2820 O.3   101  THR101     -0.2208
     79  CG2        3.8410   40.4900   44.6520 C.3   101  THR101      0.0379
     80  N          2.9940   42.4000   47.2430 N.am  102  SER102     -0.1949
     81  CA         1.6980   42.9820   47.5690 C.3   102  SER102      0.1924
     82  C          1.0300   43.4760   46.2890 C.2   102  SER102      0.2314
     83  O          1.5920   44.2980   45.5640 O.2   102  SER102     -0.2863
     84  CB         1.8840   44.1490   48.5420 C.3   102  SER102      0.2116
     85  OG         0.6670   44.5080   49.1630 O.3   102  SER102     -0.2180
     86  N         -5.8890   46.8820   48.3690 N.3   113  ARG113     -0.1245
     87  CA        -5.0820   45.6650   48.3130 C.3   113  ARG113      0.1563
     88  C         -5.9370   44.4630   47.9150 C.2   113  ARG113      0.2260
     89  O         -6.7860   44.0020   48.6800 O.2   113  ARG113     -0.2867
     90  CB        -4.3990   45.4060   49.6590 C.3   113  ARG113      0.0307
     91  CG        -3.3520   44.3070   49.6150 C.3   113  ARG113      0.0489
     92  CD        -2.5280   44.2820   50.8870 C.3   113  ARG113      0.2205
     93  NE        -1.4060   43.3450   50.8060 N.pl3 113  ARG113     -0.0865
     94  CZ        -1.4720   42.0410   51.0580 C.cat 113  ARG113      0.5346
     95  NH1       -2.6220   41.4680   51.3980 N.pl3 113  ARG113      0.1354
     96  NH2       -0.3730   41.2960   50.9600 N.pl3 113  ARG113      0.1354
     97  N         -1.8530   39.2480   47.7810 N.3   116  GLY116     -0.1210
     98  CA        -0.4120   39.2200   47.9550 C.3   116  GLY116      0.1956
     99  C          0.0670   37.7880   47.9810 C.2   116  GLY116      0.2612
    100  O         -0.7410   36.8560   47.9780 O.2   116  GLY116     -0.2717
    101  N          1.3830   37.6160   48.0090 N.am  117  ILE117     -0.1965
    102  CA         1.9770   36.2860   47.9980 C.3   117  ILE117      0.1727
    103  C          3.4120   36.3380   48.4850 C.2   117  ILE117      0.2616
    104  O          4.1020   37.3410   48.2930 O.2   117  ILE117     -0.2715
    105  CB         1.9100   35.6660   46.5790 C.3   117  ILE117      0.0290
    106  CG1        2.2510   34.1720   46.6000 C.3   117  ILE117      0.0022
    107  CG2        2.7800   36.4300   45.5890 C.3   117  ILE117      0.0023
    108  CD1        1.1440   33.3160   47.1820 C.3   117  ILE117      0.0001
    109  N          3.8610   35.2450   49.0960 N.am  118  GLY118     -0.1955
    110  CA         5.2230   35.1520   49.6230 C.3   118  GLY118      0.1869
    111  C          6.3220   34.9120   48.6010 C.2   118  GLY118      0.2309
    112  O          7.4800   34.7250   48.9810 O.2   118  GLY118     -0.2863
@<TRIPOS>BOND
     1    50    51    1
     2    79    77    1
     3    51    52    1
     4    51    54    1
     5    52    53    2
     6    78    77    1
     7    83    82    2
     8   107   105    1
     9    77    74    1
    10    54    55    1
    11    82    81    1
    12    56    55    2
    13   105   106    1
    14   105   102    1
    15   106   108    1
    16    55    57   am
    17    58    59    1
    18    74    75    1
    19    74    73    1
    20    80    75   am
    21    80    81    1
    22    75    76    2
    23    81    84    1
    24    61    60    2
    25    59    60    1
    26    97    98    1
    27    88    87    1
    28    88    89    2
    29    98    99    1
    30   100    99    2
    31    99   101   am
    32   102   101    1
    33   102   103    1
    34    73    71   am
    35   104   103    2
    36    87    86    1
    37    87    90    1
    38    72    71    2
    39    60    62   am
    40   103   109   am
    41    84    85    1
    42   111   112    2
    43   111   110    1
    44    71    70    1
    45    42    41    2
    46   109   110    1
    47    22    23    1
    48    22    21    1
    49    91    90    1
    50    91    92    1
    51    62    63    1
    52    70    69    1
    53    23    24    1
    54    21    18    1
    55    65    64    2
    56    24    25    1
    57    64    69   am
    58    64    63    1
    59    41    40    1
    60    63    66    1
    61    93    92    1
    62    93    94    2
    63     8     6   ar
    64    33    32    2
    65    40    43    1
    66    40    39    1
    67    96    94    1
    68    18    19    1
    69    18    17    1
    70    94    95    1
    71    43    44    1
    72    45    44   ar
    73    45    47   ar
    74    19    20    2
    75     6     5    1
    76     6     7   ar
    77    44    46   ar
    78    66    67    1
    79    66    68    1
    80    32    39   am
    81    32    31    1
    82    47    49   ar
    83     5     2    1
    84    37    36   ar
    85    46    48   ar
    86    49    48   ar
    87    31    34    1
    88    31    30    1
    89    34    35    1
    90    36    35    1
    91    36    38   ar
    92     4     3    2
    93     2     1    1
    94     2     3    1
    95    10     9    1
    96    10    11    1
    97    13    11   am
    98    13    14    1
    99    15    14    1
   100    15    16    2
   101    11    12    2
   102    26    27    1
   103    27    28    1
   104    28    29    2
