@<TRIPOS>MOLECULE
tmp/4nb5B00.pdb
 116 112 0 0 0
SMALL
GASTEIGER

@<TRIPOS>ATOM
      1  N         90.0260   46.0720   57.0070 N.3    14  TYR14      -0.1227
      2  CA        89.9630   45.1690   55.8540 C.3    14  TYR14       0.1736
      3  C         88.5360   45.0660   55.3250 C.2    14  TYR14       0.2595
      4  O         88.2960   45.1130   54.1120 O.2    14  TYR14      -0.2718
      5  CB        90.4860   43.7800   56.2420 C.3    14  TYR14       0.0548
      6  CG        90.4630   42.7920   55.1010 C.ar   14  TYR14      -0.0200
      7  CD1       89.3370   42.0240   54.8470 C.ar   14  TYR14      -0.0009
      8  CD2       91.5590   42.6500   54.2570 C.ar   14  TYR14      -0.0009
      9  CE1       89.3060   41.1340   53.7930 C.ar   14  TYR14       0.0417
     10  CE2       91.5380   41.7640   53.2050 C.ar   14  TYR14       0.0417
     11  CZ        90.4120   41.0100   52.9750 C.ar   14  TYR14       0.1957
     12  OH        90.3850   40.1250   51.9240 O.3    14  TYR14      -0.2866
     13  N         87.5780   44.9430   56.2370 N.am   15  PHE15      -0.1976
     14  CA        86.1760   44.8570   55.8540 C.3    15  PHE15       0.1639
     15  C         85.6830   46.1840   55.2790 C.2    15  PHE15       0.2290
     16  O         85.0900   46.2140   54.2050 O.2    15  PHE15      -0.2864
     17  CB        85.3020   44.4320   57.0380 C.3    15  PHE15       0.0560
     18  CG        85.1110   42.9310   57.1570 C.ar   15  PHE15      -0.0200
     19  CD1       86.1980   42.0800   57.2340 C.ar   15  PHE15      -0.0042
     20  CD2       83.8380   42.3920   57.2120 C.ar   15  PHE15      -0.0042
     21  CE1       86.0210   40.7070   57.3530 C.ar   15  PHE15      -0.0003
     22  CE2       83.6500   41.0290   57.3250 C.ar   15  PHE15      -0.0003
     23  CZ        84.7430   40.1870   57.3950 C.ar   15  PHE15      -0.0000
     24  N         86.4120   47.2920   51.7700 N.3    18  ARG18      -0.1245
     25  CA        85.7070   46.5200   50.7550 C.3    18  ARG18       0.1563
     26  C         84.2010   46.6840   50.8450 C.2    18  ARG18       0.2260
     27  O         83.4390   45.8000   50.4400 O.2    18  ARG18      -0.2867
     28  CB        86.0920   45.0580   50.9000 C.3    18  ARG18       0.0307
     29  CG        87.5280   44.8660   50.5550 C.3    18  ARG18       0.0489
     30  CD        88.0470   43.4860   50.8490 C.3    18  ARG18       0.2205
     31  NE        89.3960   43.3830   50.3190 N.pl3  18  ARG18      -0.0865
     32  CZ        90.4660   43.9460   50.8650 C.cat  18  ARG18       0.5346
     33  NH1       90.3650   44.6450   51.9930 N.pl3  18  ARG18       0.1354
     34  NH2       91.6480   43.8050   50.2870 N.pl3  18  ARG18       0.1354
     35  N         82.2360   46.5510   53.2200 N.3    20  LEU20      -0.1245
     36  CA        81.5400   45.8430   54.2840 C.3    20  LEU20       0.1561
     37  C         81.6510   46.6760   55.5600 C.2    20  LEU20       0.2260
     38  O         82.3820   47.6630   55.5930 O.2    20  LEU20      -0.2867
     39  CB        82.1320   44.4450   54.4740 C.3    20  LEU20       0.0270
     40  CG        82.0030   43.5080   53.2660 C.3    20  LEU20       0.0019
     41  CD1       82.6430   42.1610   53.5720 C.3    20  LEU20       0.0001
     42  CD2       80.5410   43.3380   52.8620 C.3    20  LEU20       0.0001
     43  N         84.7340   39.5030   63.5110 N.3    28  LEU28      -0.1245
     44  CA        85.4240   38.3230   63.0140 C.3    28  LEU28       0.1561
     45  C         86.8220   38.2490   63.6220 C.2    28  LEU28       0.2260
     46  O         87.2580   37.1950   64.0710 O.2    28  LEU28      -0.2867
     47  CB        85.4980   38.3410   61.4900 C.3    28  LEU28       0.0270
     48  CG        86.2280   37.1580   60.8450 C.3    28  LEU28       0.0019
     49  CD1       85.6290   35.8280   61.2720 C.3    28  LEU28       0.0001
     50  CD2       86.2220   37.2730   59.3330 C.3    28  LEU28       0.0001
     51  N         78.0060   34.4280   55.7800 N.3    65  PHE65      -0.1241
     52  CA        79.2790   34.2430   55.0830 C.3    65  PHE65       0.1605
     53  C         79.9270   32.8850   55.3960 C.2    65  PHE65       0.2264
     54  O         80.8120   32.4350   54.6650 O.2    65  PHE65      -0.2867
     55  CB        80.2580   35.3720   55.4120 C.3    65  PHE65       0.0534
     56  CG        79.8720   36.7080   54.8360 C.ar   65  PHE65      -0.0203
     57  CD1       78.9840   36.8020   53.7740 C.ar   65  PHE65      -0.0042
     58  CD2       80.4010   37.8730   55.3640 C.ar   65  PHE65      -0.0042
     59  CE1       78.6360   38.0390   53.2480 C.ar   65  PHE65      -0.0003
     60  CE2       80.0570   39.1100   54.8430 C.ar   65  PHE65      -0.0003
     61  CZ        79.1730   39.1920   53.7850 C.ar   65  PHE65      -0.0000
     62  N         81.4020   31.9860   58.4230 N.3    67  PHE67      -0.1241
     63  CA        82.5680   32.0310   59.3070 C.3    67  PHE67       0.1605
     64  C         82.2800   31.6780   60.7590 C.2    67  PHE67       0.2264
     65  O         83.1370   31.1030   61.4300 O.2    67  PHE67      -0.2867
     66  CB        83.2310   33.4140   59.2850 C.3    67  PHE67       0.0534
     67  CG        83.8170   33.7940   57.9530 C.ar   67  PHE67      -0.0203
     68  CD1       84.8500   33.0590   57.4010 C.ar   67  PHE67      -0.0042
     69  CD2       83.3490   34.9020   57.2670 C.ar   67  PHE67      -0.0042
     70  CE1       85.3930   33.4080   56.1750 C.ar   67  PHE67      -0.0003
     71  CE2       83.8920   35.2580   56.0430 C.ar   67  PHE67      -0.0003
     72  CZ        84.9180   34.5040   55.5000 C.ar   67  PHE67      -0.0000
     73  N         87.5490   29.3630   57.5520 N.3    88  PHE88      -0.1241
     74  CA        87.7990   29.9440   56.2430 C.3    88  PHE88       0.1605
     75  C         87.5560   28.9310   55.1160 C.2    88  PHE88       0.2264
     76  O         87.2020   29.3090   53.9980 O.2    88  PHE88      -0.2867
     77  CB        89.1720   30.6210   56.2080 C.3    88  PHE88       0.0534
     78  CG        89.1580   31.9550   56.8860 C.ar   88  PHE88      -0.0203
     79  CD1       89.1530   32.0260   58.2690 C.ar   88  PHE88      -0.0042
     80  CD2       89.0640   33.1280   56.1620 C.ar   88  PHE88      -0.0042
     81  CE1       89.0930   33.2500   58.9130 C.ar   88  PHE88      -0.0003
     82  CE2       89.0050   34.3540   56.8020 C.ar   88  PHE88      -0.0003
     83  CZ        89.0210   34.4080   58.1830 C.ar   88  PHE88      -0.0000
     84  N         83.9270   29.2800   54.8610 N.3    91  GLY91      -0.1210
     85  CA        83.7000   30.4970   54.1020 C.3    91  GLY91       0.1956
     86  C         83.8580   30.2690   52.6050 C.2    91  GLY91       0.2611
     87  O         83.0510   30.7570   51.7930 O.2    91  GLY91      -0.2717
     88  N         84.8930   29.5270   52.2270 N.am   92  GLU92      -0.1979
     89  CA        85.1060   29.2270   50.8140 C.3    92  GLU92       0.1602
     90  C         84.0000   28.3490   50.2390 C.2    92  GLU92       0.2287
     91  O         83.6700   28.4590   49.0590 O.2    92  GLU92      -0.2864
     92  CB        86.4640   28.5760   50.5810 C.3    92  GLU92       0.0415
     93  CG        87.5990   29.5670   50.4050 C.3    92  GLU92       0.1163
     94  CD        87.3710   30.5290   49.2460 C.2    92  GLU92       0.3649
     95  OE1       87.5400   31.7450   49.4590 O.co2  92  GLU92      -0.2457
     96  OE2       87.0240   30.0710   48.1350 O.co2  92  GLU92      -0.2457
     97  N         80.8890   28.5890   51.0920 N.3    94  GLU94      -0.1231
     98  CA        79.8080   29.5220   50.8310 C.3    94  GLU94       0.1699
     99  C         80.0770   30.2620   49.5180 C.2    94  GLU94       0.2592
    100  O         79.1470   30.5690   48.7710 O.2    94  GLU94      -0.2718
    101  CB        79.6480   30.5130   51.9800 C.3    94  GLU94       0.0402
    102  CG        78.7310   31.6870   51.6730 C.3    94  GLU94       0.1161
    103  CD        77.2950   31.2630   51.4380 C.2    94  GLU94       0.3649
    104  OE1       76.4660   32.1300   51.0880 O.co2  94  GLU94      -0.2457
    105  OE2       76.9950   30.0630   51.6050 O.co2  94  GLU94      -0.2457
    106  N         81.3490   30.5330   49.2300 N.am   95  ARG95      -0.1980
    107  CA        81.7080   31.1670   47.9610 C.3    95  ARG95       0.1597
    108  C         81.3750   30.2820   46.7630 C.2    95  ARG95       0.2287
    109  O         80.9680   30.7880   45.7110 O.2    95  ARG95      -0.2864
    110  CB        83.1870   31.5400   47.9200 C.3    95  ARG95       0.0334
    111  CG        83.4760   32.8730   48.5590 C.3    95  ARG95       0.0492
    112  CD        84.3800   33.7370   47.6950 C.3    95  ARG95       0.2205
    113  NE        83.9900   33.7570   46.2830 N.pl3  95  ARG95      -0.0865
    114  CZ        83.2250   34.6850   45.7110 C.cat  95  ARG95       0.5346
    115  NH1       82.7350   35.6970   46.4150 N.pl3  95  ARG95       0.1354
    116  NH2       82.9470   34.5980   44.4190 N.pl3  95  ARG95       0.1354
@<TRIPOS>BOND
     1   116   114    1
     2   114   113    2
     3   114   115    1
     4   109   108    2
     5   113   112    1
     6   108   107    1
     7   112   111    1
     8   110   107    1
     9   110   111    1
    10   107   106    1
    11    96    94   ar
    12   100    99    2
    13    91    90    2
    14   106    99   am
    15    94    95   ar
    16    94    93    1
    17    99    98    1
    18    90    89    1
    19    34    32    1
    20    31    30    1
    21    31    32    2
    22    93    92    1
    23    27    26    2
    24    29    30    1
    25    29    28    1
    26    92    89    1
    27    25    26    1
    28    25    28    1
    29    25    24    1
    30    89    88    1
    31    98    97    1
    32    98   101    1
    33    32    33    1
    34   104   103   ar
    35   103   105   ar
    36   103   102    1
    37   102   101    1
    38    87    86    2
    39    12    11    1
    40    88    86   am
    41    86    85    1
    42    42    40    1
    43    11    10   ar
    44    11     9   ar
    45    10     8   ar
    46    35    36    1
    47    59    57   ar
    48    59    61   ar
    49    40    41    1
    50    40    39    1
    51    57    56   ar
    52    61    60   ar
    53     9     7   ar
    54    76    75    2
    55    85    84    1
    56     4     3    2
    57    16    15    2
    58     8     6   ar
    59    36    39    1
    60    36    37    1
    61    54    53    2
    62    56    58   ar
    63    56    55    1
    64    60    58   ar
    65     7     6   ar
    66    52    53    1
    67    52    55    1
    68    52    51    1
    69     6     5    1
    70    75    74    1
    71    15    14    1
    72     3     2    1
    73     3    13   am
    74    72    71   ar
    75    72    70   ar
    76    37    38    2
    77    14    13    1
    78    14    17    1
    79     2     5    1
    80     2     1    1
    81    71    69   ar
    82    80    82   ar
    83    80    78   ar
    84    70    68   ar
    85    77    74    1
    86    77    78    1
    87    74    73    1
    88    82    83   ar
    89    78    79   ar
    90    17    18    1
    91    18    20   ar
    92    18    19   ar
    93    20    22   ar
    94    19    21   ar
    95    69    67   ar
    96    22    23   ar
    97    21    23   ar
    98    68    67   ar
    99    67    66    1
   100    83    81   ar
   101    79    81   ar
   102    62    63    1
   103    66    63    1
   104    63    64    1
   105    50    48    1
   106    64    65    2
   107    48    49    1
   108    48    47    1
   109    47    44    1
   110    44    43    1
   111    44    45    1
   112    45    46    2
