@<TRIPOS>MOLECULE
tmp/4nb6A00.pdb
 192 185 0 0 0
SMALL
GASTEIGER

@<TRIPOS>ATOM
      1  N         31.0720   -3.3660    1.8230 N.3    21  GLN21      -0.1245
      2  CA        30.1140   -2.5810    2.6140 C.3    21  GLN21       0.1566
      3  C         28.7180   -2.5070    1.9960 C.2    21  GLN21       0.2260
      4  O         27.7390   -2.9270    2.6140 O.2    21  GLN21      -0.2867
      5  CB        30.6450   -1.1760    2.9330 C.3    21  GLN21       0.0367
      6  CG        29.6610   -0.3220    3.7260 C.3    21  GLN21       0.0905
      7  CD        30.2820    0.9300    4.3200 C.2    21  GLN21       0.2608
      8  OE1       31.2340    1.4960    3.7730 O.2    21  GLN21      -0.2717
      9  NE2       29.7370    1.3730    5.4460 N.am   21  GLN21      -0.0878
     10  N         29.4790   17.7210    9.7980 N.3    52  TRP52      -0.1241
     11  CA        30.8470   17.1870    9.8900 C.3    52  TRP52       0.1605
     12  C         30.9330   15.9090   10.6700 C.2    52  TRP52       0.2264
     13  O         31.6720   15.0040   10.2860 O.2    52  TRP52      -0.2867
     14  CB        31.8130   18.2110   10.4840 C.3    52  TRP52       0.0550
     15  CG        32.4380   19.1150    9.4540 C.ar   52  TRP52       0.0003
     16  CD1       32.1990   20.4710    9.2590 C.ar   52  TRP52       0.0946
     17  CD2       33.4250   18.7520    8.4320 C.ar   52  TRP52       0.0152
     18  NE1       32.9440   20.9540    8.2180 N.ar   52  TRP52      -0.2442
     19  CE2       33.7030   19.9790    7.6800 C.ar   52  TRP52       0.0810
     20  CE3       34.0800   17.5750    8.0730 C.ar   52  TRP52       0.0012
     21  CZ2       34.6040   20.0040    6.6200 C.ar   52  TRP52       0.0191
     22  CZ3       34.9880   17.6140    7.0020 C.ar   52  TRP52       0.0001
     23  CH2       35.2420   18.8000    6.2940 C.ar   52  TRP52       0.0015
     24  N         29.3620   12.9760    8.5400 N.3    55  CYS55      -0.1221
     25  CA        30.2670   12.5250    7.4880 C.3    55  CYS55       0.1808
     26  C         31.4470   11.7630    8.0630 C.2    55  CYS55       0.2601
     27  O         31.8660   10.7450    7.5040 O.2    55  CYS55      -0.2717
     28  CB        30.7600   13.7110    6.6580 C.3    55  CYS55       0.0970
     29  SG        29.4950   14.4150    5.5800 S.3    55  CYS55      -0.0800
     30  N         31.9720   12.2540    9.1840 N.am   56  ALA56      -0.1979
     31  CA        33.0960   11.6070    9.8530 C.3    56  ALA56       0.1597
     32  C         32.7190   10.2230   10.3880 C.2    56  ALA56       0.2287
     33  O         33.5810    9.3570   10.5360 O.2    56  ALA56      -0.2864
     34  CB        33.6460   12.4920   10.9610 C.3    56  ALA56       0.0319
     35  N         30.3840    8.1980    8.7740 N.3    58  HIS58      -0.1226
     36  CA        30.3090    7.3590    7.5750 C.3    58  HIS58       0.1752
     37  C         31.6670    6.9760    7.0620 C.2    58  HIS58       0.2595
     38  O         31.8500    5.8760    6.5300 O.2    58  HIS58      -0.2718
     39  CB        29.5190    8.0530    6.4730 C.3    58  HIS58       0.0759
     40  CG        28.1600    8.5370    6.9100 C.ar   58  HIS58       0.0818
     41  ND1       27.2110    7.7050    7.3720 N.ar   58  HIS58      -0.2268
     42  CD2       27.6090    9.8160    6.9350 C.ar   58  HIS58       0.1154
     43  CE1       26.1110    8.4130    7.6840 C.ar   58  HIS58       0.1986
     44  NE2       26.3580    9.7050    7.4170 N.ar   58  HIS58      -0.2212
     45  N         32.6270    7.8870    7.2220 N.am   59  LEU59      -0.1980
     46  CA        34.0050    7.6510    6.8210 C.3    59  LEU59       0.1596
     47  C         34.6820    6.6010    7.7060 C.2    59  LEU59       0.2287
     48  O         35.2670    5.6380    7.1940 O.2    59  LEU59      -0.2864
     49  CB        34.8050    8.9560    6.8370 C.3    59  LEU59       0.0297
     50  CG        36.2760    8.8450    6.4190 C.3    59  LEU59       0.0022
     51  CD1       36.4130    8.8220    4.9050 C.3    59  LEU59       0.0001
     52  CD2       37.0920    9.9790    7.0130 C.3    59  LEU59       0.0001
     53  N         33.3160    3.3160    6.8540 N.3    62  ALA62      -0.1245
     54  CA        33.8680    2.8530    5.5890 C.3    62  ALA62       0.1562
     55  C         35.2890    2.3340    5.7770 C.2    62  ALA62       0.2260
     56  O         35.6650    1.3210    5.1800 O.2    62  ALA62      -0.2867
     57  CB        33.8330    3.9680    4.5550 C.3    62  ALA62       0.0290
     58  N         42.1940    5.8650    3.4780 N.3    93  MET93      -0.1245
     59  CA        41.4700    7.0370    3.0030 C.3    93  MET93       0.1570
     60  C         41.3510    7.0240    1.4770 C.2    93  MET93       0.2261
     61  O         40.2600    7.2020    0.9290 O.2    93  MET93      -0.2867
     62  CB        42.2050    8.2970    3.4700 C.3    93  MET93       0.0387
     63  CG        41.3840    9.5720    3.4500 C.3    93  MET93       0.0595
     64  SD        40.2300    9.6700    4.8240 S.3    93  MET93      -0.1393
     65  CE        40.0770   11.4470    4.9630 C.3    93  MET93       0.0692
     66  N         38.8910    4.4740    0.2440 N.3    96  VAL96      -0.1231
     67  CA        37.5210    4.9330    0.4660 C.3    96  VAL96       0.1692
     68  C         37.0620    5.8150   -0.6980 C.2    96  VAL96       0.2591
     69  O         35.9580    5.6390   -1.2120 O.2    96  VAL96      -0.2718
     70  CB        37.3700    5.6640    1.8190 C.3    96  VAL96       0.0266
     71  CG1       36.0530    6.4190    1.8890 C.3    96  VAL96       0.0020
     72  CG2       37.4610    4.6750    2.9650 C.3    96  VAL96       0.0020
     73  N         37.9240    6.7380   -1.1250 N.am   97  LEU97      -0.1980
     74  CA        37.6210    7.6080   -2.2580 C.3    97  LEU97       0.1596
     75  C         37.3730    6.8440   -3.5450 C.2    97  LEU97       0.2287
     76  O         36.4480    7.1630   -4.2910 O.2    97  LEU97      -0.2864
     77  CB        38.7290    8.6270   -2.4850 C.3    97  LEU97       0.0297
     78  CG        38.3550   10.0490   -2.0830 C.3    97  LEU97       0.0022
     79  CD1       38.9260   10.4210   -0.7190 C.3    97  LEU97       0.0001
     80  CD2       38.8580   10.9960   -3.1590 C.3    97  LEU97       0.0001
     81  N         36.4700    3.6720   -3.7210 N.3    99  ARG99      -0.1231
     82  CA        35.2590    2.8800   -3.4980 C.3    99  ARG99       0.1694
     83  C         33.9930    3.6830   -3.7400 C.2    99  ARG99       0.2591
     84  O         32.9790    3.1320   -4.1710 O.2    99  ARG99      -0.2718
     85  CB        35.2280    2.3240   -2.0750 C.3    99  ARG99       0.0321
     86  CG        36.0810    1.0890   -1.8510 C.3    99  ARG99       0.0489
     87  CD        35.8280    0.5220   -0.4620 C.3    99  ARG99       0.2205
     88  NE        36.5660   -0.7190   -0.2300 N.pl3  99  ARG99      -0.0865
     89  CZ        36.1890   -1.6720    0.6160 C.cat  99  ARG99       0.5346
     90  NH1       35.0730   -1.5470    1.3190 N.pl3  99  ARG99       0.1354
     91  NH2       36.9250   -2.7640    0.7520 N.pl3  99  ARG99       0.1354
     92  N         34.0600    4.9830   -3.4580 N.am  100  MET100     -0.1979
     93  CA        32.8910    5.8740   -3.5160 C.3   100  MET100      0.1605
     94  C         32.2360    5.9850   -4.8850 C.2   100  MET100      0.2287
     95  O         31.0270    6.1960   -4.9650 O.2   100  MET100     -0.2864
     96  CB        33.2570    7.2720   -3.0370 C.3   100  MET100      0.0413
     97  CG        33.3820    7.3920   -1.5340 C.3   100  MET100      0.0598
     98  SD        33.9410    9.0370   -1.0860 S.3   100  MET100     -0.1393
     99  CE        32.4420    9.9770   -1.3610 C.3   100  MET100      0.0692
    100  N         24.8490   11.3230   -5.6180 N.3   111  VAL111     -0.1231
    101  CA        25.5720   10.3020   -4.8730 C.3   111  VAL111      0.1692
    102  C         24.6940    9.7350   -3.7500 C.2   111  VAL111      0.2592
    103  O         23.9030   10.4610   -3.1500 O.2   111  VAL111     -0.2718
    104  CB        26.9270   10.8430   -4.3500 C.3   111  VAL111      0.0266
    105  CG1       26.7220   11.8540   -3.2340 C.3   111  VAL111      0.0020
    106  CG2       27.8380    9.7060   -3.8960 C.3   111  VAL111      0.0020
    107  N         24.8110    8.4340   -3.5000 N.am  112  PHE112     -0.1962
    108  CA        24.0870    7.7840   -2.4100 C.3   112  PHE112      0.1771
    109  C         24.6260    8.2990   -1.0840 C.2   112  PHE112      0.2619
    110  O         25.8340    8.2940   -0.8470 O.2   112  PHE112     -0.2715
    111  CB        24.2270    6.2570   -2.4970 C.3   112  PHE112      0.0574
    112  CG        23.4010    5.4970   -1.4850 C.ar  112  PHE112     -0.0200
    113  CD1       22.0860    5.1190   -1.7700 C.ar  112  PHE112     -0.0042
    114  CD2       23.9450    5.1300   -0.2540 C.ar  112  PHE112     -0.0042
    115  CE1       21.3300    4.4040   -0.8440 C.ar  112  PHE112     -0.0003
    116  CE2       23.1910    4.4190    0.6760 C.ar  112  PHE112     -0.0003
    117  CZ        21.8840    4.0550    0.3790 C.ar  112  PHE112     -0.0000
    118  N         23.7180    8.7590   -0.2350 N.am  113  PHE113     -0.1974
    119  CA        24.0730    9.2970    1.0690 C.3   113  PHE113      0.1639
    120  C         22.9040    9.1030    2.0270 C.2   113  PHE113      0.2290
    121  O         21.8380    9.7080    1.8560 O.2   113  PHE113     -0.2864
    122  CB        24.4390   10.7820    0.9590 C.3   113  PHE113      0.0560
    123  CG        24.8110   11.4130    2.2690 C.ar  113  PHE113     -0.0200
    124  CD1       26.0530   11.1680    2.8470 C.ar  113  PHE113     -0.0042
    125  CD2       23.9230   12.2540    2.9280 C.ar  113  PHE113     -0.0042
    126  CE1       26.4010   11.7460    4.0570 C.ar  113  PHE113     -0.0003
    127  CE2       24.2670   12.8370    4.1380 C.ar  113  PHE113     -0.0003
    128  CZ        25.5080   12.5820    4.7030 C.ar  113  PHE113     -0.0000
    129  N         25.3570   19.0930    0.6510 N.3   123  PHE123     -0.1241
    130  CA        26.4420   19.2710    1.6190 C.3   123  PHE123      0.1605
    131  C         26.7760   20.7420    1.8540 C.2   123  PHE123      0.2264
    132  O         27.8070   21.0710    2.4500 O.2   123  PHE123     -0.2867
    133  CB        27.6950   18.4930    1.1810 C.3   123  PHE123      0.0534
    134  CG        27.4530   17.0250    0.9540 C.ar  123  PHE123     -0.0203
    135  CD1       27.1020   16.5470   -0.3050 C.ar  123  PHE123     -0.0042
    136  CD2       27.5780   16.1180    1.9970 C.ar  123  PHE123     -0.0042
    137  CE1       26.8770   15.1930   -0.5170 C.ar  123  PHE123     -0.0003
    138  CE2       27.3490   14.7620    1.7930 C.ar  123  PHE123     -0.0003
    139  CZ        26.9990   14.3000    0.5350 C.ar  123  PHE123     -0.0000
    140  N         28.4650   22.1350    5.0920 N.3   126  LEU126     -0.1245
    141  CA        29.8740   21.8710    5.4040 C.3   126  LEU126      0.1561
    142  C         30.7640   23.0850    5.1770 C.2   126  LEU126      0.2260
    143  O         31.8340   23.1810    5.7670 O.2   126  LEU126     -0.2867
    144  CB        30.4190   20.7000    4.5900 C.3   126  LEU126      0.0270
    145  CG        29.9110   19.2950    4.8870 C.3   126  LEU126      0.0019
    146  CD1       30.5460   18.3160    3.9160 C.3   126  LEU126      0.0001
    147  CD2       30.2170   18.8830    6.3160 C.3   126  LEU126      0.0001
    148  N         33.9630   19.3380   -1.8500 N.3   132  ILE132     -0.1245
    149  CA        32.8540   18.5210   -2.3540 C.3   132  ILE132      0.1561
    150  C         32.9290   18.3710   -3.8750 C.2   132  ILE132      0.2260
    151  O         32.7120   17.2730   -4.4030 O.2   132  ILE132     -0.2867
    152  CB        31.4740   19.0820   -1.9140 C.3   132  ILE132      0.0252
    153  CG1       31.3240   19.0310   -0.3830 C.3   132  ILE132      0.0019
    154  CG2       30.3270   18.3410   -2.5940 C.3   132  ILE132      0.0019
    155  CD1       31.3760   17.6330    0.2070 C.3   132  ILE132      0.0001
    156  N         35.4290   15.7900   -4.9120 N.3   135  ILE135     -0.1231
    157  CA        34.8840   14.4520   -4.7360 C.3   135  ILE135      0.1692
    158  C         33.9800   14.0630   -5.9020 C.2   135  ILE135      0.2592
    159  O         34.1060   12.9640   -6.4480 O.2   135  ILE135     -0.2718
    160  CB        34.1480   14.3160   -3.3870 C.3   135  ILE135      0.0266
    161  CG1       35.1490   14.4580   -2.2370 C.3   135  ILE135      0.0019
    162  CG2       33.4240   12.9800   -3.2900 C.3   135  ILE135      0.0020
    163  CD1       34.5390   14.3630   -0.8520 C.3   135  ILE135      0.0001
    164  N         33.0930   14.9710   -6.2990 N.am  136  PHE136     -0.1976
    165  CA        32.1670   14.6910   -7.3900 C.3   136  PHE136      0.1639
    166  C         32.8690   14.5720   -8.7410 C.2   136  PHE136      0.2290
    167  O         32.5580   13.6750   -9.5230 O.2   136  PHE136     -0.2864
    168  CB        31.0370   15.7180   -7.4340 C.3   136  PHE136      0.0560
    169  CG        29.9080   15.4240   -6.4840 C.ar  136  PHE136     -0.0200
    170  CD1       30.1010   15.4750   -5.1010 C.ar  136  PHE136     -0.0042
    171  CD2       28.6420   15.1130   -6.9690 C.ar  136  PHE136     -0.0042
    172  CE1       29.0540   15.2130   -4.2230 C.ar  136  PHE136     -0.0003
    173  CE2       27.5880   14.8490   -6.0950 C.ar  136  PHE136     -0.0003
    174  CZ        27.7930   14.9030   -4.7220 C.ar  136  PHE136     -0.0000
    175  N         41.7300   16.6770    1.8250 N.3   214  HIS214     -0.1241
    176  CA        40.5610   16.2560    2.5940 C.3   214  HIS214      0.1621
    177  C         40.8690   16.0190    4.0430 C.2   214  HIS214      0.2264
    178  O         40.0580   16.3450    4.9130 O.2   214  HIS214     -0.2867
    179  CB        39.9410   15.0180    1.9700 C.3   214  HIS214      0.0745
    180  CG        39.3920   15.2550    0.5860 C.ar  214  HIS214      0.0817
    181  ND1       40.1660   15.2290   -0.5090 N.ar  214  HIS214     -0.2268
    182  CD2       38.1050   15.5450    0.1480 C.ar  214  HIS214      0.1154
    183  CE1       39.4180   15.4810   -1.5950 C.ar  214  HIS214      0.1986
    184  NE2       38.1560   15.6760   -1.1920 N.ar  214  HIS214     -0.2212
    185  N         39.5590   18.1990    7.3630 N.3   218  LEU218     -0.1245
    186  CA        38.9140   17.3950    8.3970 C.3   218  LEU218      0.1561
    187  C         39.5130   17.6430    9.7790 C.2   218  LEU218      0.2260
    188  O         38.7750   17.8230   10.7530 O.2   218  LEU218     -0.2867
    189  CB        39.0020   15.9050    8.0540 C.3   218  LEU218      0.0270
    190  CG        38.4260   14.9280    9.0860 C.3   218  LEU218      0.0019
    191  CD1       37.0080   14.5070    8.7230 C.3   218  LEU218      0.0001
    192  CD2       39.3320   13.7100    9.1960 C.3   218  LEU218      0.0001
@<TRIPOS>BOND
     1   167   166    2
     2   166   165    1
     3   168   165    1
     4   168   169    1
     5   165   164    1
     6   171   169   ar
     7   171   173   ar
     8   169   170   ar
     9   159   158    2
    10   164   158   am
    11   173   174   ar
    12   158   157    1
    13   100   101    1
    14   170   172   ar
    15    95    94    2
    16   156   157    1
    17    94    93    1
    18   101   104    1
    19   101   102    1
    20   157   160    1
    21   174   172   ar
    22   151   150    2
    23   104   106    1
    24   104   105    1
    25    76    75    2
    26    84    83    2
    27   150   149    1
    28   102   107   am
    29   102   103    2
    30    83    82    1
    31    83    92   am
    32    81    82    1
    33    75    74    1
    34    93    92    1
    35    93    96    1
    36   107   108    1
    37    82    85    1
    38   160   162    1
    39   160   161    1
    40    80    78    1
    41    96    97    1
    42   154   152    1
    43   111   108    1
    44   111   112    1
    45    77    74    1
    46    77    78    1
    47   108   109    1
    48   149   152    1
    49   149   148    1
    50    74    73    1
    51   161   163    1
    52    78    79    1
    53    85    86    1
    54   152   153    1
    55    86    87    1
    56   113   112   ar
    57   113   115   ar
    58   183   184   ar
    59   183   181   ar
    60    97    98    1
    61   112   114   ar
    62    99    98    1
    63    69    68    2
    64   184   182   ar
    65    73    68   am
    66   109   110    2
    67   109   118   am
    68   115   117   ar
    69    68    67    1
    70   137   135   ar
    71   137   139   ar
    72   181   180   ar
    73    87    88    1
    74   153   155    1
    75   135   134   ar
    76   114   116   ar
    77   118   119    1
    78    88    89    2
    79   182   180   ar
    80    66    67    1
    81   117   116   ar
    82    67    70    1
    83   139   138   ar
    84   180   179    1
    85    89    91    1
    86    89    90    1
    87   129   130    1
    88    61    60    2
    89   134   133    1
    90   134   136   ar
    91   122   119    1
    92   122   123    1
    93   119   120    1
    94   133   130    1
    95    60    59    1
    96   130   131    1
    97   138   136   ar
    98    70    71    1
    99    70    72    1
   100     1     2    1
   101   175   176    1
   102   131   132    2
   103   121   120    2
   104   179   176    1
   105     3     4    2
   106     3     2    1
   107   123   124   ar
   108   123   125   ar
   109   176   177    1
   110     2     5    1
   111   124   126   ar
   112   125   127   ar
   113     5     6    1
   114    59    62    1
   115    59    58    1
   116    63    62    1
   117    63    64    1
   118     6     7    1
   119     8     7    2
   120   146   145    1
   121   177   178    2
   122   126   128   ar
   123   127   128   ar
   124     7     9   am
   125    57    54    1
   126   144   145    1
   127   144   141    1
   128    64    65    1
   129   145   147    1
   130    51    50    1
   131   140   141    1
   132   142   141    1
   133   142   143    2
   134    56    55    2
   135    29    28    1
   136    54    55    1
   137    54    53    1
   138    23    21   ar
   139    23    22   ar
   140    50    49    1
   141    50    52    1
   142    39    40    1
   143    39    36    1
   144    38    37    2
   145    21    19   ar
   146    28    25    1
   147    46    49    1
   148    46    45    1
   149    46    47    1
   150    40    42   ar
   151    40    41   ar
   152    42    44   ar
   153    22    20   ar
   154    37    45   am
   155    37    36    1
   156    48    47    2
   157   185   186    1
   158    41    43   ar
   159    44    43   ar
   160    25    26    1
   161    25    24    1
   162    27    26    2
   163    36    35    1
   164    19    18   ar
   165    19    17   ar
   166   189   186    1
   167   189   190    1
   168    26    30   am
   169    20    17   ar
   170    18    16   ar
   171   186   187    1
   172    17    15   ar
   173   191   190    1
   174   190   192    1
   175    30    31    1
   176    16    15   ar
   177    15    14    1
   178   187   188    2
   179    10    11    1
   180    31    32    1
   181    31    34    1
   182    11    14    1
   183    11    12    1
   184    13    12    2
   185    32    33    2
