@<TRIPOS>MOLECULE
tmp/4nb7A04.pdb
 90 88 0 0 0
SMALL
GASTEIGER

@<TRIPOS>ATOM
      1  N        -48.6400  -17.0180  -34.6040 N.3    72  ASP72      -0.1239
      2  CA       -48.7870  -15.9040  -35.5490 C.3    72  ASP72       0.1674
      3  C        -49.2690  -14.6390  -34.8620 C.2    72  ASP72       0.2266
      4  O        -50.2520  -14.6530  -34.1400 O.2    72  ASP72      -0.2867
      5  CB       -49.7710  -16.2530  -36.6610 C.3    72  ASP72       0.1410
      6  CG       -49.4850  -17.6030  -37.3010 C.2    72  ASP72       0.3668
      7  OD1      -48.2980  -17.9210  -37.5370 O.co2  72  ASP72      -0.2456
      8  OD2      -50.4530  -18.3520  -37.5770 O.co2  72  ASP72      -0.2456
      9  N        -52.7380  -15.5520  -33.3630 N.3    98  ARG98      -0.1245
     10  CA       -53.4380  -16.5460  -34.1520 C.3    98  ARG98       0.1563
     11  C        -52.5990  -17.7980  -34.2860 C.2    98  ARG98       0.2260
     12  O        -51.4070  -17.7880  -33.9980 O.2    98  ARG98      -0.2867
     13  CB       -53.7900  -15.9920  -35.5080 C.3    98  ARG98       0.0307
     14  CG       -54.7990  -14.8690  -35.4200 C.3    98  ARG98       0.0489
     15  CD       -55.1120  -14.3030  -36.7920 C.3    98  ARG98       0.2205
     16  NE       -55.0210  -12.8460  -36.7880 N.pl3  98  ARG98      -0.0865
     17  CZ       -56.0600  -12.0320  -36.6200 C.cat  98  ARG98       0.5346
     18  NH1      -55.8690  -10.7150  -36.6220 N.pl3  98  ARG98       0.1354
     19  NH2      -57.2880  -12.5290  -36.4570 N.pl3  98  ARG98       0.1354
     20  N        -52.4370  -21.6310  -36.8270 N.3   100  HIS100     -0.1226
     21  CA       -52.9330  -22.2500  -38.0400 C.3   100  HIS100      0.1752
     22  C        -52.6350  -23.7520  -38.0690 C.2   100  HIS100      0.2596
     23  O        -51.7230  -24.2400  -37.3900 O.2   100  HIS100     -0.2718
     24  CB       -52.3140  -21.5540  -39.2580 C.3   100  HIS100      0.0759
     25  CG       -50.8280  -21.6890  -39.3360 C.ar  100  HIS100      0.0818
     26  ND1      -49.9640  -20.8710  -38.6270 N.ar  100  HIS100     -0.2268
     27  CD2      -50.0380  -22.5480  -40.0260 C.ar  100  HIS100      0.1154
     28  CE1      -48.7180  -21.2250  -38.8790 C.ar  100  HIS100      0.1986
     29  NE2      -48.7330  -22.2440  -39.7280 N.ar  100  HIS100     -0.2212
     30  N        -53.4190  -24.4830  -38.8530 N.am  101  LYS101     -0.1966
     31  CA       -53.1840  -25.9020  -39.0740 C.3   101  LYS101      0.1713
     32  C        -52.1730  -26.0630  -40.2000 C.2   101  LYS101      0.2458
     33  O        -52.0400  -25.1760  -41.0400 O.2   101  LYS101     -0.2730
     34  CB       -54.4910  -26.6270  -39.4280 C.3   101  LYS101      0.0311
     35  CG       -55.6240  -26.3780  -38.4690 C.3   101  LYS101      0.0038
     36  CD       -56.8700  -27.1890  -38.8410 C.3   101  LYS101      0.0206
     37  CE       -58.0450  -26.9420  -37.8670 C.3   101  LYS101      0.1093
     38  NZ       -59.2690  -27.7340  -38.2400 N.3   101  LYS101     -0.1314
     39  N        -51.4580  -27.1960  -40.2320 N.am  102  PRO102     -0.2716
     40  CA       -50.5670  -27.4330  -41.3730 C.3   102  PRO102      0.1536
     41  C        -51.3550  -27.7320  -42.6410 C.2   102  PRO102      0.2599
     42  O        -52.5260  -28.0680  -42.5290 O.2   102  PRO102     -0.2715
     43  CB       -49.7430  -28.6530  -40.9340 C.3   102  PRO102      0.0310
     44  CG       -50.5560  -29.3130  -39.8970 C.3   102  PRO102      0.0237
     45  CD       -51.3320  -28.2390  -39.2000 C.3   102  PRO102      0.0939
     46  N        -50.7340  -27.6050  -43.8120 N.am  103  GLY103     -0.1941
     47  CA       -51.3670  -28.0050  -45.0610 C.3   103  GLY103      0.2014
     48  C        -50.5530  -27.6280  -46.2850 C.2   103  GLY103      0.2639
     49  O        -49.5500  -26.9300  -46.1510 O.2   103  GLY103     -0.2714
     50  N        -50.9790  -28.0880  -47.4670 N.am  104  ARG104     -0.1963
     51  CA       -50.3150  -27.7480  -48.7350 C.3   104  ARG104      0.1729
     52  C        -50.4480  -26.2800  -49.0820 C.2   104  ARG104      0.2616
     53  O        -51.5260  -25.7050  -48.9500 O.2   104  ARG104     -0.2715
     54  CB       -50.8840  -28.5490  -49.9050 C.3   104  ARG104      0.0348
     55  CG       -50.5510  -30.0080  -49.9120 C.3   104  ARG104      0.0492
     56  CD       -49.1070  -30.2910  -50.2670 C.3   104  ARG104      0.2205
     57  NE       -48.7620  -31.6160  -49.7600 N.pl3 104  ARG104     -0.0865
     58  CZ       -47.5360  -32.0020  -49.4200 C.cat 104  ARG104      0.5346
     59  NH1      -46.5110  -31.1630  -49.5510 N.pl3 104  ARG104      0.1354
     60  NH2      -47.3370  -33.2320  -48.9470 N.pl3 104  ARG104      0.1354
     61  N        -49.3440  -25.6800  -49.5240 N.am  105  ARG105     -0.1963
     62  CA       -49.3790  -24.3780  -50.1780 C.3   105  ARG105      0.1729
     63  C        -49.6210  -24.5840  -51.6700 C.2   105  ARG105      0.2616
     64  O        -49.5360  -25.7110  -52.1710 O.2   105  ARG105     -0.2715
     65  CB       -48.0790  -23.6210  -49.9660 C.3   105  ARG105      0.0348
     66  CG       -47.6600  -23.4420  -48.5390 C.3   105  ARG105      0.0492
     67  CD       -46.3770  -22.6550  -48.5190 C.3   105  ARG105      0.2205
     68  NE       -45.9550  -22.2730  -47.1800 N.pl3 105  ARG105     -0.0865
     69  CZ       -44.9570  -22.8510  -46.5210 C.cat 105  ARG105      0.5346
     70  NH1      -44.2730  -23.8490  -47.0810 N.pl3 105  ARG105      0.1354
     71  NH2      -44.6430  -22.4280  -45.2980 N.pl3 105  ARG105      0.1354
     72  N        -49.9040  -23.4980  -52.3800 N.am  106  ASP106     -0.1971
     73  CA       -50.1160  -23.5650  -53.8220 C.3   106  ASP106      0.1709
     74  C        -48.8940  -24.0710  -54.5760 C.2   106  ASP106      0.2293
     75  O        -49.0370  -24.7880  -55.5660 O.2   106  ASP106     -0.2864
     76  CB       -50.5060  -22.2000  -54.3560 C.3   106  ASP106      0.1436
     77  CG       -51.8430  -21.7370  -53.8260 C.2   106  ASP106      0.3671
     78  OD1      -52.7540  -22.5890  -53.6880 O.co2 106  ASP106     -0.2456
     79  OD2      -51.9770  -20.5230  -53.5450 O.co2 106  ASP106     -0.2456
     80  N        -46.8480  -26.3050  -45.4500 N.3   111  ARG111     -0.1245
     81  CA       -46.8120  -25.3080  -44.3910 C.3   111  ARG111      0.1563
     82  C        -46.9400  -25.9700  -43.0160 C.2   111  ARG111      0.2260
     83  O        -47.8750  -26.7250  -42.7780 O.2   111  ARG111     -0.2867
     84  CB       -47.9260  -24.2890  -44.5900 C.3   111  ARG111      0.0307
     85  CG       -47.9150  -23.1720  -43.5770 C.3   111  ARG111      0.0489
     86  CD       -49.1420  -22.3410  -43.7440 C.3   111  ARG111      0.2205
     87  NE       -49.1230  -21.1440  -42.9190 N.pl3 111  ARG111     -0.0865
     88  CZ       -50.1850  -20.3650  -42.7490 C.cat 111  ARG111      0.5346
     89  NH1      -51.3320  -20.6880  -43.3370 N.pl3 111  ARG111      0.1354
     90  NH2      -50.1120  -19.2820  -41.9890 N.pl3 111  ARG111      0.1354
@<TRIPOS>BOND
     1    75    74    2
     2    74    73    1
     3    76    77    1
     4    76    73    1
     5    77    78   ar
     6    77    79   ar
     7    73    72    1
     8    72    63   am
     9    64    63    2
    10    63    62    1
    11    56    55    1
    12    56    57    1
    13    62    65    1
    14    62    61    1
    15    65    66    1
    16    55    54    1
    17    54    51    1
    18    57    58    2
    19    59    58    1
    20    61    52   am
    21    58    60    1
    22    52    53    2
    23    52    51    1
    24    51    50    1
    25    66    67    1
    26    67    68    1
    27    50    48   am
    28    68    69    2
    29    70    69    1
    30    69    71    1
    31    48    49    2
    32    48    47    1
    33    80    81    1
    34    47    46    1
    35    84    81    1
    36    84    85    1
    37    81    82    1
    38    46    41   am
    39    86    85    1
    40    86    87    1
    41    89    88    1
    42    82    83    2
    43    87    88    2
    44    88    90    1
    45    41    42    2
    46    41    40    1
    47    40    43    1
    48    40    39    1
    49    33    32    2
    50    43    44    1
    51    39    32   am
    52    39    45    1
    53    32    31    1
    54    27    29   ar
    55    27    25   ar
    56    44    45    1
    57    29    28   ar
    58    34    31    1
    59    34    35    1
    60    25    24    1
    61    25    26   ar
    62    24    21    1
    63    31    30    1
    64    28    26   ar
    65    30    22   am
    66    36    35    1
    67    36    37    1
    68    38    37    1
    69    22    21    1
    70    22    23    2
    71    21    20    1
    72     8     6   ar
    73     7     6   ar
    74     6     5    1
    75    15    16    1
    76    15    14    1
    77    16    17    2
    78     5     2    1
    79    18    17    1
    80    17    19    1
    81     2     3    1
    82     2     1    1
    83    13    14    1
    84    13    10    1
    85     3     4    2
    86    11    10    1
    87    11    12    2
    88    10     9    1
