@<TRIPOS>MOLECULE
tmp/4nbeA00.pdb
 132 124 0 0 0
SMALL
GASTEIGER

@<TRIPOS>ATOM
      1  N         38.5210   -3.5390   24.5650 N.3   177  GLY177     -0.1225
      2  CA        39.8500   -3.1840   25.0350 C.3   177  GLY177      0.1811
      3  C         40.8770   -4.3050   25.1630 C.2   177  GLY177      0.2280
      4  O         42.0620   -4.0940   24.8920 O.2   177  GLY177     -0.2866
      5  N         40.6630   -7.1560   23.5020 N.3   179  ASP179     -0.1225
      6  CA        40.5980   -7.8750   22.2250 C.3   179  ASP179      0.1790
      7  C         41.8900   -7.7120   21.4080 C.2   179  ASP179      0.2439
      8  O         42.1360   -6.6490   20.8410 O.2   179  ASP179     -0.2733
      9  CB        39.4200   -7.3260   21.4210 C.3   179  ASP179      0.1423
     10  CG        39.1060   -8.1540   20.2070 C.2   179  ASP179      0.3668
     11  OD1       40.0460   -8.6940   19.5910 O.co2 179  ASP179     -0.2456
     12  OD2       37.9100   -8.2450   19.8600 O.co2 179  ASP179     -0.2456
     13  N         42.7150   -8.7730   21.3140 N.am  180  PRO180     -0.2729
     14  CA        43.9760   -8.7130   20.5630 C.3   180  PRO180      0.1401
     15  C         43.8380   -8.3060   19.0940 C.2   180  PRO180      0.2269
     16  O         44.6930   -7.6000   18.5600 O.2   180  PRO180     -0.2865
     17  CB        44.5330  -10.1320   20.6970 C.3   180  PRO180      0.0296
     18  CG        43.9360  -10.6370   21.9930 C.3   180  PRO180      0.0237
     19  CD        42.5240  -10.1050   21.9210 C.3   180  PRO180      0.0939
     20  N         41.3490   -6.4700   17.7190 N.3   182  HIS182     -0.1226
     21  CA        40.6540   -5.2190   17.4690 C.3   182  HIS182      0.1752
     22  C         41.5960   -4.1060   16.9920 C.2   182  HIS182      0.2595
     23  O         41.1410   -3.1190   16.4210 O.2   182  HIS182     -0.2718
     24  CB        39.8840   -4.7770   18.7220 C.3   182  HIS182      0.0759
     25  CG        40.6200   -3.7870   19.5680 C.ar  182  HIS182      0.0818
     26  ND1       41.6980   -4.1300   20.3530 N.ar  182  HIS182     -0.2268
     27  CD2       40.4600   -2.4500   19.7120 C.ar  182  HIS182      0.1154
     28  CE1       42.1730   -3.0470   20.9430 C.ar  182  HIS182      0.1986
     29  NE2       41.4390   -2.0150   20.5700 N.ar  182  HIS182     -0.2212
     30  N         42.9020   -4.2600   17.2160 N.am  183  ILE183     -0.1980
     31  CA        43.8640   -3.2460   16.7760 C.3   183  ILE183      0.1595
     32  C         43.7040   -2.9170   15.2920 C.2   183  ILE183      0.2287
     33  O         44.2400   -1.9180   14.8050 O.2   183  ILE183     -0.2864
     34  CB        45.3270   -3.6760   17.0220 C.3   183  ILE183      0.0276
     35  CG1       45.5890   -5.0500   16.3970 C.3   183  ILE183      0.0022
     36  CG2       45.6220   -3.6730   18.5190 C.3   183  ILE183      0.0022
     37  CD1       47.0040   -5.5420   16.5990 C.3   183  ILE183      0.0001
     38  N         52.6760   -1.2830   14.6450 N.3   199  LEU199     -0.1245
     39  CA        51.3320   -1.7680   14.9310 C.3   199  LEU199      0.1561
     40  C         50.8790   -2.7250   13.8370 C.2   199  LEU199      0.2260
     41  O         50.5530   -2.3100   12.7300 O.2   199  LEU199     -0.2867
     42  CB        50.3500   -0.5980   15.0330 C.3   199  LEU199      0.0270
     43  CG        48.9870   -0.9400   15.6400 C.3   199  LEU199      0.0019
     44  CD1       49.1540   -1.2960   17.1160 C.3   199  LEU199      0.0001
     45  CD2       48.0510    0.2410   15.4900 C.3   199  LEU199      0.0001
     46  N         53.0600   -1.4250   23.9510 N.3   258  ALA258     -0.1245
     47  CA        51.9520   -2.3160   24.2640 C.3   258  ALA258      0.1562
     48  C         52.3570   -3.7790   24.1830 C.2   258  ALA258      0.2260
     49  O         51.6560   -4.5990   23.5910 O.2   258  ALA258     -0.2867
     50  CB        50.7930   -2.0490   23.3200 C.3   258  ALA258      0.0290
     51  N         49.8090   -6.2430   28.0350 N.3   261  ILE261     -0.1245
     52  CA        48.4040   -5.8700   28.1600 C.3   261  ILE261      0.1561
     53  C         47.6530   -6.8170   29.0880 C.2   261  ILE261      0.2260
     54  O         47.6810   -8.0400   28.9110 O.2   261  ILE261     -0.2867
     55  CB        47.7040   -5.8640   26.7880 C.3   261  ILE261      0.0252
     56  CG1       48.3910   -4.8630   25.8640 C.3   261  ILE261      0.0019
     57  CG2       46.2260   -5.5000   26.9420 C.3   261  ILE261      0.0019
     58  CD1       47.7080   -4.7020   24.5150 C.3   261  ILE261      0.0001
     59  N         41.7580   -1.9590   32.4060 N.3   269  LEU269     -0.1245
     60  CA        42.7950   -2.4090   31.4960 C.3   269  LEU269      0.1561
     61  C         44.0950   -1.6470   31.7140 C.2   269  LEU269      0.2260
     62  O         44.0830   -0.4550   32.0110 O.2   269  LEU269     -0.2867
     63  CB        42.3310   -2.2020   30.0480 C.3   269  LEU269      0.0270
     64  CG        43.2550   -2.7540   28.9640 C.3   269  LEU269      0.0019
     65  CD1       43.0010   -4.2490   28.8190 C.3   269  LEU269      0.0001
     66  CD2       42.9980   -2.0440   27.6340 C.3   269  LEU269      0.0001
     67  N         47.7770   -1.0240   29.7470 N.3   271  VAL271     -0.1245
     68  CA        48.5610   -1.1750   28.5220 C.3   271  VAL271      0.1561
     69  C         49.9380   -0.5990   28.8340 C.2   271  VAL271      0.2260
     70  O         50.0650    0.5920   29.1410 O.2   271  VAL271     -0.2867
     71  CB        47.9120   -0.4040   27.3530 C.3   271  VAL271      0.0252
     72  CG1       48.7620   -0.5260   26.1040 C.3   271  VAL271      0.0019
     73  CG2       46.5110   -0.9570   27.0900 C.3   271  VAL271      0.0019
     74  N         52.5970    2.6120   27.0040 N.3   274  TRP274     -0.1241
     75  CA        51.6950    3.2690   26.0630 C.3   274  TRP274      0.1605
     76  C         51.3380    4.6650   26.5890 C.2   274  TRP274      0.2264
     77  O         51.1500    4.8450   27.7880 O.2   274  TRP274     -0.2867
     78  CB        50.4270    2.4250   25.9100 C.3   274  TRP274      0.0550
     79  CG        49.4600    2.9510   24.9020 C.ar  274  TRP274      0.0003
     80  CD1       48.4720    3.8760   25.1060 C.ar  274  TRP274      0.0946
     81  CD2       49.4180    2.6200   23.5120 C.ar  274  TRP274      0.0152
     82  NE1       47.8190    4.1380   23.9250 N.ar  274  TRP274     -0.2442
     83  CE2       48.3810    3.3810   22.9310 C.ar  274  TRP274      0.0810
     84  CE3       50.1600    1.7520   22.6980 C.ar  274  TRP274      0.0012
     85  CZ2       48.0670    3.3000   21.5720 C.ar  274  TRP274      0.0191
     86  CZ3       49.8470    1.6730   21.3450 C.ar  274  TRP274      0.0001
     87  CH2       48.8080    2.4440   20.7970 C.ar  274  TRP274      0.0015
     88  N         49.1390    3.1930   30.3380 N.3   281  GLN281     -0.1245
     89  CA        47.7530    3.6310   30.2980 C.3   281  GLN281      0.1566
     90  C         46.9010    2.6660   31.1060 C.2   281  GLN281      0.2260
     91  O         47.0270    1.4410   30.9760 O.2   281  GLN281     -0.2867
     92  CB        47.2340    3.7120   28.8550 C.3   281  GLN281      0.0367
     93  CG        45.8340    4.3300   28.7540 C.3   281  GLN281      0.0905
     94  CD        45.4370    4.6970   27.3320 C.2   281  GLN281      0.2608
     95  OE1       46.2440    5.2270   26.5710 O.2   281  GLN281     -0.2717
     96  NE2       44.1800    4.4380   26.9770 N.am  281  GLN281     -0.0878
     97  N         42.8420    2.1210   32.0540 N.3   283  GLU283     -0.1245
     98  CA        41.4930    2.6100   31.7860 C.3   283  GLU283      0.1567
     99  C         40.4100    1.7150   32.3480 C.2   283  GLU283      0.2260
    100  O         40.4310    0.4840   32.1760 O.2   283  GLU283     -0.2867
    101  CB        41.2610    2.8310   30.2910 C.3   283  GLU283      0.0388
    102  CG        41.5620    1.6670   29.3750 C.3   283  GLU283      0.1160
    103  CD        41.3060    2.0480   27.9230 C.2   283  GLU283      0.3649
    104  OE1       41.7030    3.1720   27.5350 O.co2 283  GLU283     -0.2457
    105  OE2       40.7160    1.2400   27.1740 O.co2 283  GLU283     -0.2457
    106  N         43.5450    8.3550   19.4480 N.3   328  PHE328     -0.1227
    107  CA        43.6430    6.9030   19.3140 C.3   328  PHE328      0.1736
    108  C         42.4050    6.1470   19.8240 C.2   328  PHE328      0.2595
    109  O         41.8130    5.3580   19.0950 O.2   328  PHE328     -0.2718
    110  CB        44.8860    6.4020   20.0580 C.3   328  PHE328      0.0547
    111  CG        45.2010    4.9540   19.8160 C.ar  328  PHE328     -0.0202
    112  CD1       45.9080    4.5640   18.6860 C.ar  328  PHE328     -0.0042
    113  CD2       44.7770    3.9790   20.7130 C.ar  328  PHE328     -0.0042
    114  CE1       46.1930    3.2210   18.4480 C.ar  328  PHE328     -0.0003
    115  CE2       45.0520    2.6300   20.4920 C.ar  328  PHE328     -0.0003
    116  CZ        45.7620    2.2480   19.3560 C.ar  328  PHE328     -0.0000
    117  N         42.0070    6.3970   21.0670 N.am  329  ASN329     -0.1974
    118  CA        40.8600    5.6960   21.6540 C.3   329  ASN329      0.1688
    119  C         39.4560    6.0870   21.1630 C.2   329  ASN329      0.2292
    120  O         38.4870    5.3820   21.4510 O.2   329  ASN329     -0.2864
    121  CB        40.9230    5.7970   23.1790 C.3   329  ASN329      0.1181
    122  CG        42.1650    5.1300   23.7550 C.2   329  ASN329      0.2629
    123  OD1       42.9740    5.7730   24.4190 O.2   329  ASN329     -0.2716
    124  ND2       42.3210    3.8300   23.4970 N.am  329  ASN329     -0.0877
    125  N         37.8190    3.3650   19.4890 N.3   332  ASP332     -0.1239
    126  CA        37.3220    2.3230   20.3840 C.3   332  ASP332      0.1674
    127  C         35.8930    2.6300   20.7860 C.2   332  ASP332      0.2266
    128  O         35.0710    1.7230   20.9390 O.2   332  ASP332     -0.2867
    129  CB        38.1860    2.2390   21.6480 C.3   332  ASP332      0.1410
    130  CG        39.5490    1.6760   21.3720 C.2   332  ASP332      0.3668
    131  OD1       39.6100    0.5820   20.7810 O.co2 332  ASP332     -0.2456
    132  OD2       40.5560    2.3180   21.7380 O.co2 332  ASP332     -0.2456
@<TRIPOS>BOND
     1    41    40    2
     2    40    39    1
     3    38    39    1
     4    33    32    2
     5    39    42    1
     6    42    43    1
     7    32    31    1
     8    45    43    1
     9    43    44    1
    10    35    37    1
    11    35    34    1
    12    23    22    2
    13    31    34    1
    14    31    30    1
    15    22    30   am
    16    22    21    1
    17    34    36    1
    18    21    20    1
    19    21    24    1
    20   114   112   ar
    21   114   116   ar
    22    16    15    2
    23   112   111   ar
    24    24    25    1
    25    15    14    1
    26   109   108    2
    27   107   106    1
    28   107   108    1
    29   107   110    1
    30   116   115   ar
    31   125   126    1
    32    25    27   ar
    33    25    26   ar
    34    11    10   ar
    35    27    29   ar
    36   111   110    1
    37   111   113   ar
    38   108   117   am
    39    12    10   ar
    40    10     9    1
    41    26    28   ar
    42   126   127    1
    43   126   129    1
    44   115   113   ar
    45    14    17    1
    46    14    13    1
    47    29    28   ar
    48    17    18    1
    49   131   130   ar
    50   127   128    2
    51    87    86   ar
    52    87    85   ar
    53     8     7    2
    54   117   118    1
    55   119   120    2
    56   119   118    1
    57    13     7   am
    58    13    19    1
    59    86    84   ar
    60   130   129    1
    61   130   132   ar
    62     7     6    1
    63     9     6    1
    64    85    83   ar
    65   118   121    1
    66    19    18    1
    67     6     5    1
    68    84    81   ar
    69    83    81   ar
    70    83    82   ar
    71   121   122    1
    72    50    47    1
    73   124   122   am
    74    81    79   ar
    75    49    48    2
    76   122   123    2
    77    82    80   ar
    78    46    47    1
    79    48    47    1
    80    58    56    1
    81     1     2    1
    82     4     3    2
    83    79    80   ar
    84    79    78    1
    85     2     3    1
    86    56    55    1
    87    78    75    1
    88    75    76    1
    89    75    74    1
    90    72    71    1
    91    95    94    2
    92    76    77    2
    93    55    57    1
    94    55    52    1
    95    96    94   am
    96    73    71    1
    97   105   103   ar
    98    94    93    1
    99    71    68    1
   100   104   103   ar
   101    66    64    1
   102   103   102    1
   103    51    52    1
   104    52    53    1
   105    68    69    1
   106    68    67    1
   107    93    92    1
   108    65    64    1
   109    69    70    2
   110    92    89    1
   111    54    53    2
   112    64    63    1
   113   102   101    1
   114    63    60    1
   115   101    98    1
   116    89    88    1
   117    89    90    1
   118    91    90    2
   119    60    61    1
   120    60    59    1
   121    61    62    2
   122    98    97    1
   123    98    99    1
   124   100    99    2
