@<TRIPOS>MOLECULE
tmp/4nbhB00.pdb
 153 145 0 0 0
SMALL
GASTEIGER

@<TRIPOS>ATOM
      1  N         -1.7360   -0.0250   -0.2760 N.3   177  GLY177     -0.1225
      2  CA        -1.7130   -0.0370   -1.7240 C.3   177  GLY177      0.1811
      3  C         -2.7960   -0.8820   -2.3770 C.2   177  GLY177      0.2280
      4  O         -3.4040   -0.4540   -3.3580 O.2   177  GLY177     -0.2866
      5  N         -5.6290   -1.7120   -1.0750 N.3   179  ASP179     -0.1225
      6  CA        -6.9160   -1.2890   -0.5350 C.3   179  ASP179      0.1790
      7  C         -7.7580   -0.5860   -1.6090 C.2   179  ASP179      0.2439
      8  O         -7.3800    0.4730   -2.1090 O.2   179  ASP179     -0.2733
      9  CB        -6.6600   -0.3300    0.6300 C.3   179  ASP179      0.1423
     10  CG        -7.8900   -0.0670    1.4510 C.2   179  ASP179      0.3668
     11  OD1       -8.9460    0.2240    0.8560 O.co2 179  ASP179     -0.2456
     12  OD2       -7.7950   -0.1440    2.6970 O.co2 179  ASP179     -0.2456
     13  N         -8.9200   -1.1580   -1.9640 N.am  180  PRO180     -0.2729
     14  CA        -9.8150   -0.5870   -2.9830 C.3   180  PRO180      0.1401
     15  C        -10.4460    0.7460   -2.5780 C.2   180  PRO180      0.2269
     16  O        -10.6240    1.6430   -3.4070 O.2   180  PRO180     -0.2865
     17  CB       -10.8860   -1.6680   -3.1590 C.3   180  PRO180      0.0296
     18  CG       -10.2110   -2.9280   -2.6720 C.3   180  PRO180      0.0237
     19  CD        -9.4440   -2.4430   -1.4760 C.3   180  PRO180      0.0939
     20  N         -9.2220    2.9780   -0.2230 N.3   182  HIS182     -0.1226
     21  CA        -8.3360    4.0500    0.2320 C.3   182  HIS182      0.1752
     22  C         -8.2160    5.1310   -0.8320 C.2   182  HIS182      0.2595
     23  O         -7.6520    6.2010   -0.5960 O.2   182  HIS182     -0.2718
     24  CB        -6.9470    3.5110    0.5920 C.3   182  HIS182      0.0759
     25  CG        -5.9740    3.5210   -0.5440 C.ar  182  HIS182      0.0818
     26  ND1       -6.0310    2.6200   -1.5850 N.ar  182  HIS182     -0.2268
     27  CD2       -4.9260    4.3360   -0.8080 C.ar  182  HIS182      0.1154
     28  CE1       -5.0590    2.8780   -2.4420 C.ar  182  HIS182      0.1986
     29  NE2       -4.3740    3.9160   -1.9940 N.ar  182  HIS182     -0.2212
     30  N         -8.7580    4.8350   -2.0060 N.am  183  ILE183     -0.1980
     31  CA        -8.7480    5.7610   -3.1330 C.3   183  ILE183      0.1595
     32  C         -9.2790    7.1380   -2.6910 C.2   183  ILE183      0.2287
     33  O         -8.9830    8.1590   -3.3030 O.2   183  ILE183     -0.2864
     34  CB        -9.6080    5.1770   -4.2850 C.3   183  ILE183      0.0276
     35  CG1       -9.4950    6.0430   -5.5310 C.3   183  ILE183      0.0022
     36  CG2      -11.0560    5.0480   -3.8470 C.3   183  ILE183      0.0022
     37  CD1      -10.2870    5.4890   -6.7090 C.3   183  ILE183      0.0001
     38  N         -7.0150   10.1240   -2.1700 N.3   186  HIS186     -0.1241
     39  CA        -6.4460   10.7080   -3.3720 C.3   186  HIS186      0.1621
     40  C         -7.3710   11.6780   -4.1060 C.2   186  HIS186      0.2264
     41  O         -6.9850   12.2410   -5.1300 O.2   186  HIS186     -0.2867
     42  CB        -6.0210    9.5900   -4.3260 C.3   186  HIS186      0.0745
     43  CG        -4.9090    8.7350   -3.7990 C.ar  186  HIS186      0.0817
     44  ND1       -3.6930    9.2540   -3.4090 N.ar  186  HIS186     -0.2268
     45  CD2       -4.8160    7.3940   -3.6320 C.ar  186  HIS186      0.1154
     46  CE1       -2.8980    8.2700   -3.0270 C.ar  186  HIS186      0.1986
     47  NE2       -3.5560    7.1320   -3.1540 N.ar  186  HIS186     -0.2212
     48  N        -11.8160    9.3230  -11.4630 N.3   199  LEU199     -0.1245
     49  CA       -11.5140    8.6350  -10.2130 C.3   199  LEU199      0.1561
     50  C        -12.6560    8.7130   -9.2150 C.2   199  LEU199      0.2260
     51  O        -12.9640    9.7850   -8.6970 O.2   199  LEU199     -0.2867
     52  CB       -10.2610    9.2410   -9.5810 C.3   199  LEU199      0.0270
     53  CG        -9.5850    8.4330   -8.4760 C.3   199  LEU199      0.0019
     54  CD1       -8.8670    7.2520   -9.1100 C.3   199  LEU199      0.0001
     55  CD2       -8.5930    9.3090   -7.7160 C.3   199  LEU199      0.0001
     56  N        -16.2950    2.2550   -3.8390 N.3   203  PHE203     -0.1241
     57  CA       -16.9610    1.2010   -4.6040 C.3   203  PHE203      0.1605
     58  C        -18.0150    0.4570   -3.7920 C.2   203  PHE203      0.2264
     59  O        -17.7740    0.0870   -2.6460 O.2   203  PHE203     -0.2867
     60  CB       -15.9340    0.1720   -5.0850 C.3   203  PHE203      0.0534
     61  CG       -14.9370    0.7130   -6.0610 C.ar  203  PHE203     -0.0203
     62  CD1      -15.2930    0.9340   -7.3900 C.ar  203  PHE203     -0.0042
     63  CD2      -13.6390    1.0050   -5.6560 C.ar  203  PHE203     -0.0042
     64  CE1      -14.3660    1.4390   -8.3050 C.ar  203  PHE203     -0.0003
     65  CE2      -12.7050    1.5100   -6.5580 C.ar  203  PHE203     -0.0003
     66  CZ       -13.0690    1.7280   -7.8880 C.ar  203  PHE203     -0.0000
     67  N         -6.2660    2.5990  -13.7820 N.3   258  ALA258     -0.1245
     68  CA        -6.4250    1.5590  -12.7770 C.3   258  ALA258      0.1562
     69  C         -7.5560    0.5960  -13.1140 C.2   258  ALA258      0.2260
     70  O         -8.4530    0.3780  -12.2990 O.2   258  ALA258     -0.2867
     71  CB        -6.6730    2.1940  -11.4180 C.3   258  ALA258      0.0290
     72  N         -5.9480   -3.9810  -10.5570 N.3   261  ILE261     -0.1245
     73  CA        -4.9500   -3.8430   -9.5160 C.3   261  ILE261      0.1561
     74  C         -4.6380   -5.2340   -8.9860 C.2   261  ILE261      0.2260
     75  O         -5.5400   -6.0440   -8.7820 O.2   261  ILE261     -0.2867
     76  CB        -5.4900   -2.9650   -8.3810 C.3   261  ILE261      0.0252
     77  CG1       -5.9680   -1.6340   -8.9590 C.3   261  ILE261      0.0019
     78  CG2       -4.4160   -2.7190   -7.3450 C.3   261  ILE261      0.0019
     79  CD1       -6.7810   -0.8160   -7.9980 C.3   261  ILE261      0.0001
     80  N          2.9100   -4.2770   -5.7960 N.3   269  LEU269     -0.1245
     81  CA         1.6290   -3.9440   -6.3980 C.3   269  LEU269      0.1561
     82  C          1.7540   -3.5450   -7.8630 C.2   269  LEU269      0.2260
     83  O          2.7310   -2.9140   -8.2610 O.2   269  LEU269     -0.2867
     84  CB         0.9900   -2.7840   -5.6310 C.3   269  LEU269      0.0270
     85  CG        -0.3930   -2.3020   -6.0690 C.3   269  LEU269      0.0019
     86  CD1       -1.4510   -3.2390   -5.5130 C.3   269  LEU269      0.0001
     87  CD2       -0.6380   -0.8890   -5.5500 C.3   269  LEU269      0.0001
     88  N         -0.4980   -1.6210  -10.8850 N.3   271  VAL271     -0.1245
     89  CA        -1.6880   -0.8370  -11.2020 C.3   271  VAL271      0.1561
     90  C         -1.6760   -0.6050  -12.7090 C.2   271  VAL271      0.2260
     91  O         -0.7560    0.0200  -13.2430 O.2   271  VAL271     -0.2867
     92  CB        -1.6830    0.5250  -10.4630 C.3   271  VAL271      0.0252
     93  CG1       -2.9830    1.2740  -10.7300 C.3   271  VAL271      0.0019
     94  CG2       -1.5080    0.3000   -8.9730 C.3   271  VAL271      0.0019
     95  N         -1.7690    3.0260  -15.4310 N.3   274  PHE274     -0.1241
     96  CA        -1.5710    4.1360  -14.4990 C.3   274  PHE274      0.1605
     97  C         -0.1500    4.6760  -14.6540 C.2   274  PHE274      0.2264
     98  O          0.7760    3.9110  -14.9240 O.2   274  PHE274     -0.2867
     99  CB        -1.8030    3.6300  -13.0670 C.3   274  PHE274      0.0534
    100  CG        -1.8610    4.7170  -12.0310 C.ar  274  PHE274     -0.0203
    101  CD1       -0.6970    5.2270  -11.4680 C.ar  274  PHE274     -0.0042
    102  CD2       -3.0880    5.2410  -11.6260 C.ar  274  PHE274     -0.0042
    103  CE1       -0.7510    6.2450  -10.5160 C.ar  274  PHE274     -0.0003
    104  CE2       -3.1530    6.2560  -10.6770 C.ar  274  PHE274     -0.0003
    105  CZ        -1.9800    6.7590  -10.1210 C.ar  274  PHE274     -0.0000
    106  N          2.1150    0.8410  -13.8140 N.3   281  TYR281     -0.1241
    107  CA         2.7560    1.2000  -12.5540 C.3   281  TYR281      0.1605
    108  C          3.0280   -0.0090  -11.6490 C.2   281  TYR281      0.2264
    109  O          2.1730   -0.8860  -11.4850 O.2   281  TYR281     -0.2867
    110  CB         1.8860    2.2190  -11.8120 C.3   281  TYR281      0.0534
    111  CG         2.5100    2.7450  -10.5420 C.ar  281  TYR281     -0.0201
    112  CD1        3.7260    3.4280  -10.5700 C.ar  281  TYR281     -0.0009
    113  CD2        1.8990    2.5400   -9.3090 C.ar  281  TYR281     -0.0009
    114  CE1        4.3200    3.8890   -9.3960 C.ar  281  TYR281      0.0417
    115  CE2        2.4820    2.9950   -8.1330 C.ar  281  TYR281      0.0417
    116  CZ         3.6930    3.6680   -8.1830 C.ar  281  TYR281      0.1957
    117  OH         4.2770    4.1140   -7.0190 O.3   281  TYR281     -0.2866
    118  N          4.9000   -0.9260   -7.7430 N.3   283  GLU283     -0.1245
    119  CA         5.5480   -0.4230   -6.5330 C.3   283  GLU283      0.1567
    120  C          5.7950   -1.5240   -5.5050 C.2   283  GLU283      0.2260
    121  O          4.9220   -2.3460   -5.2300 O.2   283  GLU283     -0.2867
    122  CB         4.7550    0.7410   -5.9010 C.3   283  GLU283      0.0388
    123  CG         3.3000    0.4720   -5.5430 C.3   283  GLU283      0.1160
    124  CD         2.6530    1.6540   -4.8130 C.2   283  GLU283      0.3649
    125  OE1        2.9610    2.8160   -5.1520 O.co2 283  GLU283     -0.2457
    126  OE2        1.8310    1.4240   -3.9060 O.co2 283  GLU283     -0.2457
    127  N          0.7510   12.2400   -6.2270 N.3   328  PHE328     -0.1227
    128  CA        -0.3280   11.2950   -5.9600 C.3   328  PHE328      0.1736
    129  C         -0.0110   10.3650   -4.7900 C.2   328  PHE328      0.2595
    130  O         -0.7880   10.2590   -3.8410 O.2   328  PHE328     -0.2718
    131  CB        -0.5900   10.4560   -7.2110 C.3   328  PHE328      0.0547
    132  CG        -1.7880    9.5530   -7.1070 C.ar  328  PHE328     -0.0202
    133  CD1       -3.0680   10.0460   -7.3310 C.ar  328  PHE328     -0.0042
    134  CD2       -1.6350    8.2020   -6.8070 C.ar  328  PHE328     -0.0042
    135  CE1       -4.1760    9.2090   -7.2620 C.ar  328  PHE328     -0.0003
    136  CE2       -2.7400    7.3550   -6.7330 C.ar  328  PHE328     -0.0003
    137  CZ        -4.0120    7.8600   -6.9620 C.ar  328  PHE328     -0.0000
    138  N          1.1380    9.7000   -4.8640 N.am  329  ASN329     -0.1974
    139  CA         1.5500    8.7380   -3.8440 C.3   329  ASN329      0.1688
    140  C          2.0230    9.2830   -2.4990 C.2   329  ASN329      0.2292
    141  O          2.0670    8.5410   -1.5200 O.2   329  ASN329     -0.2864
    142  CB         2.6260    7.8150   -4.4210 C.3   329  ASN329      0.1181
    143  CG         2.0860    6.8970   -5.5080 C.2   329  ASN329      0.2629
    144  OD1        2.7150    6.7110   -6.5450 O.2   329  ASN329     -0.2716
    145  ND2        0.9220    6.3080   -5.2620 N.am  329  ASN329     -0.0877
    146  N         -0.0650    8.4970    0.3060 N.3   332  ASP332     -0.1239
    147  CA        -0.0260    7.1040    0.7390 C.3   332  ASP332      0.1674
    148  C          1.0010    6.9480    1.8580 C.2   332  ASP332      0.2266
    149  O          0.8460    6.1040    2.7430 O.2   332  ASP332     -0.2867
    150  CB         0.3490    6.1810   -0.4230 C.3   332  ASP332      0.1410
    151  CG        -0.7610    6.0520   -1.4510 C.2   332  ASP332      0.3668
    152  OD1       -1.8640    5.6120   -1.0790 O.co2 332  ASP332     -0.2456
    153  OD2       -0.5300    6.3890   -2.6300 O.co2 332  ASP332     -0.2456
@<TRIPOS>BOND
     1    95    96    1
     2    98    97    2
     3    97    96    1
     4    96    99    1
     5   106   107    1
     6    67    68    1
     7    91    90    2
     8    69    68    1
     9    69    70    2
    10    99   100    1
    11    68    71    1
    12    90    89    1
    13   107   110    1
    14   107   108    1
    15   100   102   ar
    16   100   101   ar
    17   110   111    1
    18   108   109    2
    19   102   104   ar
    20   101   103   ar
    21    48    49    1
    22    89    88    1
    23    89    92    1
    24    93    92    1
    25   104   105   ar
    26   112   111   ar
    27   112   114   ar
    28    72    73    1
    29   111   113   ar
    30   103   105   ar
    31    92    94    1
    32    49    52    1
    33    49    50    1
    34    52    53    1
    35    73    74    1
    36    73    76    1
    37   114   116   ar
    38   113   115   ar
    39    50    51    2
    40    54    53    1
    41    74    75    2
    42    77    76    1
    43    77    79    1
    44    53    55    1
    45    76    78    1
    46    64    66   ar
    47    64    62   ar
    48    83    82    2
    49   116   115   ar
    50   116   117    1
    51    66    65   ar
    52    82    81    1
    53   118   119    1
    54    62    61   ar
    55   133   135   ar
    56   133   132   ar
    57   135   137   ar
    58   131   132    1
    59   131   128    1
    60   132   134   ar
    61   137   136   ar
    62   134   136   ar
    63    37    35    1
    64    65    63   ar
    65   144   143    2
    66   119   122    1
    67   119   120    1
    68    81    80    1
    69    81    84    1
    70   127   128    1
    71    85    84    1
    72    85    87    1
    73    85    86    1
    74    61    63   ar
    75    61    60    1
    76   128   129    1
    77   122   123    1
    78   123   124    1
    79    35    34    1
    80   143   145   am
    81   143   142    1
    82   120   121    2
    83   125   124   ar
    84    41    40    2
    85    60    57    1
    86   138   129   am
    87   138   139    1
    88   124   126   ar
    89   129   130    2
    90    57    56    1
    91    57    58    1
    92   142   139    1
    93    42    43    1
    94    42    39    1
    95    34    36    1
    96    34    31    1
    97    40    39    1
    98   139   140    1
    99    43    45   ar
   100    43    44   ar
   101    58    59    2
   102    45    47   ar
   103    44    46   ar
   104    16    15    2
   105    39    38    1
   106     4     3    2
   107    33    32    2
   108    17    14    1
   109    17    18    1
   110    47    46   ar
   111    31    32    1
   112    31    30    1
   113    14    15    1
   114    14    13    1
   115    18    19    1
   116   153   151   ar
   117   140   141    2
   118    28    29   ar
   119    28    26   ar
   120     3     2    1
   121     8     7    2
   122    30    22   am
   123    29    27   ar
   124    13     7   am
   125    13    19    1
   126     2     1    1
   127     7     6    1
   128    26    25   ar
   129   151   152   ar
   130   151   150    1
   131     5     6    1
   132    22    23    2
   133    22    21    1
   134    27    25   ar
   135    25    24    1
   136     6     9    1
   137   150   147    1
   138    20    21    1
   139    21    24    1
   140   146   147    1
   141     9    10    1
   142   147   148    1
   143    11    10   ar
   144    10    12   ar
   145   148   149    2
