@<TRIPOS>MOLECULE
tmp/4nbiA00.pdb
 134 132 0 0 0
SMALL
GASTEIGER

@<TRIPOS>ATOM
      1  N        -25.2960    7.7110  -19.6260 N.3    41  LEU41      -0.1231
      2  CA       -25.8240    9.0400  -19.3410 C.3    41  LEU41       0.1693
      3  C        -27.2830    9.2230  -19.7370 C.2    41  LEU41       0.2593
      4  O        -27.6520    8.9850  -20.8890 O.2    41  LEU41      -0.2718
      5  CB       -24.9620   10.0700  -20.0590 C.3    41  LEU41       0.0284
      6  CG       -25.2760   11.5540  -19.9100 C.3    41  LEU41       0.0019
      7  CD1      -25.0280   12.0130  -18.4850 C.3    41  LEU41       0.0001
      8  CD2      -24.3770   12.2960  -20.8900 C.3    41  LEU41       0.0001
      9  N        -28.0900    9.6740  -18.7750 N.am   42  GLY42      -0.1942
     10  CA       -29.5210    9.8630  -18.9770 C.3    42  GLY42       0.2014
     11  C        -29.8960   11.3190  -18.7850 C.2    42  GLY42       0.2638
     12  O        -29.5900   11.9080  -17.7510 O.2    42  GLY42      -0.2714
     13  N        -30.5470   11.9060  -19.7860 N.am   43  ILE43      -0.1977
     14  CA       -30.9600   13.3170  -19.7180 C.3    43  ILE43       0.1596
     15  C        -32.4310   13.4310  -19.2990 C.2    43  ILE43       0.2287
     16  O        -33.3130   12.8560  -19.9420 O.2    43  ILE43      -0.2864
     17  CB       -30.6910   14.0450  -21.0560 C.3    43  ILE43       0.0276
     18  CG1      -29.2090   13.9070  -21.4240 C.3    43  ILE43       0.0022
     19  CG2      -31.0820   15.5180  -20.9590 C.3    43  ILE43       0.0022
     20  CD1      -28.8760   14.2570  -22.8550 C.3    43  ILE43       0.0001
     21  N        -25.3540    7.1420  -24.3430 N.3    87  SER87      -0.1202
     22  CA       -26.6790    7.6510  -24.0250 C.3    87  SER87       0.2020
     23  C        -27.5810    6.5120  -23.5550 C.2    87  SER87       0.2619
     24  O        -27.5890    5.4290  -24.1490 O.2    87  SER87      -0.2717
     25  CB       -27.2920    8.3820  -25.2220 C.3    87  SER87       0.2103
     26  OG       -27.3120    7.5610  -26.3770 O.3    87  SER87      -0.2182
     27  N        -28.3190    6.7610  -22.4760 N.am   88  GLN88      -0.1965
     28  CA       -29.0750    5.7180  -21.7910 C.3    88  GLN88       0.1733
     29  C        -30.3460    6.2900  -21.1460 C.2    88  GLN88       0.2616
     30  O        -30.3090    6.7860  -20.0190 O.2    88  GLN88      -0.2715
     31  CB       -28.1750    5.0570  -20.7360 C.3    88  GLN88       0.0408
     32  CG       -28.7630    3.8380  -20.0400 C.3    88  GLN88       0.0908
     33  CD       -28.6340    2.5540  -20.8520 C.2    88  GLN88       0.2608
     34  OE1      -27.9590    1.6190  -20.4370 O.2    88  GLN88      -0.2717
     35  NE2      -29.2960    2.5020  -22.0070 N.am   88  GLN88      -0.0878
     36  N        -31.4730    6.2040  -21.8460 N.am   89  PHE89      -0.1960
     37  CA       -32.7200    6.7410  -21.2920 C.3    89  PHE89       0.1771
     38  C        -33.3290    5.8260  -20.2160 C.2    89  PHE89       0.2620
     39  O        -34.2080    6.2410  -19.4580 O.2    89  PHE89      -0.2715
     40  CB       -33.7110    7.1430  -22.4090 C.3    89  PHE89       0.0574
     41  CG       -34.7630    6.1090  -22.7320 C.ar   89  PHE89      -0.0200
     42  CD1      -36.1030    6.4710  -22.7740 C.ar   89  PHE89      -0.0042
     43  CD2      -34.4240    4.7910  -23.0210 C.ar   89  PHE89      -0.0042
     44  CE1      -37.0880    5.5380  -23.0820 C.ar   89  PHE89      -0.0003
     45  CE2      -35.4050    3.8520  -23.3150 C.ar   89  PHE89      -0.0003
     46  CZ       -36.7350    4.2260  -23.3500 C.ar   89  PHE89      -0.0000
     47  N        -32.8230    4.5930  -20.1310 N.am   90  THR90      -0.1951
     48  CA       -33.3520    3.6010  -19.1810 C.3    90  THR90       0.1897
     49  C        -33.0720    3.9390  -17.7110 C.2    90  THR90       0.2313
     50  O        -33.7350    3.4150  -16.8200 O.2    90  THR90      -0.2863
     51  CB       -32.8540    2.1720  -19.4850 C.3    90  THR90       0.1794
     52  OG1      -31.4270    2.1350  -19.4020 O.3    90  THR90      -0.2208
     53  CG2      -33.2810    1.7350  -20.8890 C.3    90  THR90       0.0378
     54  N        -37.6130   10.8340  -18.8720 N.3   106  ALA106     -0.1231
     55  CA       -36.5350   11.0350  -19.8380 C.3   106  ALA106      0.1694
     56  C        -36.8730   12.2040  -20.7460 C.2   106  ALA106      0.2591
     57  O        -38.0260   12.3620  -21.1700 O.2   106  ALA106     -0.2718
     58  CB       -36.2810    9.7720  -20.6520 C.3   106  ALA106      0.0304
     59  N        -35.8760   13.0430  -21.0170 N.am  107  LYS107     -0.1980
     60  CA       -36.0610   14.1350  -21.9600 C.3   107  LYS107      0.1596
     61  C        -36.4030   13.5870  -23.3430 C.2   107  LYS107      0.2287
     62  O        -35.8260   12.6060  -23.8060 O.2   107  LYS107     -0.2864
     63  CB       -34.8230   15.0330  -22.0300 C.3   107  LYS107      0.0298
     64  CG       -34.9560   16.1900  -23.0130 C.3   107  LYS107      0.0038
     65  CD       -33.8100   17.1810  -22.8740 C.3   107  LYS107      0.0206
     66  CE       -34.0300   18.1370  -21.7090 C.3   107  LYS107      0.1093
     67  NZ       -35.1440   19.0830  -22.0040 N.3   107  LYS107     -0.1314
     68  N        -36.5590   12.8700  -27.1940 N.3   109  PRO109     -0.2116
     69  CA       -35.3880   12.4770  -28.0120 C.3   109  PRO109      0.1372
     70  C        -34.6900   13.5600  -28.8580 C.2   109  PRO109      0.2244
     71  O        -33.4590   13.5850  -28.9010 O.2   109  PRO109     -0.2868
     72  CB       -35.9300   11.3470  -28.9050 C.3   109  PRO109      0.0268
     73  CG       -37.4210   11.4030  -28.7700 C.3   109  PRO109      0.0207
     74  CD       -37.6820   11.9360  -27.3990 C.3   109  PRO109      0.0892
     75  N        -32.9740   15.8470  -26.4320 N.3   112  ALA112     -0.1245
     76  CA       -31.9800   15.0320  -25.7320 C.3   112  ALA112      0.1562
     77  C        -30.7390   14.8020  -26.5940 C.2   112  ALA112      0.2260
     78  O        -29.6180   14.8490  -26.0830 O.2   112  ALA112     -0.2867
     79  CB       -32.5760   13.7100  -25.2690 C.3   112  ALA112      0.0290
     80  N        -27.1420   15.8640  -25.6230 N.3   116  TYR116     -0.1241
     81  CA       -26.0920   14.8530  -25.6210 C.3   116  TYR116      0.1605
     82  C        -24.8550   15.2940  -26.4090 C.2   116  TYR116      0.2264
     83  O        -23.7220   15.1560  -25.9340 O.2   116  TYR116     -0.2867
     84  CB       -26.6360   13.5300  -26.1710 C.3   116  TYR116      0.0534
     85  CG       -25.6430   12.4010  -26.1290 C.ar  116  TYR116     -0.0201
     86  CD1      -25.0210   11.9450  -27.2930 C.ar  116  TYR116     -0.0009
     87  CD2      -25.3190   11.7890  -24.9200 C.ar  116  TYR116     -0.0009
     88  CE1      -24.1030   10.9030  -27.2470 C.ar  116  TYR116      0.0417
     89  CE2      -24.4020   10.7580  -24.8650 C.ar  116  TYR116      0.0417
     90  CZ       -23.8030   10.3160  -26.0220 C.ar  116  TYR116      0.1957
     91  OH       -22.8990    9.2840  -25.9390 O.3   116  TYR116     -0.2866
     92  N        -26.4110    7.6720  -30.4990 N.3   137  PHE137     -0.1227
     93  CA       -27.6530    8.0430  -29.8400 C.3   137  PHE137      0.1736
     94  C        -28.8350    7.5000  -30.6360 C.2   137  PHE137      0.2596
     95  O        -28.9020    7.6720  -31.8550 O.2   137  PHE137     -0.2718
     96  CB       -27.7250    9.5670  -29.7430 C.3   137  PHE137      0.0547
     97  CG       -28.9050   10.0920  -28.9740 C.ar  137  PHE137     -0.0202
     98  CD1      -28.7420   10.5680  -27.6780 C.ar  137  PHE137     -0.0042
     99  CD2      -30.1730   10.1620  -29.5560 C.ar  137  PHE137     -0.0042
    100  CE1      -29.8220   11.0800  -26.9690 C.ar  137  PHE137     -0.0003
    101  CE2      -31.2550   10.6630  -28.8520 C.ar  137  PHE137     -0.0003
    102  CZ       -31.0800   11.1330  -27.5600 C.ar  137  PHE137     -0.0000
    103  N        -29.7510    6.8300  -29.9500 N.am  138  GLY138     -0.1942
    104  CA       -30.9850    6.3730  -30.5870 C.3   138  GLY138      0.2014
    105  C        -30.9210    4.9980  -31.2250 C.2   138  GLY138      0.2639
    106  O        -31.9220    4.5270  -31.7710 O.2   138  GLY138     -0.2714
    107  N        -29.7550    4.3560  -31.1660 N.am  139  ASN139     -0.1958
    108  CA       -29.5710    3.0360  -31.7740 C.3   139  ASN139      0.1819
    109  C        -29.3130    1.9380  -30.7450 C.2   139  ASN139      0.2621
    110  O        -28.6990    2.1860  -29.7000 O.2   139  ASN139     -0.2715
    111  CB       -28.4210    3.0570  -32.8000 C.3   139  ASN139      0.1195
    112  CG       -28.8610    3.5050  -34.1960 C.2   139  ASN139      0.2630
    113  OD1      -28.3220    3.0430  -35.2040 O.2   139  ASN139     -0.2716
    114  ND2      -29.8290    4.4000  -34.2610 N.am  139  ASN139     -0.0877
    115  N        -29.7820    0.7250  -31.0490 N.am  140  TYR140     -0.1960
    116  CA       -29.4020   -0.4540  -30.2770 C.3   140  TYR140      0.1771
    117  C        -27.8880   -0.6120  -30.3210 C.2   140  TYR140      0.2619
    118  O        -27.2760   -0.4930  -31.3890 O.2   140  TYR140     -0.2715
    119  CB       -30.0820   -1.7230  -30.8160 C.3   140  TYR140      0.0574
    120  CG       -29.5880   -2.9850  -30.1440 C.ar  140  TYR140     -0.0198
    121  CD1      -30.2020   -3.4700  -28.9880 C.ar  140  TYR140     -0.0009
    122  CD2      -28.4870   -3.6860  -30.6550 C.ar  140  TYR140     -0.0009
    123  CE1      -29.7410   -4.6140  -28.3620 C.ar  140  TYR140      0.0417
    124  CE2      -28.0170   -4.8320  -30.0350 C.ar  140  TYR140      0.0417
    125  CZ       -28.6530   -5.2940  -28.8940 C.ar  140  TYR140      0.1957
    126  OH       -28.1820   -6.4330  -28.2770 O.3   140  TYR140     -0.2866
    127  N        -27.2920   -0.8730  -29.1600 N.am  141  MET141     -0.1977
    128  CA       -25.8460   -1.0510  -29.0580 C.3   141  MET141      0.1605
    129  C        -25.4630   -2.2860  -28.2710 C.2   141  MET141      0.2287
    130  O        -26.2020   -2.7490  -27.4000 O.2   141  MET141     -0.2864
    131  CB       -25.1910    0.1750  -28.4150 C.3   141  MET141      0.0413
    132  CG       -25.2870    1.4540  -29.2440 C.3   141  MET141      0.0598
    133  SD       -24.6930    2.8890  -28.3130 S.3   141  MET141     -0.1393
    134  CE       -26.2050    3.5350  -27.6010 C.3   141  MET141      0.0692
@<TRIPOS>BOND
     1   113   112    2
     2   114   112   am
     3   112   111    1
     4   111   108    1
     5    95    94    2
     6   108   107    1
     7   108   109    1
     8   106   105    2
     9   118   117    2
    10   105   107   am
    11   105   104    1
    12   115   109   am
    13   115   116    1
    14   119   116    1
    15   119   120    1
    16   109   110    2
    17   122   120   ar
    18   122   124   ar
    19    94   103   am
    20    94    93    1
    21   104   103    1
    22    92    93    1
    23   117   116    1
    24   117   127   am
    25   120   121   ar
    26   124   125   ar
    27    93    96    1
    28    96    97    1
    29    99    97   ar
    30    99   101   ar
    31   132   131    1
    32   132   133    1
    33   127   128    1
    34   128   131    1
    35   128   129    1
    36   121   123   ar
    37    97    98   ar
    38    72    73    1
    39    72    69    1
    40    71    70    2
    41   125   123   ar
    42   125   126    1
    43    70    69    1
    44   101   102   ar
    45    73    74    1
    46   133   134    1
    47   129   130    2
    48    69    68    1
    49    98   100   ar
    50   102   100   ar
    51    74    68    1
    52    86    88   ar
    53    86    85   ar
    54    88    90   ar
    55    77    78    2
    56    77    76    1
    57    75    76    1
    58    82    83    2
    59    82    81    1
    60    26    25    1
    61    84    85    1
    62    84    81    1
    63    85    87   ar
    64    90    91    1
    65    90    89   ar
    66    76    79    1
    67    80    81    1
    68    25    22    1
    69    87    89   ar
    70    21    22    1
    71    24    23    2
    72    22    23    1
    73    62    61    2
    74    23    27   am
    75    46    45   ar
    76    46    44   ar
    77    61    60    1
    78    45    43   ar
    79    44    42   ar
    80    43    41   ar
    81    64    65    1
    82    64    63    1
    83    65    66    1
    84    20    18    1
    85    42    41   ar
    86    41    40    1
    87    27    28    1
    88    40    37    1
    89    63    60    1
    90    35    33   am
    91    67    66    1
    92    60    59    1
    93    36    37    1
    94    36    29   am
    95    28    29    1
    96    28    31    1
    97    18    17    1
    98    37    38    1
    99    57    56    2
   100    29    30    2
   101    17    19    1
   102    17    14    1
   103    59    56   am
   104     8     6    1
   105     4     3    2
   106    53    51    1
   107    33    34    2
   108    33    32    1
   109    56    55    1
   110    31    32    1
   111    58    55    1
   112    38    47   am
   113    38    39    2
   114    47    48    1
   115     5     6    1
   116     5     2    1
   117    16    15    2
   118     6     7    1
   119    55    54    1
   120    13    14    1
   121    13    11   am
   122     3     2    1
   123     3     9   am
   124    14    15    1
   125     1     2    1
   126    51    52    1
   127    51    48    1
   128    48    49    1
   129    10    11    1
   130    10     9    1
   131    11    12    2
   132    49    50    2
