@<TRIPOS>MOLECULE
tmp/4nblB00.pdb
 73 73 0 0 0
SMALL
GASTEIGER

@<TRIPOS>ATOM
      1  N         37.7230   16.2390   -4.5680 N.3   146  ALA146     -0.1231
      2  CA        37.2970   17.5240   -5.1210 C.3   146  ALA146      0.1694
      3  C         36.7570   18.4380   -4.0220 C.2   146  ALA146      0.2593
      4  O         35.9810   17.9930   -3.1630 O.2   146  ALA146     -0.2718
      5  CB        36.2330   17.3200   -6.1960 C.3   146  ALA146      0.0304
      6  N         37.1560   19.7080   -4.0500 N.am  147  SER147     -0.1938
      7  CA        36.6790   20.6580   -3.0390 C.3   147  SER147      0.2055
      8  C         36.3390   22.0440   -3.5980 C.2   147  SER147      0.2643
      9  O         35.5550   22.7820   -2.9910 O.2   147  SER147     -0.2714
     10  CB        37.7340   20.8140   -1.9440 C.3   147  SER147      0.2130
     11  OG        38.9180   21.3890   -2.4810 O.3   147  SER147     -0.2179
     12  N         36.9240   22.3870   -4.7400 N.am  148  VAL148     -0.1963
     13  CA        36.7560   23.7230   -5.3000 C.3   148  VAL148      0.1727
     14  C         35.5660   23.7580   -6.2390 C.2   148  VAL148      0.2616
     15  O         35.4940   22.9920   -7.1930 O.2   148  VAL148     -0.2715
     16  CB        38.0260   24.1920   -6.0400 C.3   148  VAL148      0.0290
     17  CG1       37.7690   25.5260   -6.7250 C.3   148  VAL148      0.0023
     18  CG2       39.1740   24.3440   -5.0480 C.3   148  VAL148      0.0023
     19  N         34.6290   24.6490   -5.9310 N.am  149  TYR149     -0.1960
     20  CA        33.3970   24.8230   -6.7040 C.3   149  TYR149      0.1771
     21  C         33.6860   25.1580   -8.1630 C.2   149  TYR149      0.2620
     22  O         34.5940   25.9260   -8.4570 O.2   149  TYR149     -0.2715
     23  CB        32.5430   25.9270   -6.0830 C.3   149  TYR149      0.0574
     24  CG        32.1620   25.6940   -4.6410 C.ar  149  TYR149     -0.0198
     25  CD1       31.9720   24.3990   -4.1440 C.ar  149  TYR149     -0.0009
     26  CD2       31.9820   26.7670   -3.7690 C.ar  149  TYR149     -0.0009
     27  CE1       31.6110   24.1920   -2.8200 C.ar  149  TYR149      0.0417
     28  CE2       31.6060   26.5560   -2.4400 C.ar  149  TYR149      0.0417
     29  CZ        31.4330   25.2690   -1.9790 C.ar  149  TYR149      0.1957
     30  OH        31.0770   25.0570   -0.6600 O.3   149  TYR149     -0.2866
     31  N         32.9080   24.5950   -9.0840 N.am  150  THR150     -0.1937
     32  CA        33.1240   24.8940  -10.4950 C.3   150  THR150      0.2028
     33  C         32.4360   26.2140  -10.8430 C.2   150  THR150      0.2642
     34  O         31.3770   26.2450  -11.4860 O.2   150  THR150     -0.2714
     35  CB        32.6200   23.7490  -11.3940 C.3   150  THR150      0.1808
     36  OG1       31.2400   23.5000  -11.1230 O.3   150  THR150     -0.2208
     37  CG2       33.4420   22.4780  -11.1040 C.3   150  THR150      0.0379
     38  N         33.0510   27.3060  -10.3860 N.am  151  LEU151     -0.1963
     39  CA        32.4670   28.6370  -10.4710 C.3   151  LEU151      0.1713
     40  C         32.4810   29.1920  -11.8780 C.2   151  LEU151      0.2458
     41  O         33.4110   28.9250  -12.6410 O.2   151  LEU151     -0.2730
     42  CB        33.2210   29.6120   -9.5690 C.3   151  LEU151      0.0310
     43  CG        33.1980   29.2870   -8.0760 C.3   151  LEU151      0.0022
     44  CD1       34.1990   30.1690   -7.3500 C.3   151  LEU151      0.0001
     45  CD2       31.7930   29.4930   -7.5630 C.3   151  LEU151      0.0001
     46  N         31.4470   29.9740  -12.2130 N.am  152  PRO152     -0.2727
     47  CA        31.4080   30.7060  -13.4770 C.3   152  PRO152      0.1402
     48  C         32.1190   32.0490  -13.2870 C.2   152  PRO152      0.2269
     49  O         32.7580   32.2460  -12.2510 O.2   152  PRO152     -0.2865
     50  CB        29.9190   30.8820  -13.7130 C.3   152  PRO152      0.0296
     51  CG        29.3710   31.0880  -12.3080 C.3   152  PRO152      0.0237
     52  CD        30.2330   30.2020  -11.4110 C.3   152  PRO152      0.0939
     53  N         38.7330   18.9210  -11.6370 N.3   163  VAL163     -0.1231
     54  CA        37.8850   17.8640  -11.0970 C.3   163  VAL163      0.1692
     55  C         36.5420   18.4360  -10.6700 C.2   163  VAL163      0.2592
     56  O         36.4680   19.5880  -10.2450 O.2   163  VAL163     -0.2718
     57  CB        38.5930   17.1470   -9.8950 C.3   163  VAL163      0.0266
     58  CG1       38.7290   18.0770   -8.6970 C.3   163  VAL163      0.0020
     59  CG2       37.8730   15.8530   -9.4820 C.3   163  VAL163      0.0020
     60  N         35.4870   17.6330  -10.8370 N.am  164  ALA164     -0.1966
     61  CA        34.1250   17.9990  -10.4490 C.3   164  ALA164      0.1728
     62  C         33.7450   17.4100   -9.0970 C.2   164  ALA164      0.2616
     63  O         34.3820   16.4780   -8.6220 O.2   164  ALA164     -0.2715
     64  CB        33.1240   17.5420  -11.5190 C.3   164  ALA164      0.0334
     65  N         32.7010   17.9690   -8.4890 N.am  165  GLU165     -0.1977
     66  CA        32.1310   17.4550   -7.2390 C.3   165  GLU165      0.1602
     67  C         31.9300   15.9500   -7.2420 C.2   165  GLU165      0.2287
     68  O         31.3540   15.3930   -8.1790 O.2   165  GLU165     -0.2864
     69  CB        30.7790   18.1250   -6.9530 C.3   165  GLU165      0.0415
     70  CG        30.1050   17.6090   -5.6900 C.3   165  GLU165      0.1163
     71  CD        28.7780   18.3040   -5.3680 C.2   165  GLU165      0.3649
     72  OE1       28.1520   18.8860   -6.2830 O.co2 165  GLU165     -0.2457
     73  OE2       28.3710   18.2820   -4.1840 O.co2 165  GLU165     -0.2457
@<TRIPOS>BOND
     1    50    47    1
     2    50    51    1
     3    47    48    1
     4    47    46    1
     5    48    49    2
     6    41    40    2
     7    51    52    1
     8    46    40   am
     9    46    52    1
    10    40    39    1
    11    53    54    1
    12    64    61    1
    13    34    33    2
    14    35    36    1
    15    35    37    1
    16    35    32    1
    17    54    55    1
    18    54    57    1
    19    33    32    1
    20    33    38   am
    21    60    55   am
    22    60    61    1
    23    55    56    2
    24    32    31    1
    25    39    38    1
    26    39    42    1
    27    61    62    1
    28    57    59    1
    29    57    58    1
    30    42    43    1
    31    62    63    2
    32    62    65   am
    33    31    21   am
    34    65    66    1
    35    22    21    2
    36    68    67    2
    37    21    20    1
    38    43    45    1
    39    43    44    1
    40    67    66    1
    41    66    69    1
    42    15    14    2
    43    69    70    1
    44    17    16    1
    45    20    23    1
    46    20    19    1
    47    72    71   ar
    48    14    19   am
    49    14    13    1
    50     5     2    1
    51    23    24    1
    52    16    13    1
    53    16    18    1
    54    70    71    1
    55    71    73   ar
    56    13    12    1
    57     2     1    1
    58     2     3    1
    59    12     8   am
    60    24    25   ar
    61    24    26   ar
    62    25    27   ar
    63     6     3   am
    64     6     7    1
    65     3     4    2
    66    26    28   ar
    67     8     7    1
    68     8     9    2
    69     7    10    1
    70    27    29   ar
    71    11    10    1
    72    28    29   ar
    73    29    30    1
