@<TRIPOS>MOLECULE
tmp/4nbnB00.pdb
 82 81 0 0 0
SMALL
GASTEIGER

@<TRIPOS>ATOM
      1  N         34.7010   36.4180    7.0340 N.3   108  GLN108     -0.1245
      2  CA        35.8220   35.6800    7.6250 C.3   108  GLN108      0.1566
      3  C         37.1490   36.4360    7.5020 C.2   108  GLN108      0.2260
      4  O         38.0870   36.2400    8.3160 O.2   108  GLN108     -0.2867
      5  CB        35.9700   34.2910    6.9990 C.3   108  GLN108      0.0367
      6  CG        34.8130   33.3310    7.3210 C.3   108  GLN108      0.0905
      7  CD        33.6910   33.3930    6.2680 C.2   108  GLN108      0.2608
      8  OE1       33.5280   34.4030    5.5690 O.2   108  GLN108     -0.2717
      9  NE2       32.9260   32.3000    6.1450 N.am  108  GLN108     -0.0878
     10  N         16.4020   37.5280    4.5580 N.3   146  ALA146     -0.1231
     11  CA        17.6790   37.0720    5.1240 C.3   146  ALA146      0.1694
     12  C         18.5970   36.5140    4.0230 C.2   146  ALA146      0.2593
     13  O         18.1560   35.7240    3.1700 O.2   146  ALA146     -0.2718
     14  CB        17.4340   36.0020    6.1770 C.3   146  ALA146      0.0304
     15  N         19.8610   36.9120    4.0530 N.am  147  SER147     -0.1938
     16  CA        20.7990   36.4610    3.0230 C.3   147  SER147      0.2055
     17  C         22.1970   36.1470    3.5580 C.2   147  SER147      0.2643
     18  O         22.9350   35.3890    2.9160 O.2   147  SER147     -0.2714
     19  CB        20.9070   37.5390    1.9300 C.3   147  SER147      0.2130
     20  OG        21.4440   38.7330    2.4970 O.3   147  SER147     -0.2179
     21  N         22.5550   36.7600    4.6820 N.am  148  VAL148     -0.1963
     22  CA        23.8930   36.6080    5.2560 C.3   148  VAL148      0.1727
     23  C         23.9320   35.4140    6.2030 C.2   148  VAL148      0.2616
     24  O         23.1300   35.2870    7.1440 O.2   148  VAL148     -0.2715
     25  CB        24.3520   37.9020    5.9800 C.3   148  VAL148      0.0290
     26  CG1       25.7030   37.6750    6.6070 C.3   148  VAL148      0.0023
     27  CG2       24.4260   39.0470    4.9710 C.3   148  VAL148      0.0023
     28  N         24.8750   34.5260    5.9230 N.am  149  TYR149     -0.1960
     29  CA        25.0480   33.2980    6.7120 C.3   149  TYR149      0.1771
     30  C         25.3320   33.6080    8.1720 C.2   149  TYR149      0.2620
     31  O         26.0790   34.5380    8.4650 O.2   149  TYR149     -0.2715
     32  CB        26.2050   32.4780    6.1580 C.3   149  TYR149      0.0574
     33  CG        26.0630   32.0140    4.7420 C.ar  149  TYR149     -0.0198
     34  CD1       24.8030   31.8480    4.1470 C.ar  149  TYR149     -0.0009
     35  CD2       27.1920   31.7710    3.9780 C.ar  149  TYR149     -0.0009
     36  CE1       24.6990   31.4230    2.8330 C.ar  149  TYR149      0.0417
     37  CE2       27.0850   31.3290    2.6770 C.ar  149  TYR149      0.0417
     38  CZ        25.8430   31.1660    2.1220 C.ar  149  TYR149      0.1957
     39  OH        25.7390   30.7440    0.8200 O.3   149  TYR149     -0.2866
     40  N         24.7490   32.8290    9.0940 N.am  150  THR150     -0.1937
     41  CA        25.0240   33.0730   10.5090 C.3   150  THR150      0.2028
     42  C         26.3370   32.3860   10.8750 C.2   150  THR150      0.2642
     43  O         26.3600   31.3220   11.4990 O.2   150  THR150     -0.2714
     44  CB        23.8710   32.5640   11.4020 C.3   150  THR150      0.1808
     45  OG1       23.6440   31.1790   11.1330 O.3   150  THR150     -0.2208
     46  CG2       22.6050   33.3650   11.0770 C.3   150  THR150      0.0379
     47  N         27.4310   33.0060   10.4530 N.am  151  LEU151     -0.1963
     48  CA        28.7750   32.4340   10.5270 C.3   151  LEU151      0.1713
     49  C         29.2940   32.4330   11.9640 C.2   151  LEU151      0.2458
     50  O         29.0120   33.3750   12.7130 O.2   151  LEU151     -0.2730
     51  CB        29.7370   33.2750    9.6750 C.3   151  LEU151      0.0310
     52  CG        29.5090   33.3910    8.1750 C.3   151  LEU151      0.0022
     53  CD1       30.4220   34.4640    7.5680 C.3   151  LEU151      0.0001
     54  CD2       29.7820   32.0580    7.5570 C.3   151  LEU151      0.0001
     55  N         30.0360   31.3840   12.3420 N.am  152  PRO152     -0.2727
     56  CA        30.7660   31.3430   13.6170 C.3   152  PRO152      0.1402
     57  C         32.1180   32.0320   13.4190 C.2   152  PRO152      0.2269
     58  O         32.3360   32.6150   12.3610 O.2   152  PRO152     -0.2865
     59  CB        30.9310   29.8490   13.8570 C.3   152  PRO152      0.0296
     60  CG        31.1920   29.2820   12.4260 C.3   152  PRO152      0.0237
     61  CD        30.2830   30.1890   11.5210 C.3   152  PRO152      0.0939
     62  N         18.9870   38.6460   11.6210 N.3   163  VAL163     -0.1231
     63  CA        17.9420   37.7840   11.0740 C.3   163  VAL163      0.1692
     64  C         18.4980   36.4200   10.6580 C.2   163  VAL163      0.2592
     65  O         19.6430   36.3350   10.1950 O.2   163  VAL163     -0.2718
     66  CB        17.2390   38.4810    9.8510 C.3   163  VAL163      0.0266
     67  CG1       18.2120   38.6590    8.6630 C.3   163  VAL163      0.0020
     68  CG2       15.9540   37.7410    9.4290 C.3   163  VAL163      0.0020
     69  N         17.7060   35.3670   10.8770 N.am  164  ALA164     -0.1966
     70  CA        18.0650   34.0010   10.4810 C.3   164  ALA164      0.1728
     71  C         17.5060   33.6230    9.1150 C.2   164  ALA164      0.2616
     72  O         16.5560   34.2180    8.6190 O.2   164  ALA164     -0.2715
     73  CB        17.5680   32.9750   11.5530 C.3   164  ALA164      0.0334
     74  N         18.0770   32.5740    8.5310 N.am  165  GLU165     -0.1977
     75  CA        17.5950   32.0160    7.2790 C.3   165  GLU165      0.1602
     76  C         16.0930   31.7940    7.3030 C.2   165  GLU165      0.2287
     77  O         15.5580   31.2330    8.2550 O.2   165  GLU165     -0.2864
     78  CB        18.2910   30.6820    6.9970 C.3   165  GLU165      0.0415
     79  CG        17.8280   30.0100    5.7110 C.3   165  GLU165      0.1163
     80  CD        18.5510   28.6720    5.4280 C.2   165  GLU165      0.3649
     81  OE1       19.0740   28.0310    6.3670 O.co2 165  GLU165     -0.2457
     82  OE2       18.5690   28.2630    4.2540 O.co2 165  GLU165     -0.2457
@<TRIPOS>BOND
     1    39    38    1
     2    19    20    1
     3    19    16    1
     4    38    37   ar
     5    38    36   ar
     6    37    35   ar
     7    36    34   ar
     8    18    17    2
     9    16    17    1
    10    16    15    1
    11    13    12    2
    12    17    21   am
    13    35    33   ar
    14    12    15   am
    15    12    11    1
    16    34    33   ar
    17    82    80   ar
    18    10    11    1
    19    21    22    1
    20    33    32    1
    21    27    25    1
    22    11    14    1
    23    22    25    1
    24    22    23    1
    25    80    79    1
    26    80    81   ar
    27     8     7    2
    28    79    78    1
    29    28    23   am
    30    28    29    1
    31    25    26    1
    32     9     7   am
    33    32    29    1
    34    23    24    2
    35     7     6    1
    36    29    30    1
    37    78    75    1
    38     5     6    1
    39     5     2    1
    40     1     2    1
    41    75    76    1
    42    75    74    1
    43    76    77    2
    44     3     2    1
    45     3     4    2
    46    54    52    1
    47    53    52    1
    48    30    31    2
    49    30    40   am
    50    52    51    1
    51    74    71   am
    52    72    71    2
    53    67    66    1
    54    40    41    1
    55    71    70    1
    56    68    66    1
    57    51    48    1
    58    66    63    1
    59    65    64    2
    60    47    48    1
    61    47    42   am
    62    70    69    1
    63    70    73    1
    64    41    42    1
    65    41    44    1
    66    48    49    1
    67    64    69   am
    68    64    63    1
    69    42    43    2
    70    63    62    1
    71    46    44    1
    72    45    44    1
    73    61    55    1
    74    61    60    1
    75    49    55   am
    76    49    50    2
    77    55    56    1
    78    58    57    2
    79    60    59    1
    80    57    56    1
    81    56    59    1
