@<TRIPOS>MOLECULE
tmp/4nbsA00.pdb
 161 159 0 0 0
SMALL
GASTEIGER

@<TRIPOS>ATOM
      1  N        -55.5770    1.6270   77.2320 N.3    17  VAL17      -0.1231
      2  CA       -56.2140    2.6970   78.0030 C.3    17  VAL17       0.1692
      3  C        -55.2060    3.5750   78.7690 C.2    17  VAL17       0.2592
      4  O        -54.2270    3.0720   79.3190 O.2    17  VAL17      -0.2718
      5  CB       -57.2970    2.1350   78.9780 C.3    17  VAL17       0.0266
      6  CG1      -56.6600    1.3490   80.1300 C.3    17  VAL17       0.0020
      7  CG2      -58.1710    3.2560   79.5220 C.3    17  VAL17       0.0020
      8  N        -55.4440    4.8880   78.7570 N.am   18  ASP18      -0.1960
      9  CA       -54.6610    5.8700   79.5260 C.3    18  ASP18       0.1840
     10  C        -53.2140    6.1230   79.0730 C.2    18  ASP18       0.2622
     11  O        -52.4600    6.8090   79.7690 O.2    18  ASP18      -0.2715
     12  CB       -54.7140    5.5740   81.0410 C.3    18  ASP18       0.1450
     13  CG       -56.0670    5.9110   81.6570 C.2    18  ASP18       0.3671
     14  OD1      -56.7680    6.7900   81.1110 O.co2  18  ASP18      -0.2456
     15  OD2      -56.4340    5.2960   82.6840 O.co2  18  ASP18      -0.2456
     16  N        -52.8290    5.6050   77.9090 N.am   19  PHE19      -0.1960
     17  CA       -51.4690    5.8270   77.4170 C.3    19  PHE19       0.1771
     18  C        -51.2450    7.2290   76.8110 C.2    19  PHE19       0.2620
     19  O        -50.1100    7.5890   76.4910 O.2    19  PHE19      -0.2715
     20  CB       -51.0390    4.7290   76.4300 C.3    19  PHE19       0.0574
     21  CG       -50.6660    3.4170   77.0860 C.ar   19  PHE19      -0.0200
     22  CD1      -50.8660    3.2140   78.4490 C.ar   19  PHE19      -0.0042
     23  CD2      -50.1070    2.3880   76.3330 C.ar   19  PHE19      -0.0042
     24  CE1      -50.5190    2.0090   79.0510 C.ar   19  PHE19      -0.0003
     25  CE2      -49.7500    1.1790   76.9250 C.ar   19  PHE19      -0.0003
     26  CZ       -49.9590    0.9870   78.2860 C.ar   19  PHE19      -0.0000
     27  N        -52.3130    8.0090   76.6510 N.am   20  GLY20      -0.1940
     28  CA       -52.1880    9.3970   76.2140 C.3    20  GLY20       0.2014
     29  C        -52.6210    9.7440   74.7890 C.2    20  GLY20       0.2639
     30  O        -52.1470   10.7370   74.2170 O.2    20  GLY20      -0.2714
     31  N        -53.5240    8.9460   74.2180 N.am   21  LYS21      -0.1963
     32  CA       -53.9880    9.1450   72.8400 C.3    21  LYS21       0.1728
     33  C        -54.5820   10.5420   72.6020 C.2    21  LYS21       0.2617
     34  O        -54.1610   11.2810   71.7030 O.2    21  LYS21      -0.2715
     35  CB       -55.0290    8.0710   72.4780 C.3    21  LYS21       0.0311
     36  CG       -54.4960    6.6410   72.5090 C.3    21  LYS21       0.0038
     37  CD       -55.6140    5.6230   72.2750 C.3    21  LYS21       0.0206
     38  CE       -56.5440    5.4940   73.4790 C.3    21  LYS21       0.1093
     39  NZ       -55.8940    4.8550   74.6640 N.3    21  LYS21      -0.1314
     40  N        -55.5650   10.8930   73.4170 N.am   22  THR22      -0.1937
     41  CA       -56.2680   12.1650   73.2870 C.3    22  THR22       0.2028
     42  C        -55.3410   13.3590   73.5410 C.2    22  THR22       0.2642
     43  O        -55.4250   14.3930   72.8480 O.2    22  THR22      -0.2714
     44  CB       -57.4830   12.1780   74.2260 C.3    22  THR22       0.1808
     45  OG1      -58.3350   11.0760   73.8790 O.3    22  THR22      -0.2208
     46  CG2      -58.2670   13.4880   74.1160 C.3    22  THR22       0.0379
     47  N        -54.4370   13.2030   74.5080 N.am   23  THR23      -0.1950
     48  CA       -53.4350   14.2320   74.7770 C.3    23  THR23       0.1897
     49  C        -52.4940   14.3710   73.5870 C.2    23  THR23       0.2313
     50  O        -52.0820   15.4730   73.2520 O.2    23  THR23      -0.2863
     51  CB       -52.6200   13.9400   76.0600 C.3    23  THR23       0.1794
     52  OG1      -53.5090   13.8210   77.1760 O.3    23  THR23      -0.2208
     53  CG2      -51.6330   15.0800   76.3410 C.3    23  THR23       0.0378
     54  N        -58.8890   19.2400   71.9460 N.3    32  TRP32      -0.1241
     55  CA       -59.2370   18.1070   72.8110 C.3    32  TRP32       0.1605
     56  C        -60.4780   17.4050   72.2550 C.2    32  TRP32       0.2264
     57  O        -61.5600   17.9900   72.2190 O.2    32  TRP32      -0.2867
     58  CB       -59.4920   18.5850   74.2440 C.3    32  TRP32       0.0550
     59  CG       -59.6210   17.4650   75.2400 C.ar   32  TRP32       0.0003
     60  CD1      -60.7800   16.9320   75.7430 C.ar   32  TRP32       0.0946
     61  CD2      -58.5480   16.7370   75.8490 C.ar   32  TRP32       0.0152
     62  NE1      -60.4880   15.9200   76.6290 N.ar   32  TRP32      -0.2442
     63  CE2      -59.1260   15.7810   76.7140 C.ar   32  TRP32       0.0810
     64  CE3      -57.1540   16.8060   75.7520 C.ar   32  TRP32       0.0012
     65  CZ2      -58.3530   14.8950   77.4750 C.ar   32  TRP32       0.0191
     66  CZ3      -56.3870   15.9270   76.5060 C.ar   32  TRP32       0.0001
     67  CH2      -56.9890   14.9830   77.3560 C.ar   32  TRP32       0.0015
     68  N        -63.1060   10.9200   82.4440 N.3    43  GLY43      -0.1210
     69  CA       -61.7520   11.0470   81.9310 C.3    43  GLY43       0.1956
     70  C        -61.3740    9.9180   80.9860 C.2    43  GLY43       0.2612
     71  O        -60.3240    9.2910   81.1400 O.2    43  GLY43      -0.2717
     72  N        -62.2330    9.6530   80.0060 N.am   44  MET44      -0.1965
     73  CA       -61.9870    8.5800   79.0510 C.3    44  MET44       0.1736
     74  C        -62.6510    8.8780   77.7160 C.2    44  MET44       0.2617
     75  O        -63.6890    9.5450   77.6620 O.2    44  MET44      -0.2715
     76  CB       -62.5120    7.2450   79.5920 C.3    44  MET44       0.0427
     77  CG       -64.0330    7.1620   79.6600 C.3    44  MET44       0.0599
     78  SD       -64.6380    5.5880   80.2890 S.3    44  MET44      -0.1393
     79  CE       -63.7200    4.4530   79.2500 C.3    44  MET44       0.0692
     80  N        -62.0530    8.3800   76.6370 N.am   45  THR45      -0.1951
     81  CA       -62.7020    8.4370   75.3350 C.3    45  THR45       0.1897
     82  C        -63.7320    7.3050   75.2740 C.2    45  THR45       0.2313
     83  O        -63.4400    6.1670   75.6570 O.2    45  THR45      -0.2863
     84  CB       -61.6820    8.3170   74.1800 C.3    45  THR45       0.1794
     85  OG1      -60.7140    9.3740   74.2790 O.3    45  THR45      -0.2208
     86  CG2      -62.3780    8.3960   72.8290 C.3    45  THR45       0.0378
     87  N        -59.3900    3.4720   74.4220 N.3    95  GLY95      -0.1210
     88  CA       -58.4700    2.3960   74.7460 C.3    95  GLY95       0.1956
     89  C        -59.0940    1.2820   75.5680 C.2    95  GLY95       0.2611
     90  O        -58.5700    0.1660   75.6080 O.2    95  GLY95      -0.2717
     91  N        -60.2100    1.5820   76.2320 N.am   96  HIS96      -0.1975
     92  CA       -60.8180    0.6270   77.1590 C.3    96  HIS96       0.1656
     93  C        -61.2500   -0.6620   76.4660 C.2    96  HIS96       0.2291
     94  O        -61.8780   -0.6270   75.4010 O.2    96  HIS96      -0.2864
     95  CB       -62.0110    1.2470   77.8910 C.3    96  HIS96       0.0771
     96  CG       -62.3730    0.5290   79.1530 C.ar   96  HIS96       0.0820
     97  ND1      -62.1950    1.0830   80.4040 N.ar   96  HIS96      -0.2267
     98  CD2      -62.8810   -0.7100   79.3590 C.ar   96  HIS96       0.1154
     99  CE1      -62.5870    0.2200   81.3250 C.ar   96  HIS96       0.1986
    100  NE2      -63.0100   -0.8760   80.7150 N.ar   96  HIS96      -0.2212
    101  N        -44.9910    7.3670   74.1150 N.3   148  ASN148     -0.1225
    102  CA       -45.4350    8.5570   74.8280 C.3   148  ASN148      0.1785
    103  C        -44.9360    8.5640   76.2790 C.2   148  ASN148      0.2597
    104  O        -44.4330    7.5510   76.7680 O.2   148  ASN148     -0.2718
    105  CB       -46.9680    8.6330   74.8030 C.3   148  ASN148      0.1169
    106  CG       -47.4830    9.9950   75.1930 C.2   148  ASN148      0.2627
    107  OD1      -46.8320   11.0060   74.9310 O.2   148  ASN148     -0.2716
    108  ND2      -48.6430   10.0340   75.8430 N.am  148  ASN148     -0.0877
    109  N        -45.0770    9.7090   76.9500 N.am  149  LYS149     -0.1980
    110  CA       -44.7080    9.8640   78.3600 C.3   149  LYS149      0.1596
    111  C        -43.2180    9.6470   78.6400 C.2   149  LYS149      0.2287
    112  O        -42.8580    9.2130   79.7340 O.2   149  LYS149     -0.2864
    113  CB       -45.5430    8.9310   79.2620 C.3   149  LYS149      0.0298
    114  CG       -47.0490    8.9310   78.9800 C.3   149  LYS149      0.0038
    115  CD       -47.8280    8.3270   80.1490 C.3   149  LYS149      0.0206
    116  CE       -49.3200    8.2970   79.8700 C.3   149  LYS149      0.1093
    117  NZ       -50.1090    7.8250   81.0570 N.3   149  LYS149     -0.1314
    118  N        -41.1780   11.8150   79.2510 N.3   151  ASP151     -0.1225
    119  CA       -40.8370   12.7730   80.3060 C.3   151  ASP151      0.1805
    120  C        -40.7710   12.1220   81.7010 C.2   151  ASP151      0.2597
    121  O        -40.1270   12.6440   82.6100 O.2   151  ASP151     -0.2718
    122  CB       -41.8470   13.9250   80.3130 C.3   151  ASP151      0.1424
    123  CG       -43.2820   13.4420   80.4580 C.2   151  ASP151      0.3668
    124  OD1      -43.8720   12.9900   79.4500 O.co2 151  ASP151     -0.2456
    125  OD2      -43.8280   13.5160   81.5770 O.co2 151  ASP151     -0.2456
    126  N        -41.4260   10.9710   81.8410 N.am  152  VAL152     -0.1980
    127  CA       -41.5810   10.2670   83.1160 C.3   152  VAL152      0.1595
    128  C        -40.3740    9.3860   83.4700 C.2   152  VAL152      0.2287
    129  O        -40.1440    9.0740   84.6400 O.2   152  VAL152     -0.2864
    130  CB       -42.8570    9.3680   83.0610 C.3   152  VAL152      0.0276
    131  CG1      -43.1190    8.6690   84.3840 C.3   152  VAL152      0.0022
    132  CG2      -44.0530   10.1920   82.6780 C.3   152  VAL152      0.0022
    133  N        -43.3320   13.4850   74.3630 N.3   183  SER183     -0.1202
    134  CA       -44.1840   13.7410   75.5120 C.3   183  SER183      0.2020
    135  C        -45.3820   14.5080   74.9950 C.2   183  SER183      0.2619
    136  O        -45.2570   15.6610   74.5860 O.2   183  SER183     -0.2717
    137  CB       -43.4650   14.5530   76.5900 C.3   183  SER183      0.2103
    138  OG       -44.3960   15.0070   77.5650 O.3   183  SER183     -0.2182
    139  N        -46.5420   13.8650   74.9840 N.am  184  ALA184     -0.1965
    140  CA       -47.7460   14.5280   74.5050 C.3   184  ALA184      0.1728
    141  C        -48.1470   15.6410   75.4650 C.2   184  ALA184      0.2616
    142  O        -48.5400   16.7280   75.0410 O.2   184  ALA184     -0.2715
    143  CB       -48.8690   13.5280   74.3590 C.3   184  ALA184      0.0334
    144  N        -48.0580   15.3590   76.7620 N.am  185  LEU185     -0.1963
    145  CA       -48.5090   16.3040   77.7820 C.3   185  LEU185      0.1728
    146  C        -47.6710   17.5840   77.8020 C.2   185  LEU185      0.2616
    147  O        -48.2120   18.6890   77.8760 O.2   185  LEU185     -0.2715
    148  CB       -48.5040   15.6450   79.1690 C.3   185  LEU185      0.0311
    149  CG       -48.9730   16.5310   80.3310 C.3   185  LEU185      0.0022
    150  CD1      -50.4180   16.9510   80.1240 C.3   185  LEU185      0.0001
    151  CD2      -48.8130   15.8190   81.6760 C.3   185  LEU185      0.0001
    152  N        -46.3530   17.4410   77.7320 N.am  186  HIS186     -0.1973
    153  CA       -45.4800   18.6110   77.8300 C.3   186  HIS186      0.1656
    154  C        -44.9860   19.0750   76.4610 C.2   186  HIS186      0.2291
    155  O        -44.2160   20.0300   76.3660 O.2   186  HIS186     -0.2864
    156  CB       -44.3230   18.3440   78.7990 C.3   186  HIS186      0.0771
    157  CG       -44.7780   17.8670   80.1450 C.ar  186  HIS186      0.0820
    158  ND1      -45.6900   18.5660   80.9070 N.ar  186  HIS186     -0.2267
    159  CD2      -44.4760   16.7500   80.8440 C.ar  186  HIS186      0.1154
    160  CE1      -45.9200   17.9040   82.0290 C.ar  186  HIS186      0.1986
    161  NE2      -45.1960   16.7990   82.0170 N.ar  186  HIS186     -0.2212
@<TRIPOS>BOND
     1    34    33    2
     2    54    55    1
     3    57    56    2
     4    56    55    1
     5    37    36    1
     6    37    38    1
     7    35    36    1
     8    35    32    1
     9    33    32    1
    10    33    40   am
    11    55    58    1
    12    86    84    1
    13    32    31    1
    14    43    42    2
    15    50    49    2
    16    41    40    1
    17    41    42    1
    18    41    44    1
    19    38    39    1
    20    42    47   am
    21    49    48    1
    22    45    44    1
    23   101   102    1
    24    46    44    1
    25    84    85    1
    26    84    81    1
    27    30    29    2
    28    31    29   am
    29    58    59    1
    30   143   140    1
    31   133   134    1
    32    87    88    1
    33   140   139    1
    34   140   141    1
    35    47    48    1
    36   136   135    2
    37    88    89    1
    38    48    51    1
    39    29    28    1
    40   105   102    1
    41   105   106    1
    42   102   103    1
    43   107   106    2
    44   139   135   am
    45   135   134    1
    46   142   141    2
    47   106   108   am
    48    59    60   ar
    49    59    61   ar
    50    82    81    1
    51    82    83    2
    52    81    80    1
    53    94    93    2
    54   141   144   am
    55   134   137    1
    56    89    90    2
    57    89    91   am
    58    60    62   ar
    59    64    61   ar
    60    64    66   ar
    61    61    63   ar
    62    51    53    1
    63    51    52    1
    64    28    27    1
    65    91    92    1
    66   103   104    2
    67   103   109   am
    68    23    25   ar
    69    23    21   ar
    70   155   154    2
    71    20    21    1
    72    20    17    1
    73   154   153    1
    74    93    92    1
    75    19    18    2
    76    66    67   ar
    77   137   138    1
    78    62    63   ar
    79    80    74   am
    80    27    18   am
    81    63    65   ar
    82   144   145    1
    83    18    17    1
    84    25    26   ar
    85   109   110    1
    86    21    22   ar
    87    92    95    1
    88     1     2    1
    89    67    65   ar
    90    17    16    1
    91    75    74    2
    92    74    73    1
    93   152   146   am
    94   152   153    1
    95   145   146    1
    96   145   148    1
    97   146   147    2
    98   153   156    1
    99    95    96    1
   100    16    10   am
   101     2     3    1
   102     2     5    1
   103    26    24   ar
   104   110   111    1
   105   110   113    1
   106    22    24   ar
   107   111   112    2
   108     8     3   am
   109     8     9    1
   110     3     4    2
   111   156   157    1
   112     5     7    1
   113     5     6    1
   114   114   113    1
   115   114   115    1
   116    73    76    1
   117    73    72    1
   118    10     9    1
   119    10    11    2
   120    96    98   ar
   121    96    97   ar
   122   148   149    1
   123    79    78    1
   124   118   119    1
   125    98   100   ar
   126   124   123   ar
   127     9    12    1
   128    76    77    1
   129    77    78    1
   130   116   115    1
   131   116   117    1
   132    72    70   am
   133   150   149    1
   134   157   159   ar
   135   157   158   ar
   136   119   122    1
   137   119   120    1
   138   122   123    1
   139   149   151    1
   140    97    99   ar
   141   123   125   ar
   142   100    99   ar
   143   159   161   ar
   144   158   160   ar
   145    70    71    2
   146    70    69    1
   147    12    13    1
   148    14    13   ar
   149    13    15   ar
   150   120   126   am
   151   120   121    2
   152   126   127    1
   153    69    68    1
   154   161   160   ar
   155   132   130    1
   156   130   127    1
   157   130   131    1
   158   127   128    1
   159   128   129    2
