@<TRIPOS>MOLECULE
tmp/4nbuB01.pdb
 166 158 0 0 0
SMALL
GASTEIGER

@<TRIPOS>ATOM
      1  N         69.8670   65.5170   88.1500 N.3    91  THR91      -0.1218
      2  CA        68.7210   65.2240   87.2960 C.3    91  THR91       0.1862
      3  C         67.9110   66.4900   87.0380 C.2    91  THR91       0.2287
      4  O         67.8030   67.3660   87.8990 O.2    91  THR91      -0.2866
      5  CB        67.7720   64.1880   87.9260 C.3    91  THR91       0.1770
      6  OG1       67.2520   64.7000   89.1560 O.3    91  THR91      -0.2211
      7  CG2       68.4960   62.8700   88.1810 C.3    91  THR91       0.0375
      8  N         64.4710   66.1180   85.3810 N.3    93  ASP93      -0.1225
      9  CA        63.5600   65.1900   84.7110 C.3    93  ASP93       0.1805
     10  C         62.4070   65.9100   84.0250 C.2    93  ASP93       0.2598
     11  O         61.8990   66.9190   84.5280 O.2    93  ASP93      -0.2718
     12  CB        62.9950   64.1620   85.7020 C.3    93  ASP93       0.1424
     13  CG        64.0370   63.1670   86.1970 C.2    93  ASP93       0.3668
     14  OD1       65.1410   63.0770   85.6280 O.co2  93  ASP93      -0.2456
     15  OD2       63.7340   62.4530   87.1750 O.co2  93  ASP93      -0.2456
     16  N         61.9860   65.3630   82.8890 N.am   94  SER94      -0.1938
     17  CA        60.8330   65.8640   82.1510 C.3    94  SER94       0.2055
     18  C         60.4840   64.8660   81.0660 C.2    94  SER94       0.2642
     19  O         61.3660   64.2160   80.5240 O.2    94  SER94      -0.2714
     20  CB        61.1510   67.2120   81.5010 C.3    94  SER94       0.2130
     21  OG        60.0700   67.6420   80.6830 O.3    94  SER94      -0.2179
     22  N         59.2010   64.7410   80.7510 N.am   95  MET95      -0.1976
     23  CA        58.8210   63.9760   79.5780 C.3    95  MET95       0.1605
     24  C         59.4340   64.6640   78.3740 C.2    95  MET95       0.2287
     25  O         59.6200   65.8880   78.3840 O.2    95  MET95      -0.2864
     26  CB        57.3010   63.9270   79.4450 C.3    95  MET95       0.0413
     27  CG        56.6190   63.2920   80.6410 C.3    95  MET95       0.0598
     28  SD        57.0620   61.5500   80.7910 S.3    95  MET95      -0.1393
     29  CE        56.1530   60.8600   79.4140 C.3    95  MET95       0.0692
     30  N         57.8770   67.8590   76.9490 N.3    98  LYS98      -0.1245
     31  CA        57.9280   69.1010   77.7120 C.3    98  LYS98       0.1561
     32  C         59.3370   69.5550   78.0740 C.2    98  LYS98       0.2260
     33  O         59.5060   70.6240   78.6590 O.2    98  LYS98      -0.2867
     34  CB        57.0920   68.9800   78.9940 C.3    98  LYS98       0.0271
     35  CG        55.6550   68.5440   78.7490 C.3    98  LYS98       0.0035
     36  CD        54.7370   68.9220   79.8990 C.3    98  LYS98       0.0206
     37  CE        54.9970   68.0810   81.1330 C.3    98  LYS98       0.1093
     38  NZ        53.9370   68.2990   82.1610 N.3    98  LYS98      -0.1314
     39  N         74.3740   54.6540   85.2300 N.3   139  SER139     -0.1202
     40  CA        73.0850   54.4000   85.8680 C.3   139  SER139      0.2020
     41  C         72.3500   53.3480   85.0730 C.2   139  SER139      0.2619
     42  O         72.5220   53.2610   83.8570 O.2   139  SER139     -0.2717
     43  CB        72.2180   55.6620   85.8690 C.3   139  SER139      0.2103
     44  OG        70.9190   55.3520   86.3530 O.3   139  SER139     -0.2182
     45  N         71.4960   52.5790   85.7410 N.am  140  VAL140     -0.1965
     46  CA        70.5650   51.7190   85.0200 C.3   140  VAL140      0.1727
     47  C         69.7170   52.5210   84.0180 C.2   140  VAL140      0.2616
     48  O         69.2590   51.9770   83.0160 O.2   140  VAL140     -0.2715
     49  CB        69.6620   50.9040   85.9680 C.3   140  VAL140      0.0290
     50  CG1       70.4890   49.8810   86.7010 C.3   140  VAL140      0.0023
     51  CG2       68.9170   51.8260   86.9480 C.3   140  VAL140      0.0023
     52  N         69.5080   53.8100   84.2640 N.am  141  THR141     -0.1951
     53  CA        68.7820   54.6190   83.2920 C.3   141  THR141      0.1897
     54  C         69.5780   54.7610   81.9950 C.2   141  THR141      0.2313
     55  O         69.0040   54.8030   80.8990 O.2   141  THR141     -0.2863
     56  CB        68.4200   55.9830   83.8900 C.3   141  THR141      0.1794
     57  OG1       67.4500   55.7830   84.9210 O.3   141  THR141     -0.2208
     58  CG2       67.8580   56.9250   82.8390 C.3   141  THR141      0.0378
     59  N         64.6970   55.2270   80.8890 N.3   146  ASN146     -0.1225
     60  CA        63.7170   55.4120   81.9550 C.3   146  ASN146      0.1785
     61  C         62.8330   56.5920   81.6040 C.2   146  ASN146      0.2597
     62  O         63.3400   57.6470   81.2460 O.2   146  ASN146     -0.2718
     63  CB        64.4230   55.6700   83.2880 C.3   146  ASN146      0.1169
     64  CG        63.4990   55.5270   84.4850 C.2   146  ASN146      0.2627
     65  OD1       62.6210   54.6600   84.5150 O.2   146  ASN146     -0.2716
     66  ND2       63.7140   56.3700   85.4970 N.am  146  ASN146     -0.0877
     67  N         61.5210   56.4000   81.6970 N.am  147  VAL147     -0.1966
     68  CA        60.5530   57.4610   81.4050 C.3   147  VAL147      0.1727
     69  C         60.8680   58.7440   82.1740 C.2   147  VAL147      0.2617
     70  O         61.1760   58.7150   83.3760 O.2   147  VAL147     -0.2715
     71  CB        59.1160   56.9860   81.7080 C.3   147  VAL147      0.0290
     72  CG1       58.1380   58.1430   81.7020 C.3   147  VAL147      0.0023
     73  CG2       58.6940   55.9110   80.7070 C.3   147  VAL147      0.0023
     74  N         60.8300   59.8650   81.4580 N.am  148  GLY148     -0.1940
     75  CA        61.0540   61.1690   82.0540 C.3   148  GLY148      0.2014
     76  C         62.5120   61.5620   82.1620 C.2   148  GLY148      0.2638
     77  O         62.8350   62.6080   82.7370 O.2   148  GLY148     -0.2714
     78  N         63.4050   60.7380   81.6150 N.am  149  GLN149     -0.1977
     79  CA        64.8340   60.9810   81.7860 C.3   149  GLN149      0.1601
     80  C         65.6430   61.0140   80.4910 C.2   149  GLN149      0.2287
     81  O         66.7780   60.5490   80.4650 O.2   149  GLN149     -0.2864
     82  CB        65.4220   59.9410   82.7420 C.3   149  GLN149      0.0394
     83  CG        64.7930   59.9710   84.1230 C.3   149  GLN149      0.0908
     84  CD        65.7270   59.4400   85.1810 C.2   149  GLN149      0.2608
     85  OE1       65.9340   58.2280   85.2950 O.2   149  GLN149     -0.2717
     86  NE2       66.3130   60.3460   85.9590 N.am  149  GLN149     -0.0878
     87  N         69.1530   62.6100   81.1910 N.3   152  TYR152     -0.1241
     88  CA        69.9410   61.8250   82.1220 C.3   152  TYR152      0.1605
     89  C         70.3590   60.4980   81.4840 C.2   152  TYR152      0.2264
     90  O         71.5000   60.0700   81.6270 O.2   152  TYR152     -0.2867
     91  CB        69.1010   61.5910   83.3700 C.3   152  TYR152      0.0534
     92  CG        69.8010   60.8940   84.5110 C.ar  152  TYR152     -0.0201
     93  CD1       70.5360   61.6080   85.4450 C.ar  152  TYR152     -0.0009
     94  CD2       69.6990   59.5230   84.6720 C.ar  152  TYR152     -0.0009
     95  CE1       71.1600   60.9700   86.4970 C.ar  152  TYR152      0.0417
     96  CE2       70.3180   58.8760   85.7200 C.ar  152  TYR152      0.0417
     97  CZ        71.0420   59.6060   86.6340 C.ar  152  TYR152      0.1957
     98  OH        71.6520   58.9750   87.6970 O.3   152  TYR152     -0.2866
     99  N         74.6830   52.0150   89.1060 N.3   182  PRO182     -0.2102
    100  CA        73.8250   51.7700   90.2650 C.3   182  PRO182      0.1504
    101  C         72.3760   51.6360   89.8320 C.2   182  PRO182      0.2576
    102  O         71.9430   52.3080   88.8760 O.2   182  PRO182     -0.2718
    103  CB        73.9940   53.0490   91.1150 C.3   182  PRO182      0.0282
    104  CG        75.2450   53.7160   90.5930 C.3   182  PRO182      0.0208
    105  CD        75.2650   53.3660   89.1200 C.3   182  PRO182      0.0893
    106  N         71.6440   50.7700   90.5320 N.am  183  GLY183     -0.1943
    107  CA        70.2000   50.8010   90.4760 C.3   183  GLY183      0.2014
    108  C         69.6950   51.9300   91.3510 C.2   183  GLY183      0.2638
    109  O         70.4680   52.7860   91.8170 O.2   183  GLY183     -0.2714
    110  N         68.3920   51.9580   91.5740 N.am  184  PHE184     -0.1973
    111  CA        67.8120   52.9860   92.4190 C.3   184  PHE184      0.1639
    112  C         68.3270   52.8330   93.8370 C.2   184  PHE184      0.2290
    113  O         68.2420   51.7540   94.4300 O.2   184  PHE184     -0.2864
    114  CB        66.2910   52.9380   92.3560 C.3   184  PHE184      0.0560
    115  CG        65.7480   53.2030   90.9840 C.ar  184  PHE184     -0.0200
    116  CD1       65.6440   54.4960   90.5080 C.ar  184  PHE184     -0.0042
    117  CD2       65.3570   52.1610   90.1670 C.ar  184  PHE184     -0.0042
    118  CE1       65.1440   54.7440   89.2430 C.ar  184  PHE184     -0.0003
    119  CE2       64.8650   52.4030   88.8980 C.ar  184  PHE184     -0.0003
    120  CZ        64.7610   53.6940   88.4360 C.ar  184  PHE184     -0.0000
    121  N         68.6730   61.9710   95.5260 N.3   189  MET189     -0.1230
    122  CA        68.2390   61.9060   94.1340 C.3   189  MET189      0.1702
    123  C         66.9200   61.1440   94.0080 C.2   189  MET189      0.2592
    124  O         66.0920   61.4440   93.1470 O.2   189  MET189     -0.2718
    125  CB        69.3290   61.2830   93.2580 C.3   189  MET189      0.0401
    126  CG        69.1990   61.6180   91.7810 C.3   189  MET189      0.0596
    127  SD        70.6580   61.1490   90.8420 S.3   189  MET189     -0.1393
    128  CE        71.7060   62.5840   91.0460 C.3   189  MET189      0.0692
    129  N         66.7240   60.1760   94.8950 N.am  190  VAL190     -0.1980
    130  CA        65.5260   59.3470   94.8910 C.3   190  VAL190      0.1595
    131  C         64.4500   59.9030   95.8270 C.2   190  VAL190      0.2287
    132  O         63.2560   59.8060   95.5420 O.2   190  VAL190     -0.2864
    133  CB        65.8760   57.8830   95.2580 C.3   190  VAL190      0.0276
    134  CG1       64.6670   57.1390   95.7930 C.3   190  VAL190      0.0022
    135  CG2       66.4640   57.1660   94.0520 C.3   190  VAL190      0.0022
    136  N         60.6480   61.5770   95.1780 N.3   193  VAL193     -0.1245
    137  CA        59.5410   60.8880   94.5190 C.3   193  VAL193      0.1561
    138  C         58.5470   60.3890   95.5680 C.2   193  VAL193      0.2260
    139  O         58.9360   60.0880   96.6990 O.2   193  VAL193     -0.2867
    140  CB        60.0260   59.7030   93.6440 C.3   193  VAL193      0.0252
    141  CG1       61.0590   60.1660   92.6220 C.3   193  VAL193      0.0019
    142  CG2       60.5870   58.5870   94.5040 C.3   193  VAL193      0.0019
    143  N         55.4480   55.5490   94.2780 N.3   197  VAL197     -0.1245
    144  CA        56.2300   55.1510   93.1110 C.3   197  VAL197      0.1561
    145  C         57.5540   54.5200   93.5470 C.2   197  VAL197      0.2260
    146  O         58.2570   53.9020   92.7460 O.2   197  VAL197     -0.2867
    147  CB        56.4820   56.3340   92.1450 C.3   197  VAL197      0.0252
    148  CG1       57.6210   57.1970   92.6420 C.3   197  VAL197      0.0019
    149  CG2       56.7870   55.8230   90.7420 C.3   197  VAL197      0.0019
    150  N         56.9900   50.9550   93.3210 N.3   200  LYS200     -0.1231
    151  CA        57.0110   50.5340   91.9250 C.3   200  LYS200      0.1693
    152  C         58.4170   50.1550   91.4750 C.2   200  LYS200      0.2591
    153  O         58.6240   49.0900   90.8890 O.2   200  LYS200     -0.2718
    154  CB        56.4440   51.6290   91.0210 C.3   200  LYS200      0.0285
    155  CG        56.4720   51.2850   89.5430 C.3   200  LYS200      0.0035
    156  CD        55.6830   52.2970   88.7230 C.3   200  LYS200      0.0206
    157  CE        55.7750   51.9970   87.2330 C.3   200  LYS200      0.1093
    158  NZ        54.9900   52.9700   86.4200 N.3   200  LYS200     -0.1314
    159  N         59.3840   51.0250   91.7440 N.am  201  MET201     -0.1979
    160  CA        60.7650   50.7110   91.4080 C.3   201  MET201      0.1605
    161  C         61.2770   49.5790   92.2980 C.2   201  MET201      0.2287
    162  O         62.0700   48.7490   91.8570 O.2   201  MET201     -0.2864
    163  CB        61.6620   51.9560   91.4690 C.3   201  MET201      0.0413
    164  CG        61.8210   52.5870   92.8420 C.3   201  MET201      0.0598
    165  SD        62.5720   54.2320   92.7620 S.3   201  MET201     -0.1393
    166  CE        61.1860   55.1970   92.1700 C.3   201  MET201      0.0692
@<TRIPOS>BOND
     1    30    31    1
     2    31    32    1
     3    31    34    1
     4    32    33    2
     5    24    25    2
     6    24    23    1
     7    35    34    1
     8    35    36    1
     9    29    28    1
    10    26    23    1
    11    26    27    1
    12    23    22    1
    13    36    37    1
    14    81    80    2
    15    80    79    1
    16    19    18    2
    17    27    28    1
    18    21    20    1
    19    73    71    1
    20    22    18   am
    21    59    60    1
    22    55    54    2
    23    18    17    1
    24    37    38    1
    25    87    88    1
    26    62    61    2
    27    68    67    1
    28    68    71    1
    29    68    69    1
    30    74    75    1
    31    74    69   am
    32    89    90    2
    33    89    88    1
    34    20    17    1
    35    61    67   am
    36    61    60    1
    37    78    79    1
    38    78    76   am
    39    72    71    1
    40    79    82    1
    41    60    63    1
    42    54    53    1
    43    75    76    1
    44    88    91    1
    45    17    16    1
    46    76    77    2
    47    69    70    2
    48    82    83    1
    49    58    56    1
    50    16    10   am
    51    48    47    2
    52    63    64    1
    53    53    56    1
    54    53    52    1
    55    91    92    1
    56    42    41    2
    57    56    57    1
    58    47    52   am
    59    47    46    1
    60    10    11    2
    61    10     9    1
    62    83    84    1
    63    64    65    2
    64    64    66   am
    65    92    94   ar
    66    92    93   ar
    67    94    96   ar
    68     9     8    1
    69     9    12    1
    70    46    45    1
    71    46    49    1
    72    41    45   am
    73    41    40    1
    74    84    85    2
    75    84    86   am
    76    39    40    1
    77    93    95   ar
    78    14    13   ar
    79    12    13    1
    80    96    97   ar
    81    40    43    1
    82    43    44    1
    83    49    50    1
    84    49    51    1
    85    13    15   ar
    86   158   157    1
    87    95    97   ar
    88    97    98    1
    89     3     2    1
    90     3     4    2
    91   157   156    1
    92     2     5    1
    93     2     1    1
    94     5     7    1
    95     5     6    1
    96   120   119   ar
    97   120   118   ar
    98   156   155    1
    99   102   101    2
   100   119   117   ar
   101    99   105    1
   102    99   100    1
   103   105   104    1
   104   118   116   ar
   105   155   154    1
   106   101   100    1
   107   101   106   am
   108   117   115   ar
   109   100   103    1
   110   107   106    1
   111   107   108    1
   112   116   115   ar
   113   104   103    1
   114   149   147    1
   115   127   128    1
   116   127   126    1
   117   153   152    2
   118   115   114    1
   119   154   151    1
   120   108   110   am
   121   108   109    2
   122   160   163    1
   123   160   159    1
   124   160   161    1
   125   163   164    1
   126   152   159   am
   127   152   151    1
   128   110   111    1
   129   126   125    1
   130   162   161    2
   131   151   150    1
   132   147   148    1
   133   147   144    1
   134   166   165    1
   135   114   111    1
   136   111   112    1
   137   141   140    1
   138   146   145    2
   139   165   164    1
   140   144   145    1
   141   144   143    1
   142   124   123    2
   143   125   122    1
   144   140   142    1
   145   140   137    1
   146   112   113    2
   147   123   122    1
   148   123   129   am
   149   135   133    1
   150   122   121    1
   151   137   136    1
   152   137   138    1
   153   130   129    1
   154   130   133    1
   155   130   131    1
   156   133   134    1
   157   132   131    2
   158   138   139    2
