@<TRIPOS>MOLECULE
tmp/4nc3A10.pdb
 130 124 0 0 0
SMALL
GASTEIGER

@<TRIPOS>ATOM
      1  N        -12.3120  -37.2100   14.1810 N.3     6  LYS6       -0.1245
      2  CA       -13.0600  -36.7710   13.0080 C.3     6  LYS6        0.1561
      3  C        -12.1700  -36.5810   11.7800 C.2     6  LYS6        0.2260
      4  O        -12.4380  -35.7220   10.9390 O.2     6  LYS6       -0.2867
      5  CB       -13.7880  -35.4600   13.3190 C.3     6  LYS6        0.0271
      6  CG       -14.6630  -35.5150   14.5530 C.3     6  LYS6        0.0035
      7  CD       -16.1530  -35.6340   14.2160 C.3     6  LYS6        0.0206
      8  CE       -16.8840  -36.7120   15.0550 C.3     6  LYS6        0.1093
      9  NZ       -16.7810  -36.6350   16.5610 N.3     6  LYS6       -0.1314
     10  N        -13.9950  -37.3140    8.4080 N.3     9  TRP9       -0.1241
     11  CA       -14.8680  -36.2330    7.9680 C.3     9  TRP9        0.1605
     12  C        -14.0410  -35.1540    7.2860 C.2     9  TRP9        0.2264
     13  O        -14.4500  -34.5960    6.2690 O.2     9  TRP9       -0.2867
     14  CB       -15.6420  -35.6320    9.1430 C.3     9  TRP9        0.0550
     15  CG       -16.6730  -36.5510    9.7190 C.ar    9  TRP9        0.0003
     16  CD1      -16.7730  -36.9600   11.0170 C.ar    9  TRP9        0.0946
     17  CD2      -17.7490  -37.1830    9.0150 C.ar    9  TRP9        0.0152
     18  NE1      -17.8470  -37.8050   11.1660 N.ar    9  TRP9       -0.2442
     19  CE2      -18.4620  -37.9590    9.9510 C.ar    9  TRP9        0.0810
     20  CE3      -18.1800  -37.1680    7.6840 C.ar    9  TRP9        0.0012
     21  CZ2      -19.5810  -38.7120    9.5990 C.ar    9  TRP9        0.0191
     22  CZ3      -19.2910  -37.9160    7.3370 C.ar    9  TRP9        0.0001
     23  CH2      -19.9790  -38.6770    8.2910 C.ar    9  TRP9        0.0015
     24  N        -13.0960  -36.3900    3.9520 N.3    12  LEU12      -0.1231
     25  CA       -14.2920  -36.3350    3.1210 C.3    12  LEU12       0.1693
     26  C        -14.5130  -34.9300    2.5660 C.2    12  LEU12       0.2591
     27  O        -14.7280  -34.7540    1.3670 O.2    12  LEU12      -0.2718
     28  CB       -15.5150  -36.7670    3.9340 C.3    12  LEU12       0.0284
     29  CG       -16.7560  -37.1580    3.1300 C.3    12  LEU12       0.0019
     30  CD1      -16.5470  -38.5040    2.4490 C.3    12  LEU12       0.0001
     31  CD2      -17.9870  -37.1890    4.0230 C.3    12  LEU12       0.0001
     32  N        -14.4540  -33.9340    3.4450 N.am   13  LEU13      -0.1980
     33  CA       -14.6940  -32.5470    3.0590 C.3    13  LEU13       0.1596
     34  C        -13.6420  -32.0470    2.0720 C.2    13  LEU13       0.2287
     35  O        -13.9610  -31.3260    1.1270 O.2    13  LEU13      -0.2864
     36  CB       -14.7230  -31.6540    4.3010 C.3    13  LEU13       0.0297
     37  CG       -15.9000  -31.9020    5.2490 C.3    13  LEU13       0.0022
     38  CD1      -15.7210  -31.1300    6.5470 C.3    13  LEU13       0.0001
     39  CD2      -17.2150  -31.5310    4.5800 C.3    13  LEU13       0.0001
     40  N        -14.7210  -33.8430   -1.3550 N.3    16  MET16      -0.1230
     41  CA       -15.9800  -33.5330   -2.0280 C.3    16  MET16       0.1702
     42  C        -16.5110  -32.1270   -1.7550 C.2    16  MET16       0.2592
     43  O        -17.7110  -31.8860   -1.8790 O.2    16  MET16      -0.2718
     44  CB       -17.0480  -34.5540   -1.6280 C.3    16  MET16       0.0401
     45  CG       -16.6700  -35.9960   -1.9240 C.3    16  MET16       0.0596
     46  SD       -18.0770  -37.1180   -1.8080 S.3    16  MET16      -0.1393
     47  CE       -18.6080  -36.8280   -0.1230 C.3    16  MET16       0.0692
     48  N        -15.6340  -31.1980   -1.3910 N.am   17  VAL17      -0.1980
     49  CA       -16.0580  -29.8160   -1.1830 C.3    17  VAL17       0.1595
     50  C        -14.9910  -28.8200   -1.6260 C.2    17  VAL17       0.2287
     51  O        -15.2420  -27.9660   -2.4750 O.2    17  VAL17      -0.2864
     52  CB       -16.4050  -29.5400    0.2930 C.3    17  VAL17       0.0276
     53  CG1      -16.9480  -28.1310    0.4510 C.3    17  VAL17       0.0022
     54  CG2      -17.4050  -30.5590    0.8070 C.3    17  VAL17       0.0022
     55  N        -13.5420  -29.7280   -5.4290 N.3    20  PRO20      -0.2116
     56  CA       -14.5630  -29.3160   -6.3980 C.3    20  PRO20       0.1372
     57  C        -14.6600  -27.7970   -6.5270 C.2    20  PRO20       0.2244
     58  O        -14.7030  -27.2750   -7.6400 O.2    20  PRO20      -0.2868
     59  CB       -15.8540  -29.8760   -5.8000 C.3    20  PRO20       0.0268
     60  CG       -15.4190  -31.0600   -5.0220 C.3    20  PRO20       0.0207
     61  CD       -14.0550  -30.7340   -4.4820 C.3    20  PRO20       0.0892
     62  N        -12.1530  -27.8660   12.9240 N.3    68  ILE68      -0.1245
     63  CA       -12.9000  -29.1040   13.1140 C.3    68  ILE68       0.1561
     64  C        -12.0360  -30.1810   13.7690 C.2    68  ILE68       0.2260
     65  O        -12.5360  -31.0030   14.5360 O.2    68  ILE68      -0.2867
     66  CB       -13.4670  -29.6300   11.7730 C.3    68  ILE68       0.0252
     67  CG1      -14.9480  -29.9850   11.9240 C.3    68  ILE68       0.0019
     68  CG2      -12.6770  -30.8370   11.2830 C.3    68  ILE68       0.0019
     69  CD1      -15.6490  -30.2570   10.6070 C.3    68  ILE68       0.0001
     70  N        -24.8450  -28.4060   16.6400 N.3   330  MET330     -0.1245
     71  CA       -24.3820  -29.5900   15.9310 C.3   330  MET330      0.1570
     72  C        -24.9240  -29.5930   14.5060 C.2   330  MET330      0.2261
     73  O        -24.2330  -29.9940   13.5700 O.2   330  MET330     -0.2867
     74  CB       -24.8240  -30.8530   16.6740 C.3   330  MET330      0.0387
     75  CG       -24.2590  -32.1440   16.1030 C.3   330  MET330      0.0595
     76  SD       -25.3130  -32.8910   14.8450 S.3   330  MET330     -0.1393
     77  CE       -26.6370  -33.5520   15.8560 C.3   330  MET330      0.0692
     78  N        -23.1910  -26.7570   12.3710 N.3   333  GLU333     -0.1231
     79  CA       -21.8410  -27.1110   11.9500 C.3   333  GLU333      0.1699
     80  C        -21.8630  -27.9160   10.6520 C.2   333  GLU333      0.2592
     81  O        -20.8900  -27.9220    9.8990 O.2   333  GLU333     -0.2718
     82  CB       -21.1270  -27.8960   13.0490 C.3   333  GLU333      0.0402
     83  CG       -19.6540  -28.1350   12.7690 C.3   333  GLU333      0.1161
     84  CD       -18.8670  -28.4240   14.0300 C.2   333  GLU333      0.3649
     85  OE1      -17.6690  -28.0720   14.0750 O.co2 333  GLU333     -0.2457
     86  OE2      -19.4450  -29.0010   14.9750 O.co2 333  GLU333     -0.2457
     87  N        -22.9760  -28.5950   10.3950 N.am  334  ILE334     -0.1980
     88  CA       -23.1530  -29.3270    9.1470 C.3   334  ILE334      0.1595
     89  C        -23.6960  -28.4010    8.0660 C.2   334  ILE334      0.2287
     90  O        -23.1870  -28.3690    6.9450 O.2   334  ILE334     -0.2864
     91  CB       -24.1300  -30.5040    9.3190 C.3   334  ILE334      0.0276
     92  CG1      -23.6560  -31.4280   10.4410 C.3   334  ILE334      0.0022
     93  CG2      -24.2660  -31.2800    8.0130 C.3   334  ILE334      0.0022
     94  CD1      -24.6710  -32.4790   10.8320 C.3   334  ILE334      0.0001
     95  N        -21.3400  -26.3230    6.0940 N.3   337  TRP337     -0.1227
     96  CA       -20.6370  -27.0030    5.0120 C.3   337  TRP337      0.1737
     97  C        -21.5390  -27.2730    3.8130 C.2   337  TRP337      0.2595
     98  O        -21.0850  -27.2340    2.6710 O.2   337  TRP337     -0.2718
     99  CB       -20.0080  -28.3030    5.5160 C.3   337  TRP337      0.0564
    100  CG       -18.7400  -28.0630    6.2600 C.ar  337  TRP337      0.0003
    101  CD1      -18.5790  -28.0180    7.6110 C.ar  337  TRP337      0.0946
    102  CD2      -17.4510  -27.8100    5.6920 C.ar  337  TRP337      0.0152
    103  NE1      -17.2660  -27.7610    7.9230 N.ar  337  TRP337     -0.2442
    104  CE2      -16.5520  -27.6280    6.7620 C.ar  337  TRP337      0.0810
    105  CE3      -16.9670  -27.7240    4.3820 C.ar  337  TRP337      0.0012
    106  CZ2      -15.1970  -27.3670    6.5620 C.ar  337  TRP337      0.0191
    107  CZ3      -15.6230  -27.4640    4.1860 C.ar  337  TRP337      0.0001
    108  CH2      -14.7530  -27.2890    5.2700 C.ar  337  TRP337      0.0015
    109  N        -22.8110  -27.5570    4.0690 N.am  338  ILE338     -0.1980
    110  CA       -23.7770  -27.6920    2.9860 C.3   338  ILE338      0.1595
    111  C        -23.8610  -26.3730    2.2190 C.2   338  ILE338      0.2287
    112  O        -24.0280  -26.3590    0.9970 O.2   338  ILE338     -0.2864
    113  CB       -25.1700  -28.0840    3.5090 C.3   338  ILE338      0.0276
    114  CG1      -25.1420  -29.5120    4.0550 C.3   338  ILE338      0.0022
    115  CG2      -26.1960  -27.9810    2.3990 C.3   338  ILE338      0.0022
    116  CD1      -26.4700  -29.9880    4.6050 C.3   338  ILE338      0.0001
    117  N        -20.6210  -26.0010    0.1120 N.3   341  VAL341     -0.1245
    118  CA       -20.7960  -26.7700   -1.1140 C.3   341  VAL341      0.1561
    119  C        -21.6410  -25.9880   -2.1150 C.2   341  VAL341      0.2260
    120  O        -21.2630  -25.8300   -3.2760 O.2   341  VAL341     -0.2867
    121  CB       -21.4870  -28.1160   -0.8370 C.3   341  VAL341      0.0252
    122  CG1      -21.8540  -28.8060   -2.1390 C.3   341  VAL341      0.0019
    123  CG2      -20.5900  -29.0100    0.0040 C.3   341  VAL341      0.0019
    124  N        -19.7300  -24.9770   -5.7510 N.3   345  VAL345     -0.1245
    125  CA       -19.8370  -25.5540   -7.0890 C.3   345  VAL345      0.1561
    126  C        -20.9270  -24.9100   -7.9420 C.2   345  VAL345      0.2260
    127  O        -21.3220  -25.4640   -8.9670 O.2   345  VAL345     -0.2867
    128  CB       -20.1190  -27.0720   -7.0270 C.3   345  VAL345      0.0252
    129  CG1      -19.0330  -27.7830   -6.2370 C.3   345  VAL345      0.0019
    130  CG2      -21.4920  -27.3420   -6.4250 C.3   345  VAL345      0.0019
@<TRIPOS>BOND
     1   127   126    2
     2   126   125    1
     3    58    57    2
     4   125   128    1
     5   125   124    1
     6   128   130    1
     7   128   129    1
     8    57    56    1
     9    56    59    1
    10    56    55    1
    11    59    60    1
    12    55    61    1
    13    60    61    1
    14   120   119    2
    15    51    50    2
    16   122   121    1
    17   119   118    1
    18    41    42    1
    19    41    44    1
    20    41    40    1
    21    45    46    1
    22    45    44    1
    23    43    42    2
    24    46    47    1
    25    42    48   am
    26    50    49    1
    27    48    49    1
    28    49    52    1
    29   118   121    1
    30   118   117    1
    31   121   123    1
    32    52    53    1
    33    52    54    1
    34   112   111    2
    35    35    34    2
    36    27    26    2
    37    34    33    1
    38   111   110    1
    39   115   113    1
    40    30    29    1
    41    26    25    1
    42    26    32   am
    43    98    97    2
    44   110   113    1
    45   110   109    1
    46    33    32    1
    47    33    36    1
    48    25    28    1
    49    25    24    1
    50    29    28    1
    51    29    31    1
    52   113   114    1
    53    97   109   am
    54    97    96    1
    55   114   116    1
    56   107   105   ar
    57   107   108   ar
    58    36    37    1
    59   105   102   ar
    60    39    37    1
    61    96    99    1
    62    96    95    1
    63    37    38    1
    64   108   106   ar
    65    99   100    1
    66   102   100   ar
    67   102   104   ar
    68   100   101   ar
    69    13    12    2
    70   106   104   ar
    71   104   103   ar
    72    90    89    2
    73    12    11    1
    74    22    20   ar
    75    22    23   ar
    76   101   103   ar
    77    20    17   ar
    78    11    10    1
    79    11    14    1
    80    93    91    1
    81    89    88    1
    82    23    21   ar
    83    17    15   ar
    84    17    19   ar
    85    14    15    1
    86    88    91    1
    87    88    87    1
    88    91    92    1
    89    21    19   ar
    90    15    16   ar
    91    81    80    2
    92    19    18   ar
    93    87    80   am
    94    92    94    1
    95    69    67    1
    96    80    79    1
    97     4     3    2
    98    16    18   ar
    99    68    66    1
   100    66    67    1
   101    66    63    1
   102     3     2    1
   103    79    78    1
   104    79    82    1
   105    83    82    1
   106    83    84    1
   107    62    63    1
   108     2     5    1
   109     2     1    1
   110    63    64    1
   111     5     6    1
   112    73    72    2
   113    64    65    2
   114    84    85   ar
   115    84    86   ar
   116     7     6    1
   117     7     8    1
   118    72    71    1
   119    76    77    1
   120    76    75    1
   121     8     9    1
   122    71    70    1
   123    71    74    1
   124    75    74    1
