@<TRIPOS>MOLECULE
tmp/4nc3A09.pdb
 101 97 0 0 0
SMALL
GASTEIGER

@<TRIPOS>ATOM
      1  N        -18.7780  -11.1780  -17.0360 N.3    44  TYR44      -0.1241
      2  CA       -17.9110  -10.5790  -16.0280 C.3    44  TYR44       0.1605
      3  C        -18.5160  -10.7310  -14.6340 C.2    44  TYR44       0.2264
      4  O        -17.7970  -10.7530  -13.6350 O.2    44  TYR44      -0.2867
      5  CB       -17.6440   -9.1110  -16.3570 C.3    44  TYR44       0.0534
      6  CG       -16.8130   -8.9290  -17.6050 C.ar   44  TYR44      -0.0201
      7  CD1      -15.6690   -9.6900  -17.8170 C.ar   44  TYR44      -0.0009
      8  CD2      -17.1770   -8.0130  -18.5780 C.ar   44  TYR44      -0.0009
      9  CE1      -14.9060   -9.5330  -18.9590 C.ar   44  TYR44       0.0417
     10  CE2      -16.4240   -7.8490  -19.7220 C.ar   44  TYR44       0.0417
     11  CZ       -15.2890   -8.6110  -19.9090 C.ar   44  TYR44       0.1957
     12  OH       -14.5330   -8.4510  -21.0490 O.3    44  TYR44      -0.2866
     13  N        -17.3250  -14.2000  -13.7100 N.3    47  MET47      -0.1230
     14  CA       -15.9240  -14.1730  -13.3120 C.3    47  MET47       0.1702
     15  C        -15.7920  -13.6130  -11.9010 C.2    47  MET47       0.2593
     16  O        -14.9740  -14.0830  -11.1110 O.2    47  MET47      -0.2718
     17  CB       -15.0950  -13.3400  -14.2920 C.3    47  MET47       0.0401
     18  CG       -13.6340  -13.1970  -13.8840 C.3    47  MET47       0.0596
     19  SD       -12.5210  -13.0280  -15.2890 S.3    47  MET47      -0.1393
     20  CE       -10.9600  -12.7500  -14.4560 C.3    47  MET47       0.0692
     21  N        -16.6010  -12.6060  -11.5890 N.am   48  SER48      -0.1952
     22  CA       -16.5740  -11.9910  -10.2690 C.3    48  SER48       0.1924
     23  C        -17.1030  -12.9510   -9.2090 C.2    48  SER48       0.2314
     24  O        -16.5940  -12.9960   -8.0910 O.2    48  SER48      -0.2863
     25  CB       -17.4030  -10.7080  -10.2620 C.3    48  SER48       0.2116
     26  OG       -17.3440  -10.0810   -8.9940 O.3    48  SER48      -0.2180
     27  N        -14.4320  -15.7770   -8.6170 N.3    51  VAL51      -0.1245
     28  CA       -13.3630  -15.3440   -7.7260 C.3    51  VAL51       0.1561
     29  C        -13.8230  -15.3970   -6.2730 C.2    51  VAL51       0.2260
     30  O        -13.0850  -15.8470   -5.3980 O.2    51  VAL51      -0.2867
     31  CB       -12.8970  -13.9130   -8.0620 C.3    51  VAL51       0.0252
     32  CG1      -12.0140  -13.3600   -6.9500 C.3    51  VAL51       0.0019
     33  CG2      -12.1630  -13.8930   -9.3970 C.3    51  VAL51       0.0019
     34  N        -12.1890  -17.8670   -3.4860 N.3    55  LEU55      -0.1245
     35  CA       -11.5240  -17.3790   -2.2840 C.3    55  LEU55       0.1561
     36  C        -12.0610  -18.0570   -1.0280 C.2    55  LEU55       0.2260
     37  O        -11.3270  -18.2460   -0.0570 O.2    55  LEU55      -0.2867
     38  CB       -11.6670  -15.8610   -2.1720 C.3    55  LEU55       0.0270
     39  CG       -10.9010  -15.0560   -3.2250 C.3    55  LEU55       0.0019
     40  CD1      -11.2650  -13.5830   -3.1430 C.3    55  LEU55       0.0001
     41  CD2       -9.4030  -15.2420   -3.0580 C.3    55  LEU55       0.0001
     42  N        -18.0300  -12.1730    4.3110 N.3    90  LEU90      -0.1231
     43  CA       -17.8740  -11.3340    3.1290 C.3    90  LEU90       0.1693
     44  C        -18.1170  -12.1220    1.8480 C.2    90  LEU90       0.2592
     45  O        -19.0410  -11.8230    1.0910 O.2    90  LEU90      -0.2718
     46  CB       -16.4700  -10.7270    3.1000 C.3    90  LEU90       0.0284
     47  CG       -16.1240   -9.8720    1.8790 C.3    90  LEU90       0.0019
     48  CD1      -17.0850   -8.7030    1.7500 C.3    90  LEU90       0.0001
     49  CD2      -14.6900   -9.3790    1.9690 C.3    90  LEU90       0.0001
     50  N        -17.2820  -13.1290    1.6120 N.am   91  PHE91      -0.1976
     51  CA       -17.3500  -13.9140    0.3860 C.3    91  PHE91       0.1639
     52  C        -18.6640  -14.6830    0.2670 C.2    91  PHE91       0.2290
     53  O        -19.2420  -14.7720   -0.8180 O.2    91  PHE91      -0.2864
     54  CB       -16.1740  -14.8880    0.3170 C.3    91  PHE91       0.0560
     55  CG       -14.8320  -14.2150    0.2480 C.ar   91  PHE91      -0.0200
     56  CD1      -14.6540  -13.0570   -0.4920 C.ar   91  PHE91      -0.0042
     57  CD2      -13.7480  -14.7390    0.9320 C.ar   91  PHE91      -0.0042
     58  CE1      -13.4180  -12.4390   -0.5520 C.ar   91  PHE91      -0.0003
     59  CE2      -12.5120  -14.1260    0.8770 C.ar   91  PHE91      -0.0003
     60  CZ       -12.3470  -12.9740    0.1330 C.ar   91  PHE91      -0.0000
     61  N        -19.4310   -3.5200  -14.5600 N.3   126  PHE126     -0.1241
     62  CA       -18.4560   -3.1640  -13.5360 C.3   126  PHE126      0.1605
     63  C        -19.1140   -2.4350  -12.3670 C.2   126  PHE126      0.2264
     64  O        -18.8480   -2.7410  -11.2040 O.2   126  PHE126     -0.2867
     65  CB       -17.3510   -2.2890  -14.1280 C.3   126  PHE126      0.0534
     66  CG       -16.3320   -3.0500  -14.9320 C.ar  126  PHE126     -0.0203
     67  CD1      -16.4580   -4.4140  -15.1400 C.ar  126  PHE126     -0.0042
     68  CD2      -15.2360   -2.3960  -15.4700 C.ar  126  PHE126     -0.0042
     69  CE1      -15.5140   -5.1070  -15.8770 C.ar  126  PHE126     -0.0003
     70  CE2      -14.2900   -3.0850  -16.2040 C.ar  126  PHE126     -0.0003
     71  CZ       -14.4290   -4.4410  -16.4080 C.ar  126  PHE126     -0.0000
     72  N        -21.1030   -4.9140  -10.3570 N.3   129  ILE129     -0.1245
     73  CA       -20.1940   -5.7720   -9.6100 C.3   129  ILE129      0.1561
     74  C        -19.7250   -5.0410   -8.3610 C.2   129  ILE129      0.2260
     75  O        -19.7650   -5.5820   -7.2550 O.2   129  ILE129     -0.2867
     76  CB       -18.9550   -6.1710  -10.4400 C.3   129  ILE129      0.0252
     77  CG1      -19.3680   -6.9060  -11.7160 C.3   129  ILE129      0.0019
     78  CG2      -18.0210   -7.0460   -9.6190 C.3   129  ILE129      0.0019
     79  CD1      -20.3370   -8.0380  -11.4870 C.3   129  ILE129      0.0001
     80  N        -20.1870   -5.8960   -4.2410 N.3   133  TRP133     -0.1241
     81  CA       -19.0770   -6.0390   -3.3070 C.3   133  TRP133      0.1605
     82  C        -19.1760   -5.0250   -2.1760 C.2   133  TRP133      0.2264
     83  O        -18.7800   -5.3050   -1.0460 O.2   133  TRP133     -0.2867
     84  CB       -17.7410   -5.8780   -4.0330 C.3   133  TRP133      0.0550
     85  CG       -17.3360   -7.0960   -4.7940 C.ar  133  TRP133      0.0003
     86  CD1      -17.4120   -7.2820   -6.1410 C.ar  133  TRP133      0.0946
     87  CD2      -16.7960   -8.3050   -4.2500 C.ar  133  TRP133      0.0152
     88  NE1      -16.9490   -8.5320   -6.4730 N.ar  133  TRP133     -0.2442
     89  CE2      -16.5650   -9.1810   -5.3300 C.ar  133  TRP133      0.0810
     90  CE3      -16.4840   -8.7320   -2.9570 C.ar  133  TRP133      0.0012
     91  CZ2      -16.0360  -10.4580   -5.1540 C.ar  133  TRP133      0.0191
     92  CZ3      -15.9600  -10.0000   -2.7840 C.ar  133  TRP133      0.0001
     93  CH2      -15.7410  -10.8480   -3.8770 C.ar  133  TRP133      0.0015
     94  N        -19.3170   -5.9900    1.7050 N.3   137  ILE137     -0.1245
     95  CA       -18.4500   -5.3700    2.7000 C.3   137  ILE137      0.1561
     96  C        -19.2920   -4.7340    3.8010 C.2   137  ILE137      0.2260
     97  O        -18.9970   -4.8750    4.9850 O.2   137  ILE137     -0.2867
     98  CB       -17.5530   -4.2900    2.0690 C.3   137  ILE137      0.0252
     99  CG1      -16.5070   -4.9360    1.1570 C.3   137  ILE137      0.0019
    100  CG2      -16.8640   -3.4800    3.1530 C.3   137  ILE137      0.0019
    101  CD1      -15.7240   -3.9480    0.3260 C.3   137  ILE137      0.0001
@<TRIPOS>BOND
     1    12    11    1
     2    11    10   ar
     3    11     9   ar
     4    10     8   ar
     5     9     7   ar
     6     8     6   ar
     7     7     6   ar
     8     6     5    1
     9     1     2    1
    10    71    70   ar
    11    71    69   ar
    12     5     2    1
    13    70    68   ar
    14     2     3    1
    15    69    67   ar
    16    68    66   ar
    17    19    20    1
    18    19    18    1
    19    67    66   ar
    20    66    65    1
    21     3     4    2
    22    61    62    1
    23    17    18    1
    24    17    14    1
    25    65    62    1
    26    13    14    1
    27    62    63    1
    28    14    15    1
    29    63    64    2
    30    15    21   am
    31    15    16    2
    32    77    79    1
    33    77    76    1
    34    21    22    1
    35    76    78    1
    36    76    73    1
    37    72    73    1
    38    22    25    1
    39    22    23    1
    40    25    26    1
    41    73    74    1
    42    33    31    1
    43    23    24    2
    44    27    28    1
    45    74    75    2
    46    31    28    1
    47    31    32    1
    48    28    29    1
    49    88    86   ar
    50    88    89   ar
    51    29    30    2
    52    86    85   ar
    53    89    91   ar
    54    89    87   ar
    55    91    93   ar
    56    85    87   ar
    57    85    84    1
    58    87    90   ar
    59    80    81    1
    60    84    81    1
    61    93    92   ar
    62    34    35    1
    63    81    82    1
    64    39    40    1
    65    39    41    1
    66    39    38    1
    67    90    92   ar
    68    35    38    1
    69    35    36    1
    70    82    83    2
    71    36    37    2
    72    53    52    2
    73    58    56   ar
    74    58    60   ar
    75    56    55   ar
    76    60    59   ar
    77    55    54    1
    78    55    57   ar
    79    52    51    1
    80    54    51    1
    81   101    99    1
    82    51    50    1
    83    59    57   ar
    84    45    44    2
    85    99    98    1
    86    50    44   am
    87    94    95    1
    88    48    47    1
    89    44    43    1
    90    47    49    1
    91    47    46    1
    92    98    95    1
    93    98   100    1
    94    95    96    1
    95    46    43    1
    96    43    42    1
    97    96    97    2
