@<TRIPOS>MOLECULE
tmp/4nc3A06.pdb
 99 92 0 0 0
SMALL
GASTEIGER

@<TRIPOS>ATOM
      1  N        -12.4530  -25.3030   -5.7220 N.3    22  ILE22      -0.1245
      2  CA       -11.2710  -24.7020   -6.3250 C.3    22  ILE22       0.1561
      3  C        -11.1740  -25.0510   -7.8070 C.2    22  ILE22       0.2260
      4  O        -11.0350  -24.1690   -8.6530 O.2    22  ILE22      -0.2867
      5  CB        -9.9890  -25.1520   -5.6040 C.3    22  ILE22       0.0252
      6  CG1       -9.9970  -24.6460   -4.1580 C.3    22  ILE22       0.0019
      7  CG2       -8.7630  -24.6300   -6.3330 C.3    22  ILE22       0.0019
      8  CD1       -8.8170  -25.1100   -3.3290 C.3    22  ILE22       0.0001
      9  N        -11.7660  -22.2970  -10.7320 N.3    26  THR26      -0.1218
     10  CA       -10.5620  -22.1190  -11.5360 C.3    26  THR26       0.1862
     11  C        -10.8920  -22.3000  -13.0150 C.2    26  THR26       0.2287
     12  O        -10.4660  -21.5090  -13.8580 O.2    26  THR26      -0.2866
     13  CB        -9.4560  -23.1230  -11.1440 C.3    26  THR26       0.1770
     14  OG1       -9.0370  -22.8840   -9.7950 O.3    26  THR26      -0.2211
     15  CG2       -8.2540  -22.9850  -12.0680 C.3    26  THR26       0.0375
     16  N        -12.8840  -19.3040  -14.3150 N.3    29  ILE29      -0.1231
     17  CA       -12.0140  -18.1450  -14.4640 C.3    29  ILE29       0.1692
     18  C        -11.1510  -18.3010  -15.7100 C.2    29  ILE29       0.2591
     19  O        -11.0210  -17.3710  -16.5040 O.2    29  ILE29      -0.2718
     20  CB       -11.1190  -17.9500  -13.2240 C.3    29  ILE29       0.0266
     21  CG1      -11.9730  -17.5570  -12.0140 C.3    29  ILE29       0.0019
     22  CG2      -10.0700  -16.8800  -13.4890 C.3    29  ILE29       0.0020
     23  CD1      -11.2330  -17.6000  -10.6920 C.3    29  ILE29       0.0001
     24  N        -10.5700  -19.4860  -15.8790 N.am   30  LEU30      -0.1980
     25  CA        -9.7590  -19.7870  -17.0550 C.3    30  LEU30       0.1596
     26  C        -10.5680  -19.6120  -18.3340 C.2    30  LEU30       0.2287
     27  O        -10.1170  -18.9740  -19.2850 O.2    30  LEU30      -0.2864
     28  CB        -9.2270  -21.2210  -16.9790 C.3    30  LEU30       0.0297
     29  CG        -8.0380  -21.4620  -16.0490 C.3    30  LEU30       0.0022
     30  CD1       -7.7720  -22.9530  -15.8960 C.3    30  LEU30       0.0001
     31  CD2       -6.8040  -20.7530  -16.5790 C.3    30  LEU30       0.0001
     32  N        -11.2380  -16.0040  -19.0650 N.3    33  SER33      -0.1217
     33  CA        -9.9900  -15.2900  -19.3120 C.3    33  SER33       0.1889
     34  C         -9.3820  -15.6220  -20.6730 C.2    33  SER33       0.2288
     35  O         -8.8370  -14.7470  -21.3420 O.2    33  SER33      -0.2866
     36  CB        -8.9750  -15.5990  -18.2070 C.3    33  SER33       0.2089
     37  OG        -9.3500  -14.9970  -16.9800 O.3    33  SER33      -0.2183
     38  N        -14.0280  -18.9190   -5.2850 N.3    54  LEU54      -0.1245
     39  CA       -12.6710  -19.4480   -5.2600 C.3    54  LEU54       0.1561
     40  C        -11.9840  -19.0970   -3.9460 C.2    54  LEU54       0.2260
     41  O        -11.2760  -19.9220   -3.3660 O.2    54  LEU54      -0.2867
     42  CB       -11.8570  -18.8880   -6.4290 C.3    54  LEU54       0.0270
     43  CG       -10.3790  -19.2920   -6.4590 C.3    54  LEU54       0.0019
     44  CD1      -10.2280  -20.7770   -6.7540 C.3    54  LEU54       0.0001
     45  CD2       -9.6140  -18.4610   -7.4760 C.3    54  LEU54       0.0001
     46  N        -12.8860  -21.1290   -0.9600 N.3    57  GLY57      -0.1210
     47  CA       -12.2020  -22.4090   -0.9890 C.3    57  GLY57       0.1956
     48  C        -10.7450  -22.3330   -0.5690 C.2    57  GLY57       0.2612
     49  O        -10.1980  -23.2970   -0.0340 O.2    57  GLY57      -0.2717
     50  N        -10.1150  -21.1870   -0.8090 N.am   58  LEU58      -0.1965
     51  CA        -8.6960  -21.0150   -0.5090 C.3    58  LEU58       0.1728
     52  C         -8.4360  -20.5780    0.9310 C.2    58  LEU58       0.2616
     53  O         -7.5610  -21.1260    1.6020 O.2    58  LEU58      -0.2715
     54  CB        -8.0720  -19.9890   -1.4590 C.3    58  LEU58       0.0311
     55  CG        -7.8000  -20.4490   -2.8910 C.3    58  LEU58       0.0022
     56  CD1       -7.4000  -19.2650   -3.7550 C.3    58  LEU58       0.0001
     57  CD2       -6.7170  -21.5160   -2.9160 C.3    58  LEU58       0.0001
     58  N         -9.1940  -19.5940    1.4020 N.am   59  PHE59      -0.1974
     59  CA        -8.8860  -18.9390    2.6690 C.3    59  PHE59       0.1639
     60  C         -9.8560  -19.2870    3.7980 C.2    59  PHE59       0.2290
     61  O         -9.4770  -19.2690    4.9690 O.2    59  PHE59      -0.2864
     62  CB        -8.8440  -17.4220    2.4630 C.3    59  PHE59       0.0560
     63  CG        -7.7450  -16.9680    1.5400 C.ar   59  PHE59      -0.0200
     64  CD1       -6.4370  -17.3760    1.7480 C.ar   59  PHE59      -0.0042
     65  CD2       -8.0210  -16.1480    0.4570 C.ar   59  PHE59      -0.0042
     66  CE1       -5.4230  -16.9660    0.9010 C.ar   59  PHE59      -0.0003
     67  CE2       -7.0100  -15.7370   -0.3940 C.ar   59  PHE59      -0.0003
     68  CZ        -5.7110  -16.1460   -0.1710 C.ar   59  PHE59      -0.0000
     69  N        -10.3830  -24.1420    4.4590 N.3    62  PRO62      -0.2102
     70  CA        -9.2810  -24.8480    5.1270 C.3    62  PRO62       0.1504
     71  C         -9.1300  -24.4690    6.5990 C.2    62  PRO62       0.2575
     72  O         -8.7140  -25.3040    7.4000 O.2    62  PRO62      -0.2718
     73  CB        -8.0450  -24.4050    4.3340 C.3    62  PRO62       0.0282
     74  CG        -8.5720  -23.9450    3.0210 C.3    62  PRO62       0.0208
     75  CD        -9.9030  -23.3350    3.3250 C.3    62  PRO62       0.0893
     76  N         -9.4520  -23.2270    6.9470 N.am   63  ILE63      -0.1980
     77  CA        -9.4150  -22.8030    8.3400 C.3    63  ILE63       0.1595
     78  C        -10.6130  -23.4040    9.0670 C.2    63  ILE63       0.2287
     79  O        -10.4910  -23.9020   10.1870 O.2    63  ILE63      -0.2864
     80  CB        -9.4470  -21.2700    8.4770 C.3    63  ILE63       0.0276
     81  CG1       -8.3320  -20.6300    7.6460 C.3    63  ILE63       0.0022
     82  CG2       -9.3090  -20.8640    9.9350 C.3    63  ILE63       0.0022
     83  CD1       -6.9390  -21.0800    8.0330 C.3    63  ILE63       0.0001
     84  N         -9.6400  -26.7650    9.7910 N.3    66  LEU66      -0.1245
     85  CA        -8.7320  -26.8700   10.9260 C.3    66  LEU66       0.1561
     86  C         -9.5210  -26.8640   12.2310 C.2    66  LEU66       0.2260
     87  O         -9.3580  -27.7480   13.0700 O.2    66  LEU66      -0.2867
     88  CB        -7.7190  -25.7220   10.9190 C.3    66  LEU66       0.0270
     89  CG        -6.5240  -25.8650    9.9740 C.3    66  LEU66       0.0019
     90  CD1       -5.6510  -24.6200   10.0310 C.3    66  LEU66       0.0001
     91  CD2       -5.7070  -27.1010   10.3150 C.3    66  LEU66       0.0001
     92  N         -4.3350  -20.9720   15.3460 N.3    76  LEU76      -0.1245
     93  CA        -3.7160  -19.8230   14.6960 C.3    76  LEU76       0.1561
     94  C         -3.6620  -18.6170   15.6310 C.2    76  LEU76       0.2260
     95  O         -4.2850  -18.6210   16.6920 O.2    76  LEU76      -0.2867
     96  CB        -4.4900  -19.4550   13.4300 C.3    76  LEU76       0.0270
     97  CG        -4.1810  -20.2840   12.1830 C.3    76  LEU76       0.0019
     98  CD1       -4.4490  -21.7620   12.4260 C.3    76  LEU76       0.0001
     99  CD2       -4.9960  -19.7710   11.0060 C.3    76  LEU76       0.0001
@<TRIPOS>BOND
     1    35    34    2
     2    34    33    1
     3    33    32    1
     4    33    36    1
     5    27    26    2
     6    26    25    1
     7    36    37    1
     8    25    28    1
     9    25    24    1
    10    28    29    1
    11    31    29    1
    12    19    18    2
    13    29    30    1
    14    24    18   am
    15    18    17    1
    16    17    16    1
    17    17    20    1
    18    12    11    2
    19    22    20    1
    20    20    21    1
    21    11    10    1
    22    15    13    1
    23    21    23    1
    24    10    13    1
    25    10     9    1
    26    13    14    1
    27     4     3    2
    28     3     2    1
    29    45    43    1
    30    44    43    1
    31    43    42    1
    32    42    39    1
    33     7     5    1
    34     2     1    1
    35     2     5    1
    36     5     6    1
    37    38    39    1
    38    39    40    1
    39     6     8    1
    40    40    41    2
    41    56    55    1
    42    57    55    1
    43    55    54    1
    44    54    51    1
    45    47    46    1
    46    47    48    1
    47    50    48   am
    48    50    51    1
    49    48    49    2
    50    51    52    1
    51    67    68   ar
    52    67    65   ar
    53    68    66   ar
    54    65    63   ar
    55    66    64   ar
    56    52    58   am
    57    52    53    2
    58    58    59    1
    59    63    64   ar
    60    63    62    1
    61    62    59    1
    62    59    60    1
    63    74    75    1
    64    74    73    1
    65    75    69    1
    66    60    61    2
    67    73    70    1
    68    69    70    1
    69    70    71    1
    70    71    76   am
    71    71    72    2
    72    76    77    1
    73    81    83    1
    74    81    80    1
    75    77    80    1
    76    77    78    1
    77    80    82    1
    78    78    79    2
    79    84    85    1
    80    89    90    1
    81    89    91    1
    82    89    88    1
    83    88    85    1
    84    85    86    1
    85    99    97    1
    86    97    98    1
    87    97    96    1
    88    86    87    2
    89    96    93    1
    90    93    92    1
    91    93    94    1
    92    94    95    2
