@<TRIPOS>MOLECULE
tmp/4nc3A07.pdb
 105 101 0 0 0
SMALL
GASTEIGER

@<TRIPOS>ATOM
      1  N        -19.7010   -3.8450   -2.4860 N.3   134  LEU134     -0.1231
      2  CA       -19.9000   -2.8170   -1.4740 C.3   134  LEU134      0.1693
      3  C        -20.9810   -3.2510   -0.4890 C.2   134  LEU134      0.2591
      4  O        -20.8390   -3.0720    0.7210 O.2   134  LEU134     -0.2718
      5  CB       -20.2710   -1.4860   -2.1300 C.3   134  LEU134      0.0284
      6  CG       -19.1220   -0.7730   -2.8440 C.3   134  LEU134      0.0019
      7  CD1      -19.6480    0.3950   -3.6590 C.3   134  LEU134      0.0001
      8  CD2      -18.0780   -0.3020   -1.8430 C.3   134  LEU134      0.0001
      9  N        -22.0590   -3.8250   -1.0120 N.am  135  ILE135     -0.1980
     10  CA       -23.1310   -4.3420   -0.1720 C.3   135  ILE135      0.1595
     11  C        -22.6140   -5.4680    0.7210 C.2   135  ILE135      0.2287
     12  O        -23.0350   -5.6010    1.8690 O.2   135  ILE135     -0.2864
     13  CB       -24.3010   -4.8720   -1.0190 C.3   135  ILE135      0.0276
     14  CG1      -24.9860   -3.7190   -1.7570 C.3   135  ILE135      0.0022
     15  CG2      -25.3070   -5.6010   -0.1370 C.3   135  ILE135      0.0022
     16  CD1      -25.9870   -4.1690   -2.8000 C.3   135  ILE135      0.0001
     17  N        -20.3380   -4.0240    3.3970 N.3   138  GLY138     -0.1210
     18  CA       -21.2450   -3.4010    4.3400 C.3   138  GLY138      0.1956
     19  C        -21.8160   -4.3940    5.3330 C.2   138  GLY138      0.2611
     20  O        -21.7750   -4.1720    6.5410 O.2   138  GLY138     -0.2717
     21  N        -22.3530   -5.4950    4.8190 N.am  139  ILE139     -0.1979
     22  CA       -22.9900   -6.5080    5.6540 C.3   139  ILE139      0.1595
     23  C        -21.9940   -7.2190    6.5760 C.2   139  ILE139      0.2287
     24  O        -22.3440   -7.6180    7.6850 O.2   139  ILE139     -0.2864
     25  CB       -23.7130   -7.5570    4.7820 C.3   139  ILE139      0.0276
     26  CG1      -24.9040   -6.9200    4.0620 C.3   139  ILE139      0.0022
     27  CG2      -24.1820   -8.7280    5.6280 C.3   139  ILE139      0.0022
     28  CD1      -25.5020   -7.7920    2.9800 C.3   139  ILE139      0.0001
     29  N        -19.5690   -5.4090   10.4740 N.3   142  PRO142     -0.2116
     30  CA       -19.7690   -5.3640   11.9260 C.3   142  PRO142      0.1372
     31  C        -18.8650   -6.3300   12.6910 C.2   142  PRO142      0.2244
     32  O        -18.5120   -6.0490   13.8350 O.2   142  PRO142     -0.2868
     33  CB       -21.2380   -5.7700   12.0920 C.3   142  PRO142      0.0268
     34  CG       -21.8710   -5.4720   10.7820 C.3   142  PRO142      0.0207
     35  CD       -20.8120   -5.7470    9.7600 C.3   142  PRO142      0.0892
     36  N        -16.8840   -4.9460   15.8770 N.3   146  LYS146     -0.1245
     37  CA       -17.3470   -5.4030   17.1800 C.3   146  LYS146      0.1561
     38  C        -16.2370   -6.1740   17.8850 C.2   146  LYS146      0.2260
     39  O        -16.0280   -6.0230   19.0890 O.2   146  LYS146     -0.2867
     40  CB       -18.5780   -6.2950   17.0160 C.3   146  LYS146      0.0271
     41  CG       -19.2390   -6.6990   18.3250 C.3   146  LYS146      0.0035
     42  CD       -20.1990   -5.6320   18.8260 C.3   146  LYS146      0.0206
     43  CE       -21.5260   -6.2400   19.2600 C.3   146  LYS146      0.1093
     44  NZ       -22.2740   -6.8330   18.1140 N.3   146  LYS146     -0.1314
     45  N        -23.0890  -11.6340   22.0100 N.3   165  ARG165     -0.1231
     46  CA       -22.3520  -10.5180   21.4320 C.3   165  ARG165      0.1694
     47  C        -22.7980  -10.2170   20.0020 C.2   165  ARG165      0.2592
     48  O        -22.6540   -9.0900   19.5240 O.2   165  ARG165     -0.2718
     49  CB       -20.8590  -10.8340   21.4370 C.3   165  ARG165      0.0321
     50  CG       -19.9720   -9.6140   21.4780 C.3   165  ARG165      0.0489
     51  CD       -18.5030  -10.0070   21.4690 C.3   165  ARG165      0.2205
     52  NE       -17.6270   -8.8570   21.2760 N.pl3 165  ARG165     -0.0865
     53  CZ       -17.3690   -7.9420   22.2050 C.cat 165  ARG165      0.5346
     54  NH1      -17.9240   -8.0240   23.4080 N.pl3 165  ARG165      0.1354
     55  NH2      -16.5570   -6.9340   21.9260 N.pl3 165  ARG165      0.1354
     56  N        -23.3300  -11.2290   19.3210 N.am  166  PHE166     -0.1976
     57  CA       -23.6510  -11.1140   17.9020 C.3   166  PHE166      0.1639
     58  C        -25.0460  -11.6340   17.5470 C.2   166  PHE166      0.2290
     59  O        -25.3190  -11.9390   16.3880 O.2   166  PHE166     -0.2864
     60  CB       -22.5920  -11.8500   17.0770 C.3   166  PHE166      0.0560
     61  CG       -21.2640  -11.1480   17.0390 C.ar  166  PHE166     -0.0200
     62  CD1      -21.0400  -10.1160   16.1430 C.ar  166  PHE166     -0.0042
     63  CD2      -20.2440  -11.5140   17.9010 C.ar  166  PHE166     -0.0042
     64  CE1      -19.8240   -9.4640   16.1050 C.ar  166  PHE166     -0.0003
     65  CE2      -19.0230  -10.8640   17.8670 C.ar  166  PHE166     -0.0003
     66  CZ       -18.8140   -9.8380   16.9670 C.ar  166  PHE166     -0.0000
     67  N        -27.9050  -10.0270   17.4190 N.3   168  ASP168     -0.1225
     68  CA       -28.5120   -9.0930   16.4730 C.3   168  ASP168      0.1805
     69  C        -27.9110   -9.2580   15.0810 C.2   168  ASP168      0.2597
     70  O        -28.6310   -9.4750   14.1070 O.2   168  ASP168     -0.2718
     71  CB       -28.3140   -7.6470   16.9360 C.3   168  ASP168      0.1424
     72  CG       -29.1530   -7.2960   18.1480 C.2   168  ASP168      0.3668
     73  OD1      -30.1130   -8.0350   18.4510 O.co2 168  ASP168     -0.2456
     74  OD2      -28.8550   -6.2670   18.7910 O.co2 168  ASP168     -0.2456
     75  N        -26.5890   -9.1410   14.9930 N.am  169  PHE169     -0.1976
     76  CA       -25.8950   -9.3010   13.7210 C.3   169  PHE169      0.1639
     77  C        -26.3090  -10.5930   13.0330 C.2   169  PHE169      0.2290
     78  O        -26.4680  -10.6390   11.8160 O.2   169  PHE169     -0.2864
     79  CB       -24.3800   -9.3000   13.9180 C.3   169  PHE169      0.0560
     80  CG       -23.6250   -9.7720   12.7140 C.ar  169  PHE169     -0.0200
     81  CD1      -23.5690   -8.9930   11.5720 C.ar  169  PHE169     -0.0042
     82  CD2      -22.9870  -10.9990   12.7160 C.ar  169  PHE169     -0.0042
     83  CE1      -22.8830   -9.4280   10.4560 C.ar  169  PHE169     -0.0003
     84  CE2      -22.2960  -11.4380   11.6020 C.ar  169  PHE169     -0.0003
     85  CZ       -22.2450  -10.6510   10.4710 C.ar  169  PHE169     -0.0000
     86  N        -30.2220   -9.7960   11.9470 N.3   172  PHE172     -0.1227
     87  CA       -30.3150   -8.7900   10.8930 C.3   172  PHE172      0.1736
     88  C        -29.3420   -9.0730    9.7520 C.2   172  PHE172      0.2596
     89  O        -29.6250   -8.7660    8.5940 O.2   172  PHE172     -0.2718
     90  CB       -30.0470   -7.4010   11.4720 C.3   172  PHE172      0.0547
     91  CG       -31.0370   -6.9830   12.5200 C.ar  172  PHE172     -0.0202
     92  CD1      -32.3900   -7.2240   12.3460 C.ar  172  PHE172     -0.0042
     93  CD2      -30.6160   -6.3610   13.6830 C.ar  172  PHE172     -0.0042
     94  CE1      -33.3050   -6.8450   13.3070 C.ar  172  PHE172     -0.0003
     95  CE2      -31.5280   -5.9810   14.6500 C.ar  172  PHE172     -0.0003
     96  CZ       -32.8740   -6.2230   14.4610 C.ar  172  PHE172     -0.0000
     97  N        -28.1910   -9.6470   10.0840 N.am  173  GLY173     -0.1957
     98  CA       -27.2330  -10.0510    9.0730 C.3   173  GLY173      0.1869
     99  C        -27.8150  -11.1310    8.1810 C.2   173  GLY173      0.2309
    100  O        -27.6320  -11.1120    6.9630 O.2   173  GLY173     -0.2863
    101  N        -30.2650   -9.5790    5.9900 N.3   176  ALA176     -0.1245
    102  CA       -29.6190   -8.7290    4.9960 C.3   176  ALA176      0.1562
    103  C        -28.9270   -9.5340    3.8970 C.2   176  ALA176      0.2260
    104  O        -28.9130   -9.1280    2.7350 O.2   176  ALA176     -0.2867
    105  CB       -28.6150   -7.8050    5.6730 C.3   176  ALA176      0.0290
@<TRIPOS>BOND
     1     7     6    1
     2     6     5    1
     3     6     8    1
     4    16    14    1
     5     1     2    1
     6     5     2    1
     7    14    13    1
     8     2     3    1
     9    13    10    1
    10    13    15    1
    11     9     3   am
    12     9    10    1
    13     3     4    2
    14    10    11    1
    15    11    12    2
    16   104   103    2
    17    28    26    1
    18    17    18    1
    19   103   102    1
    20    26    25    1
    21    18    19    1
    22    25    27    1
    23    25    22    1
    24    21    19   am
    25    21    22    1
    26   102   105    1
    27   102   101    1
    28    19    20    2
    29    22    23    1
    30    23    24    2
    31   100    99    2
    32    99    98    1
    33    89    88    2
    34    98    97    1
    35    88    97   am
    36    88    87    1
    37    35    29    1
    38    35    34    1
    39    83    85   ar
    40    83    81   ar
    41    85    84   ar
    42    29    30    1
    43    34    33    1
    44    87    90    1
    45    87    86    1
    46    90    91    1
    47    81    80   ar
    48    84    82   ar
    49    78    77    2
    50    30    33    1
    51    30    31    1
    52    92    91   ar
    53    92    94   ar
    54    91    93   ar
    55    31    32    2
    56    80    82   ar
    57    80    79    1
    58    77    76    1
    59    94    96   ar
    60    93    95   ar
    61    76    79    1
    62    76    75    1
    63    70    69    2
    64    96    95   ar
    65    75    69   am
    66    69    68    1
    67    36    37    1
    68    64    62   ar
    69    64    66   ar
    70    62    61   ar
    71    59    58    2
    72    68    71    1
    73    68    67    1
    74    71    72    1
    75    66    65   ar
    76    40    37    1
    77    40    41    1
    78    61    60    1
    79    61    63   ar
    80    60    57    1
    81    37    38    1
    82    58    57    1
    83    65    63   ar
    84    38    39    2
    85    57    56    1
    86    44    43    1
    87    72    73   ar
    88    72    74   ar
    89    41    42    1
    90    42    43    1
    91    56    47   am
    92    48    47    2
    93    47    46    1
    94    52    51    1
    95    52    53    2
    96    46    49    1
    97    46    45    1
    98    49    50    1
    99    51    50    1
   100    55    53    1
   101    53    54    1
