@<TRIPOS>MOLECULE
tmp/4ncaA00.pdb
 156 152 0 0 0
SMALL
GASTEIGER

@<TRIPOS>ATOM
      1  N        -67.9610   16.6290   10.1350 N.3   193  ASN193     -0.1240
      2  CA       -69.2000   17.3450   10.4220 C.3   193  ASN193      0.1653
      3  C        -69.7970   17.9050    9.1360 C.2   193  ASN193      0.2266
      4  O        -69.0820   18.1170    8.1540 O.2   193  ASN193     -0.2867
      5  CB       -68.9650   18.4870   11.4170 C.3   193  ASN193      0.1155
      6  CG       -68.3250   18.0260   12.7120 C.2   193  ASN193      0.2627
      7  OD1      -68.6150   16.9390   13.2150 O.2   193  ASN193     -0.2716
      8  ND2      -67.4510   18.8630   13.2660 N.am  193  ASN193     -0.0877
      9  N        -71.6230   20.7780    9.3060 N.3   195  TYR195     -0.1241
     10  CA       -71.6710   22.2170    9.5580 C.3   195  TYR195      0.1605
     11  C        -70.3180   22.9170    9.3820 C.2   195  TYR195      0.2264
     12  O        -70.2720   24.1160    9.1010 O.2   195  TYR195     -0.2867
     13  CB       -72.2150   22.4910   10.9660 C.3   195  TYR195      0.0534
     14  CG       -71.6970   21.5680   12.0510 C.ar  195  TYR195     -0.0201
     15  CD1      -72.3730   20.3970   12.3710 C.ar  195  TYR195     -0.0009
     16  CD2      -70.5500   21.8790   12.7710 C.ar  195  TYR195     -0.0009
     17  CE1      -71.9150   19.5530   13.3670 C.ar  195  TYR195      0.0417
     18  CE2      -70.0820   21.0400   13.7710 C.ar  195  TYR195      0.0417
     19  CZ       -70.7720   19.8790   14.0650 C.ar  195  TYR195      0.1957
     20  OH       -70.3200   19.0350   15.0560 O.3   195  TYR195     -0.2866
     21  N        -64.3410   20.1960    9.9240 N.3   198  ARG198     -0.1245
     22  CA       -63.6530   19.3810   10.9160 C.3   198  ARG198      0.1563
     23  C        -63.9650   17.9010   10.7240 C.2   198  ARG198      0.2260
     24  O        -65.1040   17.5310   10.4400 O.2   198  ARG198     -0.2867
     25  CB       -64.0360   19.8340   12.3280 C.3   198  ARG198      0.0307
     26  CG       -63.4740   21.2030   12.7010 C.3   198  ARG198      0.0489
     27  CD       -64.3190   21.9020   13.7640 C.3   198  ARG198      0.2205
     28  NE       -64.3730   21.1550   15.0170 N.pl3 198  ARG198     -0.0865
     29  CZ       -65.4710   21.0060   15.7510 C.cat 198  ARG198      0.5346
     30  NH1      -66.6160   21.5520   15.3540 N.pl3 198  ARG198      0.1354
     31  NH2      -65.4270   20.3080   16.8790 N.pl3 198  ARG198      0.1354
     32  N        -63.3650   13.6110   11.9890 N.3   200  TRP200     -0.1241
     33  CA       -63.1980   12.7400   13.1430 C.3   200  TRP200      0.1605
     34  C        -62.8190   11.3440   12.6870 C.2   200  TRP200      0.2264
     35  O        -62.9120   11.0220   11.5030 O.2   200  TRP200     -0.2867
     36  CB       -64.4810   12.6560   13.9730 C.3   200  TRP200      0.0550
     37  CG       -65.1360   13.9570   14.2810 C.ar  200  TRP200      0.0003
     38  CD1      -65.9850   14.6570   13.4750 C.ar  200  TRP200      0.0946
     39  CD2      -65.0320   14.7020   15.4990 C.ar  200  TRP200      0.0152
     40  NE1      -66.4030   15.8030   14.1090 N.ar  200  TRP200     -0.2442
     41  CE2      -65.8310   15.8540   15.3570 C.ar  200  TRP200      0.0810
     42  CE3      -64.3320   14.5140   16.6970 C.ar  200  TRP200      0.0012
     43  CZ2      -65.9530   16.8120   16.3610 C.ar  200  TRP200      0.0191
     44  CZ3      -64.4530   15.4640   17.6940 C.ar  200  TRP200      0.0001
     45  CH2      -65.2570   16.5990   17.5200 C.ar  200  TRP200      0.0015
     46  N        -73.8890   15.3380   28.2830 N.3   215  LEU215     -0.1231
     47  CA       -72.7950   16.0370   27.6220 C.3   215  LEU215      0.1678
     48  C        -72.0490   16.9100   28.6200 C.2   215  LEU215      0.2434
     49  O        -72.6650   17.5710   29.4570 O.2   215  LEU215     -0.2733
     50  CB       -73.3140   16.8780   26.4550 C.3   215  LEU215      0.0284
     51  CG       -73.2830   16.2130   25.0790 C.3   215  LEU215      0.0019
     52  CD1      -71.8770   16.2220   24.5520 C.3   215  LEU215      0.0001
     53  CD2      -73.7960   14.7830   25.1460 C.3   215  LEU215      0.0001
     54  N        -70.7110   16.9090   28.5340 N.am  216  PRO216     -0.2718
     55  CA       -69.8220   17.6490   29.4350 C.3   216  PRO216      0.1535
     56  C        -70.1490   19.1370   29.4710 C.2   216  PRO216      0.2599
     57  O        -69.3480   19.9550   29.0190 O.2   216  PRO216     -0.2715
     58  CB       -68.4320   17.4230   28.8760 C.3   216  PRO216      0.0310
     59  CG       -68.4610   16.0300   28.2290 C.3   216  PRO216      0.0237
     60  CD       -69.8670   15.9900   27.6060 C.3   216  PRO216      0.0939
     61  N        -71.3170   19.4760   30.0080 N.am  217  GLY217     -0.1955
     62  CA       -71.7810   20.8500   30.0280 C.3   217  GLY217      0.1869
     63  C        -73.1900   20.9770   30.5760 C.2   217  GLY217      0.2309
     64  O        -73.6560   22.0820   30.8630 O.2   217  GLY217     -0.2863
     65  N        -76.3690   19.9610   29.1570 N.3   219  LEU219     -0.1245
     66  CA       -77.4030   19.6000   28.1890 C.3   219  LEU219      0.1561
     67  C        -77.1180   18.2560   27.5270 C.2   219  LEU219      0.2260
     68  O        -76.0640   17.6580   27.7370 O.2   219  LEU219     -0.2867
     69  CB       -77.5610   20.6890   27.1190 C.3   219  LEU219      0.0270
     70  CG       -76.4170   21.6570   26.8140 C.3   219  LEU219      0.0019
     71  CD1      -75.1910   20.9360   26.2690 C.3   219  LEU219      0.0001
     72  CD2      -76.8900   22.7260   25.8350 C.3   219  LEU219      0.0001
     73  N        -76.7440   15.7740   24.0260 N.3   221  LEU221     -0.1245
     74  CA       -76.2150   15.8230   22.6630 C.3   221  LEU221      0.1561
     75  C        -77.1920   16.4800   21.6950 C.2   221  LEU221      0.2260
     76  O        -76.8740   17.4730   21.0160 O.2   221  LEU221     -0.2867
     77  CB       -75.9020   14.4050   22.1780 C.3   221  LEU221      0.0270
     78  CG       -74.5180   14.0610   21.6290 C.3   221  LEU221      0.0019
     79  CD1      -74.5570   12.7040   20.9400 C.3   221  LEU221      0.0001
     80  CD2      -74.0310   15.1300   20.6770 C.3   221  LEU221      0.0001
     81  N        -78.1780   20.0580   22.2880 N.3   224  TYR224     -0.1227
     82  CA       -76.9470   20.8230   22.1380 C.3   224  TYR224      0.1736
     83  C        -76.7930   21.1970   20.6730 C.2   224  TYR224      0.2595
     84  O        -76.6090   22.3700   20.3410 O.2   224  TYR224     -0.2718
     85  CB       -75.7120   20.0510   22.6100 C.3   224  TYR224      0.0548
     86  CG       -74.4350   20.6050   22.0130 C.ar  224  TYR224     -0.0200
     87  CD1      -73.9630   21.8600   22.3780 C.ar  224  TYR224     -0.0009
     88  CD2      -73.7140   19.8860   21.0660 C.ar  224  TYR224     -0.0009
     89  CE1      -72.8070   22.3810   21.8220 C.ar  224  TYR224      0.0417
     90  CE2      -72.5520   20.3970   20.5080 C.ar  224  TYR224      0.0417
     91  CZ       -72.1040   21.6430   20.8910 C.ar  224  TYR224      0.1957
     92  OH       -70.9490   22.1530   20.3420 O.3   224  TYR224     -0.2866
     93  N        -76.8760   20.1970   19.7980 N.am  225  HIS225     -0.1975
     94  CA       -76.7980   20.4560   18.3580 C.3   225  HIS225      0.1656
     95  C        -78.0110   21.2310   17.8340 C.2   225  HIS225      0.2291
     96  O        -77.9040   21.9930   16.8690 O.2   225  HIS225     -0.2864
     97  CB       -76.6510   19.1450   17.5840 C.3   225  HIS225      0.0771
     98  CG       -75.2830   18.5450   17.6650 C.ar  225  HIS225      0.0820
     99  ND1      -74.2110   19.0380   16.9520 N.ar  225  HIS225     -0.2267
    100  CD2      -74.8140   17.4870   18.3670 C.ar  225  HIS225      0.1154
    101  CE1      -73.1390   18.3120   17.2160 C.ar  225  HIS225      0.1986
    102  NE2      -73.4790   17.3640   18.0700 N.ar  225  HIS225     -0.2212
    103  N        -77.6400   24.9650   18.2820 N.3   228  LYS228     -0.1245
    104  CA       -76.8100   25.5220   17.2200 C.3   228  LYS228      0.1561
    105  C        -77.5470   25.5350   15.8810 C.2   228  LYS228      0.2260
    106  O        -77.0430   26.0750   14.8950 O.2   228  LYS228     -0.2867
    107  CB       -75.5100   24.7270   17.0810 C.3   228  LYS228      0.0271
    108  CG       -74.5940   24.7690   18.2950 C.3   228  LYS228      0.0035
    109  CD       -73.8070   26.0680   18.3540 C.3   228  LYS228      0.0206
    110  CE       -72.3450   25.8060   18.6850 C.3   228  LYS228      0.1093
    111  NZ       -72.1890   24.9650   19.9020 N.3   228  LYS228     -0.1314
    112  N        -78.4480   22.8410   13.8810 N.3   230  ARG230     -0.1245
    113  CA       -77.7190   21.9820   12.9560 C.3   230  ARG230      0.1563
    114  C        -78.6210   20.9090   12.3570 C.2   230  ARG230      0.2260
    115  O        -78.4580   20.5280   11.1980 O.2   230  ARG230     -0.2867
    116  CB       -76.5220   21.3320   13.6650 C.3   230  ARG230      0.0307
    117  CG       -75.4090   22.3070   14.0210 C.3   230  ARG230      0.0489
    118  CD       -74.3520   21.6780   14.9180 C.3   230  ARG230      0.2205
    119  NE       -73.2220   22.5840   15.1200 N.pl3 230  ARG230     -0.0865
    120  CZ       -72.2110   22.3550   15.9530 C.cat 230  ARG230      0.5346
    121  NH1      -72.1760   21.2430   16.6730 N.pl3 230  ARG230      0.1354
    122  NH2      -71.2310   23.2430   16.0640 N.pl3 230  ARG230      0.1354
    123  N        -59.7560    9.6840   23.8280 N.3   250  LYS250     -0.1245
    124  CA       -60.9390   10.2770   24.4410 C.3   250  LYS250      0.1561
    125  C        -62.1390   10.1690   23.5110 C.2   250  LYS250      0.2260
    126  O        -62.3430   11.0350   22.6600 O.2   250  LYS250     -0.2867
    127  CB       -60.6790   11.7300   24.8010 C.3   250  LYS250      0.0271
    128  CG       -61.8570   12.5540   25.2920 C.3   250  LYS250      0.0035
    129  CD       -62.1610   12.2230   26.7350 C.3   250  LYS250      0.0206
    130  CE       -63.0780   13.2940   27.3020 C.3   250  LYS250      0.1093
    131  NZ       -64.4530   13.0900   26.8950 N.3   250  LYS250     -0.1314
    132  N        -65.8610   10.3550   21.9360 N.3   252  ILE252     -0.1231
    133  CA       -66.7800   11.4860   21.9280 C.3   252  ILE252      0.1678
    134  C        -68.1000   11.1010   21.2680 C.2   252  ILE252      0.2434
    135  O        -68.1080   10.4700   20.2100 O.2   252  ILE252     -0.2733
    136  CB       -66.1560   12.7040   21.1980 C.3   252  ILE252      0.0265
    137  CG1      -65.0270   13.3050   22.0410 C.3   252  ILE252      0.0019
    138  CG2      -67.2040   13.7610   20.8950 C.3   252  ILE252      0.0020
    139  CD1      -64.4700   14.6020   21.4960 C.3   252  ILE252      0.0001
    140  N        -69.2270   11.4600   21.9070 N.am  253  PRO253     -0.2718
    141  CA       -70.5510   11.2250   21.3210 C.3   253  PRO253      0.1535
    142  C        -70.7910   12.1100   20.1010 C.2   253  PRO253      0.2598
    143  O        -70.2920   13.2350   20.0670 O.2   253  PRO253     -0.2715
    144  CB       -71.5160   11.5970   22.4570 C.3   253  PRO253      0.0310
    145  CG       -70.6850   11.6020   23.6990 C.3   253  PRO253      0.0237
    146  CD       -69.3190   12.0220   23.2640 C.3   253  PRO253      0.0939
    147  N        -71.5380   11.6110   19.1190 N.am  254  HIS254     -0.1974
    148  CA       -71.9180   12.4170   17.9610 C.3   254  HIS254      0.1656
    149  C        -73.1700   11.8380   17.3090 C.2   254  HIS254      0.2291
    150  O        -73.6130   10.7470   17.6680 O.2   254  HIS254     -0.2864
    151  CB       -70.7710   12.4900   16.9460 C.3   254  HIS254      0.0771
    152  CG       -70.6840   13.8000   16.2240 C.ar  254  HIS254      0.0820
    153  ND1      -71.7050   14.2920   15.4390 N.ar  254  HIS254     -0.2267
    154  CD2      -69.6910   14.7200   16.1680 C.ar  254  HIS254      0.1154
    155  CE1      -71.3490   15.4600   14.9350 C.ar  254  HIS254      0.1986
    156  NE2      -70.1300   15.7420   15.3620 N.ar  254  HIS254     -0.2212
@<TRIPOS>BOND
     1     4     3    2
     2    12    11    2
     3     3     2    1
     4     9    10    1
     5    11    10    1
     6    10    13    1
     7    21    22    1
     8     1     2    1
     9     2     5    1
    10    24    23    2
    11    23    22    1
    12    22    25    1
    13    13    14    1
    14   115   114    2
    15     5     6    1
    16    35    34    2
    17    32    33    1
    18    14    15   ar
    19    14    16   ar
    20    25    26    1
    21   114   113    1
    22    15    17   ar
    23    34    33    1
    24    26    27    1
    25     6     7    2
    26     6     8   am
    27    16    18   ar
    28   113   116    1
    29   113   112    1
    30    33    36    1
    31    17    19   ar
    32    38    40   ar
    33    38    37   ar
    34   116   117    1
    35    27    28    1
    36    18    19   ar
    37    36    37    1
    38   117   118    1
    39    19    20    1
    40    40    41   ar
    41    37    39   ar
    42   106   105    2
    43   118   119    1
    44   155   156   ar
    45   155   153   ar
    46    28    29    2
    47   119   120    2
    48    30    29    1
    49    41    39   ar
    50    41    43   ar
    51   156   154   ar
    52   153   152   ar
    53    39    42   ar
    54    29    31    1
    55   105   104    1
    56   120   122    1
    57   120   121    1
    58   154   152   ar
    59   152   151    1
    60    43    45   ar
    61    42    44   ar
    62    96    95    2
    63   151   148    1
    64    99   101   ar
    65    99    98   ar
    66   107   104    1
    67   107   108    1
    68   101   102   ar
    69   104   103    1
    70   149   150    2
    71   149   148    1
    72    45    44   ar
    73    97    98    1
    74    97    94    1
    75    98   100   ar
    76    95    94    1
    77   148   147    1
    78   102   100   ar
    79   108   109    1
    80   109   110    1
    81    94    93    1
    82   110   111    1
    83   147   142   am
    84    93    83   am
    85   143   142    2
    86   142   141    1
    87   135   134    2
    88    84    83    2
    89    92    91    1
    90    90    91   ar
    91    90    88   ar
    92    83    82    1
    93    80    78    1
    94    91    89   ar
    95   138   136    1
    96    79    78    1
    97    76    75    2
    98    88    86   ar
    99   136   133    1
   100   136   137    1
   101   134   140   am
   102   134   133    1
   103   141   140    1
   104   141   144    1
   105   139   137    1
   106    78    77    1
   107    75    74    1
   108    89    87   ar
   109   140   146    1
   110   133   132    1
   111    86    87   ar
   112    86    85    1
   113    82    81    1
   114    82    85    1
   115    77    74    1
   116   144   145    1
   117   126   125    2
   118    74    73    1
   119   146   145    1
   120   125   124    1
   121   123   124    1
   122   124   127    1
   123    52    51    1
   124   127   128    1
   125    51    53    1
   126    51    50    1
   127   128   129    1
   128    72    70    1
   129    71    70    1
   130    50    47    1
   131   129   130    1
   132    70    69    1
   133   131   130    1
   134    69    66    1
   135    67    68    2
   136    67    66    1
   137    60    59    1
   138    60    54    1
   139    47    46    1
   140    47    48    1
   141    66    65    1
   142    59    58    1
   143    54    48   am
   144    54    55    1
   145    48    49    2
   146    58    55    1
   147    57    56    2
   148    55    56    1
   149    56    61   am
   150    61    62    1
   151    62    63    1
   152    63    64    2
