@<TRIPOS>MOLECULE
tmp/4ncfA00.pdb
 115 112 0 0 0
SMALL
GASTEIGER

@<TRIPOS>ATOM
      1  N          5.9150   12.4770   37.9750 N.3    12  HIS12      -0.1226
      2  CA         4.8510   11.5690   38.3880 C.3    12  HIS12       0.1752
      3  C          3.5160   12.3160   38.3590 C.2    12  HIS12       0.2596
      4  O          3.4810   13.5400   38.4760 O.2    12  HIS12      -0.2718
      5  CB         5.1420   10.9950   39.7810 C.3    12  HIS12       0.0759
      6  CG         4.2350    9.8710   40.1820 C.ar   12  HIS12       0.0818
      7  ND1        4.6730    8.5680   40.2940 N.ar   12  HIS12      -0.2268
      8  CD2        2.9280    9.8580   40.5340 C.ar   12  HIS12       0.1154
      9  CE1        3.6680    7.7990   40.6720 C.ar   12  HIS12       0.1986
     10  NE2        2.5980    8.5560   40.8250 N.ar   12  HIS12      -0.2212
     11  N          2.4260   11.5790   38.1740 N.am   13  VAL13      -0.1966
     12  CA         1.0920   12.1710   38.1120 C.3    13  VAL13       0.1727
     13  C          0.7970   12.9730   39.3840 C.2    13  VAL13       0.2616
     14  O          1.2350   12.5970   40.4730 O.2    13  VAL13      -0.2715
     15  CB         0.0130   11.0850   37.9090 C.3    13  VAL13       0.0290
     16  CG1       -1.3520   11.7080   37.6940 C.3    13  VAL13       0.0023
     17  CG2        0.3670   10.2150   36.7200 C.3    13  VAL13       0.0023
     18  N          0.0940   14.0950   39.2200 N.am   14  ASP14      -0.1957
     19  CA        -0.3440   14.9580   40.3230 C.3    14  ASP14       0.1840
     20  C          0.8070   15.7120   40.9960 C.2    14  ASP14       0.2623
     21  O          0.6240   16.3080   42.0570 O.2    14  ASP14      -0.2715
     22  CB        -1.1190   14.1460   41.3700 C.3    14  ASP14       0.1450
     23  CG        -2.4310   13.6030   40.8340 C.2    14  ASP14       0.3671
     24  OD1       -2.7180   13.8150   39.6390 O.co2  14  ASP14      -0.2456
     25  OD2       -3.1670   12.9530   41.6070 O.co2  14  ASP14      -0.2456
     26  N          1.9840   15.6940   40.3780 N.am   15  THR15      -0.1937
     27  CA         3.1060   16.4910   40.8690 C.3    15  THR15       0.2028
     28  C          2.8850   17.9770   40.5960 C.2    15  THR15       0.2643
     29  O          3.4250   18.8310   41.2980 O.2    15  THR15      -0.2714
     30  CB         4.4430   16.0600   40.2370 C.3    15  THR15       0.1808
     31  OG1        4.2450   15.7580   38.8500 O.3    15  THR15      -0.2208
     32  CG2        5.0020   14.8390   40.9520 C.3    15  THR15       0.0379
     33  N          2.0920   18.2830   39.5740 N.am   16  GLY16      -0.1939
     34  CA         1.7740   19.6620   39.2560 C.3    16  GLY16       0.2014
     35  C          2.4620   20.2250   38.0280 C.2    16  GLY16       0.2639
     36  O          2.4550   21.4390   37.8170 O.2    16  GLY16      -0.2714
     37  N          3.0550   19.3510   37.2180 N.am   17  LYS17      -0.1963
     38  CA         3.7620   19.7840   36.0130 C.3    17  LYS17       0.1728
     39  C          2.8440   20.5460   35.0530 C.2    17  LYS17       0.2617
     40  O          3.2570   21.5440   34.4630 O.2    17  LYS17      -0.2715
     41  CB         4.4080   18.5860   35.3010 C.3    17  LYS17       0.0311
     42  CG         3.5980   17.3060   35.3520 C.3    17  LYS17       0.0038
     43  CD         4.2240   16.2050   34.5130 C.3    17  LYS17       0.0206
     44  CE         3.3970   14.9300   34.5930 C.3    17  LYS17       0.1093
     45  NZ         1.9630   15.1600   34.2620 N.3    17  LYS17      -0.1314
     46  N          1.6080   20.0800   34.8940 N.am   18  THR18      -0.1937
     47  CA         0.6350   20.8050   34.0800 C.3    18  THR18       0.2028
     48  C          0.3120   22.1480   34.7280 C.2    18  THR18       0.2642
     49  O          0.2820   23.1780   34.0540 O.2    18  THR18      -0.2714
     50  CB        -0.6730   20.0090   33.8810 C.3    18  THR18       0.1808
     51  OG1       -0.3830   18.7550   33.2510 O.3    18  THR18      -0.2208
     52  CG2       -1.6470   20.7900   33.0100 C.3    18  THR18       0.0379
     53  N          0.0670   22.1340   36.0350 N.am   19  LYS19      -0.1977
     54  CA        -0.2280   23.3630   36.7660 C.3    19  LYS19       0.1596
     55  C          0.9530   24.3330   36.7550 C.2    19  LYS19       0.2287
     56  O          0.7690   25.5430   36.6130 O.2    19  LYS19      -0.2864
     57  CB        -0.6370   23.0460   38.2080 C.3    19  LYS19       0.0298
     58  CG        -0.6570   24.2620   39.1230 C.3    19  LYS19       0.0038
     59  CD        -1.9800   25.0090   39.0760 C.3    19  LYS19       0.0206
     60  CE        -3.1210   24.1620   39.5950 C.3    19  LYS19       0.1093
     61  NZ        -4.3930   24.9300   39.6470 N.3    19  LYS19      -0.1314
     62  N          8.2910   20.9780   43.5830 N.3   126  ASN126     -0.1225
     63  CA         7.0010   21.6610   43.6090 C.3   126  ASN126      0.1785
     64  C          6.2420   21.4400   44.9160 C.2   126  ASN126      0.2597
     65  O          6.6180   20.5870   45.7220 O.2   126  ASN126     -0.2718
     66  CB         6.1430   21.2100   42.4270 C.3   126  ASN126      0.1169
     67  CG         5.1200   22.2530   42.0150 C.2   126  ASN126      0.2627
     68  OD1        5.3490   23.4540   42.1620 O.2   126  ASN126     -0.2716
     69  ND2        3.9870   21.7990   41.4940 N.am  126  ASN126     -0.0877
     70  N          5.1820   22.2270   45.1070 N.am  127  LYS127     -0.1980
     71  CA         4.2960   22.1590   46.2750 C.3   127  LYS127      0.1596
     72  C          4.9670   22.5860   47.5830 C.2   127  LYS127      0.2287
     73  O          4.6250   22.0740   48.6490 O.2   127  LYS127     -0.2864
     74  CB         3.7150   20.7460   46.4470 C.3   127  LYS127      0.0298
     75  CG         2.4650   20.4550   45.6280 C.3   127  LYS127      0.0038
     76  CD         2.7870   19.7020   44.3480 C.3   127  LYS127      0.0206
     77  CE         1.7810   18.5830   44.0980 C.3   127  LYS127      0.1093
     78  NZ         0.3690   19.0490   44.1760 N.3   127  LYS127     -0.1314
     79  N          4.5630   25.4310   48.9410 N.3   129  ASP129     -0.1225
     80  CA         3.6120   26.2560   49.6800 C.3   129  ASP129      0.1805
     81  C          2.7880   25.4180   50.6520 C.2   129  ASP129      0.2597
     82  O          2.2040   25.9390   51.6050 O.2   129  ASP129     -0.2718
     83  CB         2.6800   27.0060   48.7270 C.3   129  ASP129      0.1424
     84  CG         1.9430   26.0810   47.7810 C.2   129  ASP129      0.3668
     85  OD1        2.5670   25.6040   46.8100 O.co2 129  ASP129     -0.2456
     86  OD2        0.7390   25.8340   48.0060 O.co2 129  ASP129     -0.2456
     87  N          2.7440   24.1150   50.3960 N.am  130  ARG130     -0.1979
     88  CA         1.9840   23.1860   51.2230 C.3   130  ARG130      0.1597
     89  C          2.6660   22.8940   52.5530 C.2   130  ARG130      0.2287
     90  O          2.0500   22.3060   53.4420 O.2   130  ARG130     -0.2864
     91  CB         1.7000   21.8950   50.4560 C.3   130  ARG130      0.0334
     92  CG         0.4630   22.0290   49.5860 C.3   130  ARG130      0.0492
     93  CD         0.0040   20.7170   48.9970 C.3   130  ARG130      0.2205
     94  NE        -1.3410   20.8350   48.4410 N.pl3 130  ARG130     -0.0865
     95  CZ        -1.9080   19.9310   47.6490 C.cat 130  ARG130      0.5346
     96  NH1       -3.1380   20.1260   47.1910 N.pl3 130  ARG130      0.1354
     97  NH2       -1.2460   18.8350   47.3070 N.pl3 130  ARG130      0.1354
     98  N          6.7150   26.5620   43.6510 N.3   194  SER194     -0.1202
     99  CA         5.2990   26.4550   43.9690 C.3   194  SER194      0.2020
    100  C          4.4880   26.8970   42.7620 C.2   194  SER194      0.2619
    101  O          4.4790   28.0730   42.4040 O.2   194  SER194     -0.2717
    102  CB         4.9440   27.2940   45.1970 C.3   194  SER194      0.2103
    103  OG         3.5570   27.2220   45.4710 O.3   194  SER194     -0.2182
    104  N          3.8170   25.9420   42.1310 N.am  195  ALA195     -0.1965
    105  CA         3.0540   26.2140   40.9210 C.3   195  ALA195      0.1728
    106  C          1.8470   27.1090   41.1890 C.2   195  ALA195      0.2616
    107  O          1.3930   27.8340   40.3020 O.2   195  ALA195     -0.2715
    108  CB         2.6130   24.9150   40.2910 C.3   195  ALA195      0.0334
    109  N          1.3250   27.0450   42.4100 N.am  196  VAL196     -0.1977
    110  CA         0.1860   27.8680   42.8060 C.3   196  VAL196      0.1596
    111  C          0.5790   29.3150   43.0990 C.2   196  VAL196      0.2287
    112  O         -0.0170   30.2470   42.5580 O.2   196  VAL196     -0.2864
    113  CB        -0.5240   27.2790   44.0430 C.3   196  VAL196      0.0276
    114  CG1       -1.5470   28.2580   44.5920 C.3   196  VAL196      0.0022
    115  CG2       -1.1810   25.9580   43.6920 C.3   196  VAL196      0.0022
@<TRIPOS>BOND
     1    52    50    1
     2    51    50    1
     3    50    47    1
     4    49    48    2
     5    47    48    1
     6    47    46    1
     7    45    44    1
     8    40    39    2
     9    43    44    1
    10    43    42    1
    11    48    53   am
    12    46    39   am
    13    39    38    1
    14    41    42    1
    15    41    38    1
    16    38    37    1
    17    53    54    1
    18    56    55    2
    19    17    15    1
    20    55    54    1
    21    54    57    1
    22    37    35   am
    23    16    15    1
    24    36    35    2
    25    15    12    1
    26     1     2    1
    27    35    34    1
    28    12    11    1
    29    12    13    1
    30    11     3   am
    31    57    58    1
    32     3     2    1
    33     3     4    2
    34     2     5    1
    35    31    30    1
    36    59    58    1
    37    59    60    1
    38    18    13   am
    39    18    19    1
    40    34    33    1
    41    13    14    2
    42    33    28   am
    43    60    61    1
    44    24    23   ar
    45     5     6    1
    46     6     7   ar
    47     6     8   ar
    48    30    27    1
    49    30    32    1
    50   108   105    1
    51     7     9   ar
    52   107   106    2
    53    19    20    1
    54    19    22    1
    55    26    27    1
    56    26    20   am
    57     8    10   ar
    58    28    27    1
    59    28    29    2
    60     9    10   ar
    61    23    22    1
    62    23    25   ar
    63   105   106    1
    64   105   104    1
    65    20    21    2
    66   106   109   am
    67    69    67   am
    68    67    68    2
    69    67    66    1
    70   104   100   am
    71   101   100    2
    72   109   110    1
    73    66    63    1
    74   112   111    2
    75   100    99    1
    76   110   111    1
    77   110   113    1
    78    62    63    1
    79    63    64    1
    80    98    99    1
    81   115   113    1
    82    99   102    1
    83   113   114    1
    84    77    78    1
    85    77    76    1
    86    76    75    1
    87    64    70   am
    88    64    65    2
    89    70    71    1
    90   102   103    1
    91    75    74    1
    92    71    74    1
    93    71    72    1
    94    85    84   ar
    95    96    95    1
    96    97    95    1
    97    72    73    2
    98    95    94    2
    99    84    86   ar
   100    84    83    1
   101    94    93    1
   102    83    80    1
   103    79    80    1
   104    93    92    1
   105    92    91    1
   106    80    81    1
   107    87    81   am
   108    87    88    1
   109    91    88    1
   110    81    82    2
   111    88    89    1
   112    89    90    2
