@<TRIPOS>MOLECULE
tmp/4ncgA00.pdb
 191 190 0 0 0
SMALL
GASTEIGER

@<TRIPOS>ATOM
      1  N         11.5030   21.1170   21.8880 N.3    92  PRO92      -0.2116
      2  CA        10.7970   20.8120   20.6240 C.3    92  PRO92       0.1372
      3  C          9.2810   20.7860   20.7920 C.2    92  PRO92       0.2244
      4  O          8.7630   20.4280   21.8540 O.2    92  PRO92      -0.2868
      5  CB        11.2930   19.4110   20.2660 C.3    92  PRO92       0.0268
      6  CG        12.5410   19.2410   21.0400 C.3    92  PRO92       0.0207
      7  CD        12.3790   20.0040   22.2980 C.3    92  PRO92       0.0892
      8  N          5.8050   19.1140   19.2160 N.3    94  PRO94      -0.2116
      9  CA         5.3330   18.0490   18.2980 C.3    94  PRO94       0.1372
     10  C          4.8980   18.5180   16.9040 C.2    94  PRO94       0.2244
     11  O          5.3120   17.9200   15.9140 O.2    94  PRO94      -0.2868
     12  CB         4.1710   17.4140   19.0630 C.3    94  PRO94       0.0268
     13  CG         4.4550   17.6950   20.5070 C.3    94  PRO94       0.0207
     14  CD         5.1430   19.0270   20.5410 C.3    94  PRO94       0.0892
     15  N          7.4540   18.5160   14.2030 N.3    97  LEU97      -0.1231
     16  CA         8.0120   17.2490   13.6870 C.3    97  LEU97       0.1693
     17  C          7.3590   16.8400   12.3610 C.2    97  LEU97       0.2592
     18  O          6.1300   16.8940   12.2330 O.2    97  LEU97      -0.2718
     19  CB         7.8660   16.0730   14.6960 C.3    97  LEU97       0.0284
     20  CG         8.4100   16.2650   16.0940 C.3    97  LEU97       0.0019
     21  CD1        7.7150   15.3720   17.0550 C.3    97  LEU97       0.0001
     22  CD2        9.8550   16.0290   16.1380 C.3    97  LEU97       0.0001
     23  N          8.1830   16.3900   11.3940 N.am   98  LYS98      -0.1966
     24  CA         7.7080   15.8440   10.1140 C.3    98  LYS98       0.1728
     25  C          7.1530   14.4210   10.3510 C.2    98  LYS98       0.2616
     26  O          7.4660   13.7980   11.3770 O.2    98  LYS98      -0.2715
     27  CB         8.8290   15.8150    9.0600 C.3    98  LYS98       0.0311
     28  CG         9.0820   17.1780    8.4580 C.3    98  LYS98       0.0038
     29  CD        10.4880   17.6870    8.6680 C.3    98  LYS98       0.0206
     30  CE        10.6540   19.0390    8.0280 C.3    98  LYS98       0.1093
     31  NZ        12.0840   19.4050    7.8850 N.3    98  LYS98      -0.1314
     32  N          6.3000   13.9270    9.4490 N.am   99  LYS99      -0.1963
     33  CA         5.8100   12.5580    9.5760 C.3    99  LYS99       0.1728
     34  C          6.9380   11.6810    8.9930 C.2    99  LYS99       0.2616
     35  O          7.3540   11.8700    7.8320 O.2    99  LYS99      -0.2715
     36  CB         4.4430   12.3440    8.8670 C.3    99  LYS99       0.0311
     37  CG         3.7430   11.0240    9.2320 C.3    99  LYS99       0.0038
     38  CD         2.3460   10.8660    8.6030 C.3    99  LYS99       0.0206
     39  CE         2.3380   10.1110    7.2880 C.3    99  LYS99       0.1093
     40  NZ         1.0110    9.5000    6.9950 N.3    99  LYS99      -0.1314
     41  N          7.5320   10.8390    9.8710 N.am  100  LYS100     -0.1963
     42  CA         8.6200    9.9140    9.5220 C.3   100  LYS100      0.1728
     43  C          8.0900    8.4860    9.5150 C.2   100  LYS100      0.2616
     44  O          7.4240    8.0680   10.4770 O.2   100  LYS100     -0.2715
     45  CB         9.8050   10.0530   10.4940 C.3   100  LYS100      0.0311
     46  CG        10.6750   11.2810   10.2570 C.3   100  LYS100      0.0038
     47  CD        11.3980   11.3040    8.9060 C.3   100  LYS100      0.0206
     48  CE        11.5530   12.7300    8.4340 C.3   100  LYS100      0.1093
     49  NZ        12.8040   12.9290    7.6610 N.3   100  LYS100     -0.1314
     50  N          8.3590    7.7450    8.4170 N.am  101  LYS101     -0.1977
     51  CA         7.9470    6.3370    8.2760 C.3   101  LYS101      0.1596
     52  C          8.3420    5.5300    9.5340 C.2   101  LYS101      0.2287
     53  O          7.4550    4.9670   10.1990 O.2   101  LYS101     -0.2864
     54  CB         8.5110    5.7030    6.9830 C.3   101  LYS101      0.0298
     55  CG         7.7050    6.0730    5.7330 C.3   101  LYS101      0.0038
     56  CD         8.1110    5.2880    4.4750 C.3   101  LYS101      0.0206
     57  CE         7.4860    3.9110    4.3710 C.3   101  LYS101      0.1093
     58  NZ         6.0180    3.9710    4.1300 N.3   101  LYS101     -0.1314
     59  N         10.5610    5.7280   13.4000 N.3   103  VAL103     -0.1245
     60  CA        11.1110    6.5420   14.4980 C.3   103  VAL103      0.1561
     61  C         11.5790    5.6620   15.6960 C.2   103  VAL103      0.2260
     62  O         10.7840    4.8980   16.2600 O.2   103  VAL103     -0.2867
     63  CB        10.0970    7.6710   14.9070 C.3   103  VAL103      0.0252
     64  CG1       10.3310    8.1900   16.3260 C.3   103  VAL103      0.0019
     65  CG2       10.1260    8.8220   13.9050 C.3   103  VAL103      0.0019
     66  N         13.3750    5.6560   19.5920 N.3   105  VAL105     -0.1245
     67  CA        13.7000    6.3600   20.8320 C.3   105  VAL105      0.1561
     68  C         14.9160    5.6560   21.5400 C.2   105  VAL105      0.2260
     69  O         14.7920    4.5190   22.0340 O.2   105  VAL105     -0.2867
     70  CB        12.4470    6.5530   21.7390 C.3   105  VAL105      0.0252
     71  CG1       12.8320    6.9860   23.1550 C.3   105  VAL105      0.0019
     72  CG2       11.4820    7.5620   21.1180 C.3   105  VAL105      0.0019
     73  N         17.0380   12.1350   10.8200 N.3   176  VAL176     -0.1245
     74  CA        16.7280   13.1700   11.7810 C.3   176  VAL176      0.1561
     75  C         17.2120   12.7180   13.1300 C.2   176  VAL176      0.2260
     76  O         16.8210   11.6570   13.6200 O.2   176  VAL176     -0.2867
     77  CB        15.2140   13.5300   11.8270 C.3   176  VAL176      0.0252
     78  CG1       14.9800   14.8100   12.6130 C.3   176  VAL176      0.0019
     79  CG2       14.6230   13.6560   10.4340 C.3   176  VAL176      0.0019
     80  N         17.1410   14.1770   16.7910 N.3   178  TYR178     -0.1241
     81  CA        16.7800   15.1680   17.7570 C.3   178  TYR178      0.1605
     82  C         17.5860   14.8580   19.0270 C.2   178  TYR178      0.2264
     83  O         17.5670   13.7200   19.5050 O.2   178  TYR178     -0.2867
     84  CB        15.2770   15.0820   18.0470 C.3   178  TYR178      0.0534
     85  CG        14.4430   16.0550   17.2440 C.ar  178  TYR178     -0.0201
     86  CD1       14.1140   15.7920   15.9190 C.ar  178  TYR178     -0.0009
     87  CD2       13.9310   17.2100   17.8270 C.ar  178  TYR178     -0.0009
     88  CE1       13.3200   16.6730   15.1810 C.ar  178  TYR178      0.0417
     89  CE2       13.1410   18.1040   17.0980 C.ar  178  TYR178      0.0417
     90  CZ        12.8360   17.8310   15.7740 C.ar  178  TYR178      0.1957
     91  OH        12.0350   18.6930   15.0610 O.3   178  TYR178     -0.2866
     92  N         16.3050   11.1000   19.4790 N.3   185  TYR185     -0.1227
     93  CA        15.0830   10.7240   18.7870 C.3   185  TYR185      0.1736
     94  C         15.4640   10.7030   17.3560 C.2   185  TYR185      0.2595
     95  O         15.8940   11.7210   16.8040 O.2   185  TYR185     -0.2718
     96  CB        13.9310   11.6890   19.1040 C.3   185  TYR185      0.0548
     97  CG        13.7300   11.9570   20.5830 C.ar  185  TYR185     -0.0200
     98  CD1       13.6060   10.9100   21.4950 C.ar  185  TYR185     -0.0009
     99  CD2       13.6750   13.2590   21.0740 C.ar  185  TYR185     -0.0009
    100  CE1       13.4280   11.1530   22.8580 C.ar  185  TYR185      0.0417
    101  CE2       13.4930   13.5140   22.4360 C.ar  185  TYR185      0.0417
    102  CZ        13.3790   12.4570   23.3240 C.ar  185  TYR185      0.1957
    103  OH        13.1990   12.6950   24.6610 O.3   185  TYR185     -0.2866
    104  N         15.4760    9.4830   16.8070 N.am  186  VAL186     -0.1966
    105  CA        15.9240    9.1650   15.4480 C.3   186  VAL186      0.1727
    106  C         14.7770    8.7900   14.5210 C.2   186  VAL186      0.2616
    107  O         14.0660    7.8040   14.7510 O.2   186  VAL186     -0.2715
    108  CB        17.0260    8.0810   15.4310 C.3   186  VAL186      0.0290
    109  CG1       17.9980    8.3340   14.2960 C.3   186  VAL186      0.0023
    110  CG2       17.7660    8.0010   16.7650 C.3   186  VAL186      0.0023
    111  N         14.6120    9.5800   13.4750 N.am  187  GLY187     -0.1955
    112  CA        13.5590    9.3420   12.5000 C.3   187  GLY187      0.1869
    113  C         14.0840    9.3260   11.0870 C.2   187  GLY187      0.2309
    114  O         15.0130   10.0790   10.7530 O.2   187  GLY187     -0.2863
    115  N          5.7960    3.4130   19.2980 N.3   222  PRO222     -0.2116
    116  CA         4.6790    4.3740   19.4160 C.3   222  PRO222      0.1372
    117  C          3.3750    3.7900   19.9610 C.2   222  PRO222      0.2244
    118  O          3.1420    2.6040   19.7440 O.2   222  PRO222     -0.2868
    119  CB         4.4990    4.8780   17.9860 C.3   222  PRO222      0.0268
    120  CG         5.8230    4.7010   17.3590 C.3   222  PRO222      0.0207
    121  CD         6.3510    3.4210   17.9300 C.3   222  PRO222      0.0892
    122  N          4.5010    7.3270   21.8100 N.3   224  PHE224     -0.1227
    123  CA         5.4830    7.8770   22.7340 C.3   224  PHE224      0.1736
    124  C          4.8120    8.8500   23.6940 C.2   224  PHE224      0.2595
    125  O          4.0720    9.7390   23.2710 O.2   224  PHE224     -0.2718
    126  CB         6.6200    8.5550   21.9690 C.3   224  PHE224      0.0547
    127  CG         7.3700    7.6150   21.0560 C.ar  224  PHE224     -0.0202
    128  CD1        7.8930    6.4150   21.5390 C.ar  224  PHE224     -0.0042
    129  CD2        7.5740    7.9340   19.7220 C.ar  224  PHE224     -0.0042
    130  CE1        8.5630    5.5290   20.6900 C.ar  224  PHE224     -0.0003
    131  CE2        8.2680    7.0580   18.8780 C.ar  224  PHE224     -0.0003
    132  CZ         8.7580    5.8570   19.3680 C.ar  224  PHE224     -0.0000
    133  N          5.0300    8.6510   24.9870 N.am  225  LEU225     -0.1966
    134  CA         4.4500    9.4950   26.0180 C.3   225  LEU225      0.1728
    135  C          5.5250   10.4640   26.4490 C.2   225  LEU225      0.2616
    136  O          6.1610   10.2750   27.4860 O.2   225  LEU225     -0.2715
    137  CB         3.9660    8.6200   27.1710 C.3   225  LEU225      0.0311
    138  CG         2.5140    8.1700   27.1140 C.3   225  LEU225      0.0022
    139  CD1        2.1900    7.3900   25.8170 C.3   225  LEU225      0.0001
    140  CD2        2.1770    7.3340   28.3280 C.3   225  LEU225      0.0001
    141  N          5.7640   11.4870   25.6110 N.am  226  TRP226     -0.1974
    142  CA         6.8440   12.4570   25.7940 C.3   226  TRP226      0.1640
    143  C          6.4010   13.8650   26.2080 C.2   226  TRP226      0.2290
    144  O          5.6700   14.5260   25.4710 O.2   226  TRP226     -0.2864
    145  CB         7.6860   12.5120   24.5110 C.3   226  TRP226      0.0576
    146  CG         8.8510   13.4480   24.5680 C.ar  226  TRP226      0.0006
    147  CD1       10.0940   13.1820   25.0560 C.ar  226  TRP226      0.0946
    148  CD2        8.8930   14.7930   24.0740 C.ar  226  TRP226      0.0152
    149  NE1       10.8950   14.2940   24.9490 N.ar  226  TRP226     -0.2442
    150  CE2       10.1970   15.2860   24.3140 C.ar  226  TRP226      0.0810
    151  CE3        7.9400   15.6500   23.4860 C.ar  226  TRP226      0.0012
    152  CZ2       10.5750   16.5980   23.9880 C.ar  226  TRP226      0.0191
    153  CZ3        8.3140   16.9510   23.1750 C.ar  226  TRP226      0.0001
    154  CH2        9.6140   17.4160   23.4350 C.ar  226  TRP226      0.0015
    155  N          2.8450   10.9520   21.1230 N.3   231  LEU231     -0.1231
    156  CA         3.3520   10.9850   19.7710 C.3   231  LEU231      0.1693
    157  C          3.0230    9.6850   19.0660 C.2   231  LEU231      0.2592
    158  O          3.7280    8.6820   19.2110 O.2   231  LEU231     -0.2718
    159  CB         4.8560   11.3110   19.7540 C.3   231  LEU231      0.0284
    160  CG         5.2300   12.5990   20.4810 C.3   231  LEU231      0.0019
    161  CD1        6.6750   12.6380   20.7910 C.3   231  LEU231      0.0001
    162  CD2        4.8410   13.8370   19.6880 C.3   231  LEU231      0.0001
    163  N          1.8950    9.7050   18.3300 N.am  232  HIS232     -0.1962
    164  CA         1.3650    8.6060   17.5110 C.3   232  HIS232      0.1772
    165  C          2.0470    8.6390   16.1240 C.2   232  HIS232      0.2462
    166  O          2.7520    9.6060   15.8380 O.2   232  HIS232     -0.2730
    167  CB        -0.1630    8.6970   17.4240 C.3   232  HIS232      0.0785
    168  CG        -0.8520    8.6550   18.7580 C.ar  232  HIS232      0.0821
    169  ND1       -1.5110    7.5230   19.1900 N.ar  232  HIS232     -0.2267
    170  CD2       -0.9530    9.6060   19.7150 C.ar  232  HIS232      0.1154
    171  CE1       -2.0010    7.8190   20.3860 C.ar  232  HIS232      0.1986
    172  NE2       -1.6860    9.0580   20.7470 N.ar  232  HIS232     -0.2212
    173  N          1.9360    7.5920   15.2720 N.am  233  PRO233     -0.2727
    174  CA         2.6930    7.5950   14.0000 C.3   233  PRO233      0.1402
    175  C          2.2460    8.5770   12.9040 C.2   233  PRO233      0.2269
    176  O          3.0070    8.7830   11.9410 O.2   233  PRO233     -0.2865
    177  CB         2.5930    6.1440   13.5200 C.3   233  PRO233      0.0296
    178  CG         2.1030    5.3680   14.7070 C.3   233  PRO233      0.0237
    179  CD         1.2480    6.2990   15.4670 C.3   233  PRO233      0.0939
    180  N          1.0900   16.3630   11.9210 N.3   315  TYR315     -0.1241
    181  CA         2.5130   16.6630   11.7990 C.3   315  TYR315      0.1605
    182  C          2.7860   17.6750   10.6680 C.2   315  TYR315      0.2264
    183  O          1.8820   18.0160    9.9190 O.2   315  TYR315     -0.2867
    184  CB         3.3690   15.3710   11.6820 C.3   315  TYR315      0.0534
    185  CG         3.3730   14.5180   12.9370 C.ar  315  TYR315     -0.0201
    186  CD1        3.8180   15.0310   14.1550 C.ar  315  TYR315     -0.0009
    187  CD2        2.9750   13.1840   12.8980 C.ar  315  TYR315     -0.0009
    188  CE1        3.8140   14.2560   15.3120 C.ar  315  TYR315      0.0417
    189  CE2        2.9770   12.3940   14.0470 C.ar  315  TYR315      0.0417
    190  CZ         3.3910   12.9360   15.2560 C.ar  315  TYR315      0.1957
    191  OH         3.3830   12.1690   16.4000 O.3   315  TYR315     -0.2866
@<TRIPOS>BOND
     1    58    57    1
     2    57    56    1
     3    56    55    1
     4    55    54    1
     5    54    51    1
     6    40    39    1
     7    39    38    1
     8    49    48    1
     9    35    34    2
    10    31    30    1
    11    30    29    1
    12    51    50    1
    13    51    52    1
    14    50    43   am
    15    48    47    1
    16    28    29    1
    17    28    27    1
    18    38    37    1
    19    36    37    1
    20    36    33    1
    21    47    46    1
    22    34    33    1
    23    34    41   am
    24    27    24    1
    25    32    33    1
    26    32    25   am
    27    43    42    1
    28    43    44    2
    29    42    41    1
    30    42    45    1
    31    52    53    2
    32   183   182    2
    33    24    25    1
    34    24    23    1
    35    46    45    1
    36    25    26    2
    37    79    77    1
    38   182   181    1
    39   114   113    2
    40    73    74    1
    41   113   112    1
    42    23    17   am
    43   184   181    1
    44   184   185    1
    45    74    77    1
    46    74    75    1
    47   181   180    1
    48    77    78    1
    49   176   175    2
    50    18    17    2
    51    17    16    1
    52   112   111    1
    53   187   185   ar
    54   187   189   ar
    55   175   174    1
    56   185   186   ar
    57    75    76    2
    58    59    60    1
    59   111   106   am
    60   177   174    1
    61   177   178    1
    62    16    15    1
    63    16    19    1
    64    65    63    1
    65   174   173    1
    66   189   190   ar
    67   186   188   ar
    68   109   108    1
    69    60    63    1
    70    60    61    1
    71   106   107    2
    72   106   105    1
    73    19    20    1
    74   178   179    1
    75    63    64    1
    76    91    90    1
    77    88    90   ar
    78    88    86   ar
    79   190   188   ar
    80   190   191    1
    81   173   179    1
    82   173   165   am
    83   108   105    1
    84   108   110    1
    85   105   104    1
    86    61    62    2
    87    90    89   ar
    88   166   165    2
    89    11    10    2
    90    86    85   ar
    91    20    22    1
    92    20    21    1
    93   165   164    1
    94    80    81    1
    95    95    94    2
    96   104    94   am
    97    10     9    1
    98    89    87   ar
    99    85    87   ar
   100    85    84    1
   101    94    93    1
   102   120   121    1
   103   120   119    1
   104   167   164    1
   105   167   168    1
   106   164   163    1
   107    81    84    1
   108    81    82    1
   109   121   115    1
   110   119   116    1
   111     9    12    1
   112     9     8    1
   113   163   157   am
   114   168   169   ar
   115   168   170   ar
   116    93    96    1
   117    93    92    1
   118   131   132   ar
   119   131   129   ar
   120    82    83    2
   121    12    13    1
   122   157   158    2
   123   157   156    1
   124    96    97    1
   125   169   171   ar
   126     8    14    1
   127   115   116    1
   128   132   130   ar
   129   116   117    1
   130    66    67    1
   131   162   160    1
   132   170   172   ar
   133   129   127   ar
   134   118   117    2
   135   159   156    1
   136   159   160    1
   137   156   155    1
   138     5     2    1
   139     5     6    1
   140   171   172   ar
   141   160   161    1
   142    13    14    1
   143    97    99   ar
   144    97    98   ar
   145     2     3    1
   146     2     1    1
   147   130   128   ar
   148     3     4    2
   149    67    68    1
   150    67    70    1
   151     6     7    1
   152   127   128   ar
   153   127   126    1
   154    99   101   ar
   155    72    70    1
   156    98   100   ar
   157    68    69    2
   158    70    71    1
   159   122   123    1
   160     1     7    1
   161   126   123    1
   162   101   102   ar
   163   123   124    1
   164   100   102   ar
   165   153   154   ar
   166   153   151   ar
   167   125   124    2
   168   102   103    1
   169   154   152   ar
   170   151   148   ar
   171   124   133   am
   172   152   150   ar
   173   148   150   ar
   174   148   146   ar
   175   150   149   ar
   176   145   146    1
   177   145   142    1
   178   146   147   ar
   179   149   147   ar
   180   133   134    1
   181   144   143    2
   182   141   142    1
   183   141   135   am
   184   142   143    1
   185   139   138    1
   186   134   135    1
   187   134   137    1
   188   135   136    2
   189   138   137    1
   190   138   140    1
