@<TRIPOS>MOLECULE
tmp/4ncjB01.pdb
 84 85 0 0 0
SMALL
GASTEIGER

@<TRIPOS>ATOM
      1  N        -13.5670  -48.0490   81.9140 N.3   192  LYS192     -0.1231
      2  CA       -12.8930  -48.2610   80.6420 C.3   192  LYS192      0.1693
      3  C        -11.4090  -48.5330   80.9120 C.2   192  LYS192      0.2592
      4  O        -10.7910  -49.4060   80.2920 O.2   192  LYS192     -0.2718
      5  CB       -13.0650  -47.0340   79.7300 C.3   192  LYS192      0.0285
      6  CG       -12.4020  -47.2080   78.3720 C.3   192  LYS192      0.0035
      7  CD       -12.7300  -46.0910   77.4150 C.3   192  LYS192      0.0206
      8  CE       -11.8380  -46.1760   76.1920 C.3   192  LYS192      0.1093
      9  NZ       -12.1130  -45.1030   75.2090 N.3   192  LYS192     -0.1314
     10  N        -10.8370  -47.7480   81.8240 N.am  193  TYR193     -0.1976
     11  CA        -9.4940  -47.9940   82.3580 C.3   193  TYR193      0.1639
     12  C         -9.6460  -48.3770   83.8210 C.2   193  TYR193      0.2290
     13  O        -10.1830  -47.6060   84.6220 O.2   193  TYR193     -0.2864
     14  CB        -8.5940  -46.7700   82.2060 C.3   193  TYR193      0.0560
     15  CG        -8.5030  -46.3130   80.7770 C.ar  193  TYR193     -0.0198
     16  CD1       -7.6240  -46.9210   79.8850 C.ar  193  TYR193     -0.0009
     17  CD2       -9.3310  -45.3060   80.3100 C.ar  193  TYR193     -0.0009
     18  CE1       -7.5700  -46.5260   78.5690 C.ar  193  TYR193      0.0417
     19  CE2       -9.2790  -44.8890   79.0080 C.ar  193  TYR193      0.0417
     20  CZ        -8.4020  -45.4990   78.1410 C.ar  193  TYR193      0.1957
     21  OH        -8.3700  -45.0720   76.8490 O.3   193  TYR193     -0.2866
     22  N         -5.8130  -51.0800   80.3520 N.3   211  TRP211     -0.1241
     23  CA        -6.9650  -51.2390   79.4520 C.3   211  TRP211      0.1605
     24  C         -7.0520  -52.6770   78.9730 C.2   211  TRP211      0.2264
     25  O         -6.0560  -53.2370   78.5060 O.2   211  TRP211     -0.2867
     26  CB        -6.8230  -50.3300   78.2420 C.3   211  TRP211      0.0550
     27  CG        -7.9710  -50.3940   77.2460 C.ar  211  TRP211      0.0003
     28  CD1       -9.1570  -49.7340   77.3360 C.ar  211  TRP211      0.0946
     29  CD2       -8.0130  -51.1140   75.9940 C.ar  211  TRP211      0.0152
     30  NE1       -9.9350  -49.9920   76.2370 N.ar  211  TRP211     -0.2442
     31  CE2       -9.2590  -50.8370   75.3980 C.ar  211  TRP211      0.0810
     32  CE3       -7.1240  -51.9590   75.3260 C.ar  211  TRP211      0.0012
     33  CZ2       -9.6420  -51.3830   74.1680 C.ar  211  TRP211      0.0191
     34  CZ3       -7.5050  -52.4970   74.1000 C.ar  211  TRP211      0.0001
     35  CH2       -8.7520  -52.2120   73.5390 C.ar  211  TRP211      0.0015
     36  N          0.1410  -42.4960   75.5550 N.3   219  THR219     -0.1203
     37  CA        -0.2950  -42.1280   74.2100 C.3   219  THR219      0.1994
     38  C         -1.5750  -42.8730   73.8430 C.2   219  THR219      0.2618
     39  O         -2.2900  -42.4780   72.9330 O.2   219  THR219     -0.2717
     40  CB         0.7750  -42.4400   73.1430 C.3   219  THR219      0.1784
     41  OG1        1.3080  -43.7620   73.3580 O.3   219  THR219     -0.2211
     42  CG2        1.9050  -41.4170   73.1870 C.3   219  THR219      0.0376
     43  N         -1.8570  -43.9580   74.5550 N.am  220  PHE220     -0.1961
     44  CA        -3.0850  -44.7140   74.3340 C.3   220  PHE220      0.1771
     45  C         -4.3310  -43.8410   74.5310 C.2   220  PHE220      0.2619
     46  O         -5.3330  -44.0040   73.8340 O.2   220  PHE220     -0.2715
     47  CB        -3.1070  -45.9100   75.2890 C.3   220  PHE220      0.0574
     48  CG        -3.9550  -47.0470   74.8330 C.ar  220  PHE220     -0.0200
     49  CD1       -5.3060  -47.0770   75.1080 C.ar  220  PHE220     -0.0042
     50  CD2       -3.3840  -48.1250   74.1600 C.ar  220  PHE220     -0.0042
     51  CE1       -6.0790  -48.1650   74.6970 C.ar  220  PHE220     -0.0003
     52  CE2       -4.1410  -49.1950   73.7550 C.ar  220  PHE220     -0.0003
     53  CZ        -5.4890  -49.2170   74.0190 C.ar  220  PHE220     -0.0000
     54  N         -4.2570  -42.8910   75.4590 N.am  221  LEU221     -0.1963
     55  CA        -5.4270  -42.0950   75.8520 C.3   221  LEU221      0.1728
     56  C         -5.8620  -41.1100   74.7610 C.2   221  LEU221      0.2617
     57  O         -5.0330  -40.6030   74.0070 O.2   221  LEU221     -0.2715
     58  CB        -5.1330  -41.3170   77.1490 C.3   221  LEU221      0.0311
     59  CG        -4.8960  -42.1530   78.4240 C.3   221  LEU221      0.0022
     60  CD1       -4.6730  -41.2360   79.6060 C.3   221  LEU221      0.0001
     61  CD2       -6.0210  -43.1130   78.7540 C.3   221  LEU221      0.0001
     62  N         -7.1580  -40.8560   74.6780 N.am  222  SER222     -0.1936
     63  CA        -7.6640  -39.7540   73.8630 C.3   222  SER222      0.2055
     64  C         -7.4270  -38.3850   74.5440 C.2   222  SER222      0.2644
     65  O         -6.9600  -38.3280   75.6690 O.2   222  SER222     -0.2714
     66  CB        -9.1420  -39.9490   73.5690 C.3   222  SER222      0.2130
     67  OG        -9.9450  -39.6650   74.7060 O.3   222  SER222     -0.2179
     68  N         -7.7870  -37.2910   73.8790 N.am  223  GLY223     -0.1939
     69  CA        -7.5350  -35.9530   74.4160 C.3   223  GLY223      0.2014
     70  C         -8.2530  -35.6590   75.7320 C.2   223  GLY223      0.2639
     71  O         -7.6450  -35.1370   76.6790 O.2   223  GLY223     -0.2714
     72  N         -9.5480  -35.9870   75.7740 N.am  224  GLY224     -0.1939
     73  CA       -10.3590  -35.8610   76.9760 C.3   224  GLY224      0.2014
     74  C         -9.8850  -36.7910   78.0810 C.2   224  GLY224      0.2638
     75  O         -9.8600  -36.4260   79.2680 O.2   224  GLY224     -0.2714
     76  N         -9.4750  -38.0000   77.6950 N.am  225  GLU225     -0.1977
     77  CA        -8.9570  -38.9540   78.6740 C.3   225  GLU225      0.1602
     78  C         -7.6640  -38.4550   79.3440 C.2   225  GLU225      0.2287
     79  O         -7.4600  -38.7040   80.5300 O.2   225  GLU225     -0.2864
     80  CB        -8.8070  -40.3580   78.0550 C.3   225  GLU225      0.0415
     81  CG       -10.1600  -40.9570   77.6980 C.3   225  GLU225      0.1163
     82  CD       -10.1020  -42.2080   76.8260 C.2   225  GLU225      0.3649
     83  OE1       -9.0420  -42.5140   76.2340 O.co2 225  GLU225     -0.2457
     84  OE2      -11.1610  -42.8680   76.7090 O.co2 225  GLU225     -0.2457
@<TRIPOS>BOND
     1    39    38    2
     2    40    42    1
     3    40    41    1
     4    40    37    1
     5    35    34   ar
     6    35    33   ar
     7    66    63    1
     8    66    67    1
     9    52    53   ar
    10    52    50   ar
    11    46    45    2
    12    38    37    1
    13    38    43   am
    14    63    64    1
    15    63    62    1
    16    68    69    1
    17    68    64   am
    18    57    56    2
    19    53    51   ar
    20    34    32   ar
    21    50    48   ar
    22    33    31   ar
    23    37    36    1
    24    44    45    1
    25    44    43    1
    26    44    47    1
    27    69    70    1
    28    45    54   am
    29    64    65    2
    30    62    56   am
    31    51    49   ar
    32    56    55    1
    33    48    49   ar
    34    48    47    1
    35     9     8    1
    36    32    29   ar
    37    31    29   ar
    38    31    30   ar
    39    54    55    1
    40    70    72   am
    41    70    71    2
    42    72    73    1
    43    55    58    1
    44    29    27   ar
    45     8     7    1
    46    83    82   ar
    47    30    28   ar
    48    84    82   ar
    49    82    81    1
    50    21    20    1
    51    73    74    1
    52    58    59    1
    53    27    28   ar
    54    27    26    1
    55     7     6    1
    56    76    74   am
    57    76    77    1
    58    81    80    1
    59    80    77    1
    60    74    75    2
    61    20    18   ar
    62    20    19   ar
    63    26    23    1
    64     6     5    1
    65    59    61    1
    66    59    60    1
    67    25    24    2
    68    18    16   ar
    69    77    78    1
    70    24    23    1
    71    19    17   ar
    72    78    79    2
    73    23    22    1
    74     5     2    1
    75    16    15   ar
    76     4     3    2
    77    17    15   ar
    78     2     3    1
    79     2     1    1
    80    15    14    1
    81     3    10   am
    82    10    11    1
    83    14    11    1
    84    11    12    1
    85    12    13    2
