@<TRIPOS>MOLECULE
tmp/4ncjB00.pdb
 124 119 0 0 0
SMALL
GASTEIGER

@<TRIPOS>ATOM
      1  N         -4.6940   -6.6700   86.0960 N.3    12  ARG12      -0.1231
      2  CA        -5.4490   -7.0590   84.8930 C.3    12  ARG12       0.1694
      3  C         -6.8560   -6.4450   84.9400 C.2    12  ARG12       0.2592
      4  O         -6.9880   -5.2310   85.0850 O.2    12  ARG12      -0.2718
      5  CB        -5.4720   -8.5990   84.7150 C.3    12  ARG12       0.0321
      6  CG        -4.1160   -9.1420   84.2990 C.3    12  ARG12       0.0489
      7  CD        -4.0360  -10.6650   84.2010 C.3    12  ARG12       0.2205
      8  NE        -4.9490  -11.2200   83.2070 N.pl3  12  ARG12      -0.0865
      9  CZ        -4.6710  -11.4100   81.9160 C.cat  12  ARG12       0.5346
     10  NH1       -3.5040  -11.0650   81.4080 N.pl3  12  ARG12       0.1354
     11  NH2       -5.5910  -11.9520   81.1110 N.pl3  12  ARG12       0.1354
     12  N         -7.8880   -7.2770   84.8430 N.am   13  SER13      -0.1952
     13  CA        -9.2740   -6.8250   84.8040 C.3    13  SER13       0.1924
     14  C         -9.8010   -6.3950   86.1670 C.2    13  SER13       0.2314
     15  O        -10.8960   -5.8600   86.2500 O.2    13  SER13      -0.2863
     16  CB       -10.1750   -7.9620   84.2970 C.3    13  SER13       0.2116
     17  OG       -10.0060   -9.1500   85.0680 O.3    13  SER13      -0.2180
     18  N        -15.7920  -16.5730   80.0280 N.3    32  ASN32      -0.1225
     19  CA       -14.4770  -16.2810   79.4720 C.3    32  ASN32       0.1785
     20  C        -14.1790  -14.7790   79.5880 C.2    32  ASN32       0.2598
     21  O        -15.0330  -13.9290   79.2910 O.2    32  ASN32      -0.2718
     22  CB       -14.3910  -16.7070   77.9940 C.3    32  ASN32       0.1169
     23  CG       -14.5820  -18.2080   77.7800 C.2    32  ASN32       0.2627
     24  OD1      -15.1770  -18.6320   76.7850 O.2    32  ASN32      -0.2716
     25  ND2      -14.0710  -19.0120   78.7050 N.am   32  ASN32      -0.0877
     26  N        -12.9750  -14.4660   80.0620 N.am   33  GLY33      -0.1942
     27  CA       -12.4960  -13.0950   80.1430 C.3    33  GLY33       0.2014
     28  C        -13.0800  -12.2450   81.2650 C.2    33  GLY33       0.2640
     29  O        -13.0600  -11.0140   81.1670 O.2    33  GLY33      -0.2714
     30  N        -13.5740  -12.8850   82.3300 N.am   34  SER34      -0.1935
     31  CA       -14.2550  -12.1590   83.4140 C.3    34  SER34       0.2055
     32  C        -13.3630  -11.8500   84.6150 C.2    34  SER34       0.2644
     33  O        -13.7180  -11.0050   85.4340 O.2    34  SER34      -0.2714
     34  CB       -15.4890  -12.9360   83.8900 C.3    34  SER34       0.2130
     35  OG       -15.1060  -14.1540   84.5060 O.3    34  SER34      -0.2179
     36  N        -12.2320  -12.5460   84.7400 N.am   35  GLY35      -0.1939
     37  CA       -11.2590  -12.2550   85.7790 C.3    35  GLY35       0.2014
     38  C        -10.8440  -13.3930   86.7120 C.2    35  GLY35       0.2639
     39  O        -10.1400  -13.1470   87.7000 O.2    35  GLY35      -0.2714
     40  N        -11.2450  -14.6300   86.4030 N.am   36  LYS36      -0.1963
     41  CA       -10.9400  -15.7740   87.2790 C.3    36  LYS36       0.1728
     42  C         -9.4360  -16.0510   87.4380 C.2    36  LYS36       0.2617
     43  O         -8.8530  -15.9960   88.5720 O.2    36  LYS36      -0.2715
     44  CB       -11.6580  -17.0240   86.7700 C.3    36  LYS36       0.0311
     45  CG       -13.1410  -16.8020   86.5420 C.3    36  LYS36       0.0038
     46  CD       -13.8420  -18.0350   86.0150 C.3    36  LYS36       0.0206
     47  CE       -13.3890  -18.4120   84.6200 C.3    36  LYS36       0.1093
     48  NZ       -13.7490  -17.4040   83.6050 N.3    36  LYS36      -0.1314
     49  N         -8.8140  -16.3330   86.2940 N.am   37  SER37      -0.1936
     50  CA        -7.4010  -16.6700   86.2660 C.3    37  SER37       0.2055
     51  C         -6.5660  -15.4880   86.7670 C.2    37  SER37       0.2643
     52  O         -5.5350  -15.6900   87.4130 O.2    37  SER37      -0.2714
     53  CB        -6.9740  -17.0860   84.8650 C.3    37  SER37       0.2130
     54  OG        -7.7170  -18.2130   84.4260 O.3    37  SER37      -0.2179
     55  N         -7.0190  -14.2670   86.4740 N.am   38  SER38      -0.1949
     56  CA        -6.3510  -13.0470   86.9600 C.3    38  SER38       0.1924
     57  C         -6.2870  -12.9970   88.5060 C.2    38  SER38       0.2314
     58  O         -5.2620  -12.6350   89.1120 O.2    38  SER38      -0.2863
     59  CB        -7.0730  -11.7990   86.4460 C.3    38  SER38       0.2116
     60  OG        -7.0690  -11.7400   85.0410 O.3    38  SER38      -0.2180
     61  N          2.6950   -5.4010   82.2950 N.3    60  GLU60      -0.1231
     62  CA         1.4940   -5.9080   81.6390 C.3    60  GLU60       0.1699
     63  C          0.3190   -6.0690   82.5740 C.2    60  GLU60       0.2592
     64  O         -0.7990   -5.8000   82.1850 O.2    60  GLU60      -0.2718
     65  CB         1.7810   -7.2430   80.9430 C.3    60  GLU60       0.0402
     66  CG         2.7760   -7.1190   79.7910 C.3    60  GLU60       0.1161
     67  CD         2.9710   -8.4180   79.0220 C.2    60  GLU60       0.3649
     68  OE1        2.5110   -9.4870   79.4910 O.co2  60  GLU60      -0.2457
     69  OE2        3.5860   -8.3730   77.9430 O.co2  60  GLU60      -0.2457
     70  N          0.5410   -6.5180   83.8080 N.am   61  PHE61      -0.1962
     71  CA        -0.6050   -6.8140   84.6470 C.3    61  PHE61       0.1771
     72  C         -1.2200   -5.5690   85.3220 C.2    61  PHE61       0.2620
     73  O         -2.3690   -5.5980   85.7470 O.2    61  PHE61      -0.2715
     74  CB        -0.3290   -7.9700   85.6100 C.3    61  PHE61       0.0574
     75  CG         0.6810   -7.6970   86.6940 C.ar   61  PHE61      -0.0200
     76  CD1        0.5330   -6.6450   87.5840 C.ar   61  PHE61      -0.0042
     77  CD2        1.7160   -8.5950   86.9050 C.ar   61  PHE61      -0.0042
     78  CE1        1.4510   -6.4470   88.6190 C.ar   61  PHE61      -0.0003
     79  CE2        2.6260   -8.4040   87.9310 C.ar   61  PHE61      -0.0003
     80  CZ         2.4960   -7.3280   88.7860 C.ar   61  PHE61      -0.0000
     81  N         -0.4710   -4.4650   85.3750 N.am   62  THR62      -0.1937
     82  CA        -1.0560   -3.2130   85.8370 C.3    62  THR62       0.2028
     83  C         -2.2630   -2.9040   84.9720 C.2    62  THR62       0.2642
     84  O         -2.1330   -2.7720   83.7500 O.2    62  THR62      -0.2714
     85  CB        -0.0650   -2.0300   85.7330 C.3    62  THR62       0.1808
     86  OG1        1.0530   -2.2730   86.5850 O.3    62  THR62      -0.2208
     87  CG2       -0.7250   -0.7500   86.1690 C.3    62  THR62       0.0379
     88  N         -3.4330   -2.8250   85.5930 N.am   63  LYS63      -0.1963
     89  CA        -4.6610   -2.5790   84.8470 C.3    63  LYS63       0.1728
     90  C         -4.5260   -1.3200   83.9690 C.2    63  LYS63       0.2616
     91  O         -4.0120   -0.2790   84.4100 O.2    63  LYS63      -0.2715
     92  CB        -5.8580   -2.4380   85.7930 C.3    63  LYS63       0.0311
     93  CG        -7.1810   -2.2000   85.0860 C.3    63  LYS63       0.0038
     94  CD        -8.3360   -2.4380   86.0410 C.3    63  LYS63       0.0206
     95  CE        -9.6020   -2.8030   85.2910 C.3    63  LYS63       0.1093
     96  NZ       -10.1070   -1.6930   84.4130 N.3    63  LYS63      -0.1314
     97  N         -4.9740   -1.4260   82.7250 N.am   64  VAL64      -0.1977
     98  CA        -4.8530   -0.3060   81.7910 C.3    64  VAL64       0.1596
     99  C         -5.5500    0.9380   82.3570 C.2    64  VAL64       0.2287
    100  O         -6.6630    0.8690   82.8940 O.2    64  VAL64      -0.2864
    101  CB        -5.4160   -0.6600   80.3940 C.3    64  VAL64       0.0276
    102  CG1       -5.2980    0.5260   79.4510 C.3    64  VAL64       0.0022
    103  CG2       -4.6710   -1.8540   79.8290 C.3    64  VAL64       0.0022
    104  N         -4.2480  -22.6410   84.6440 N.3   140  GLN140     -0.1245
    105  CA        -5.0620  -22.9700   83.4950 C.3   140  GLN140      0.1566
    106  C         -4.1680  -23.4990   82.3930 C.2   140  GLN140      0.2260
    107  O         -3.1250  -22.9270   82.1240 O.2   140  GLN140     -0.2867
    108  CB        -5.8070  -21.7460   83.0070 C.3   140  GLN140      0.0367
    109  CG        -6.7700  -22.0590   81.9100 C.3   140  GLN140      0.0905
    110  CD        -7.7280  -20.9090   81.6640 C.2   140  GLN140      0.2608
    111  OE1       -7.6510  -19.8720   82.3300 O.2   140  GLN140     -0.2717
    112  NE2       -8.6210  -21.0800   80.7070 N.am  140  GLN140     -0.0878
    113  N        -17.6080   -9.3600   84.0760 N.3   300  LEU300     -0.1245
    114  CA       -16.9510   -8.1560   83.5930 C.3   300  LEU300      0.1561
    115  C        -17.9220   -7.0150   83.3290 C.2   300  LEU300      0.2260
    116  O        -18.7690   -7.1130   82.4420 O.2   300  LEU300     -0.2867
    117  CB       -16.2190   -8.4570   82.2970 C.3   300  LEU300      0.0270
    118  CG       -15.1840   -7.4180   81.8890 C.3   300  LEU300      0.0019
    119  CD1      -14.0810   -7.3550   82.9260 C.3   300  LEU300      0.0001
    120  CD2      -14.6240   -7.7690   80.5030 C.3   300  LEU300      0.0001
    121  N        -15.1840   -3.0900   81.5820 N.3   303  GLY303     -0.1225
    122  CA       -13.7640   -3.3550   81.5890 C.3   303  GLY303      0.1811
    123  C        -13.2050   -3.6610   82.9640 C.2   303  GLY303      0.2280
    124  O        -11.9870   -3.6500   83.1200 O.2   303  GLY303     -0.2866
@<TRIPOS>BOND
     1    24    23    2
     2    23    22    1
     3    23    25   am
     4    69    67   ar
     5    22    19    1
     6    67    68   ar
     7    67    66    1
     8    21    20    2
     9   102   101    1
    10    19    20    1
    11    19    18    1
    12    20    26   am
    13    66    65    1
    14   103   101    1
    15    26    27    1
    16    27    28    1
    17   101    98    1
    18   120   118    1
    19   112   110   am
    20    65    62    1
    21    11     9    1
    22    29    28    2
    23    28    30   am
    24    10     9    1
    25   121   122    1
    26   122   123    1
    27    62    61    1
    28    62    63    1
    29   110   109    1
    30   110   111    2
    31    98    99    1
    32    98    97    1
    33   118   117    1
    34   118   119    1
    35   109   108    1
    36     9     8    2
    37   107   106    2
    38    64    63    2
    39   117   114    1
    40    30    31    1
    41    99   100    2
    42   106   105    1
    43   116   115    2
    44    63    70   am
    45    97    90   am
    46   123   124    2
    47   108   105    1
    48     8     7    1
    49   115   114    1
    50    31    34    1
    51    31    32    1
    52   105   104    1
    53   114   113    1
    54    48    47    1
    55    84    83    2
    56    70    71    1
    57    34    35    1
    58    90    91    2
    59    90    89    1
    60     7     6    1
    61    16    13    1
    62    16    17    1
    63     6     5    1
    64    96    95    1
    65    54    53    1
    66    32    36   am
    67    32    33    2
    68    47    46    1
    69    71    72    1
    70    71    74    1
    71     5     2    1
    72    36    37    1
    73    13    12    1
    74    13    14    1
    75    12     3   am
    76    89    88    1
    77    89    92    1
    78    53    50    1
    79     2     3    1
    80     2     1    1
    81     3     4    2
    82    83    88   am
    83    83    82    1
    84    60    59    1
    85    93    92    1
    86    93    94    1
    87    95    94    1
    88    72    81   am
    89    72    73    2
    90    81    82    1
    91    74    75    1
    92    85    82    1
    93    85    87    1
    94    85    86    1
    95    37    38    1
    96    46    45    1
    97    14    15    2
    98    50    49    1
    99    50    51    1
   100    49    42   am
   101    40    38   am
   102    40    41    1
   103    59    56    1
   104    55    51   am
   105    55    56    1
   106    45    44    1
   107    75    77   ar
   108    75    76   ar
   109    38    39    2
   110    51    52    2
   111    44    41    1
   112    77    79   ar
   113    56    57    1
   114    41    42    1
   115    42    43    2
   116    76    78   ar
   117    79    80   ar
   118    57    58    2
   119    78    80   ar
