@<TRIPOS>MOLECULE
tmp/4ncjC01.pdb
 113 106 0 0 0
SMALL
GASTEIGER

@<TRIPOS>ATOM
      1  N        -16.6900   -6.6130   -8.6810 N.3    12  ARG12      -0.1231
      2  CA       -16.0220   -6.9630   -7.4270 C.3    12  ARG12       0.1694
      3  C        -14.6790   -6.2210   -7.2990 C.2    12  ARG12       0.2592
      4  O        -14.6630   -4.9920   -7.3280 O.2    12  ARG12      -0.2718
      5  CB       -15.8750   -8.4890   -7.2930 C.3    12  ARG12       0.0321
      6  CG       -17.2340   -9.2090   -7.1080 C.3    12  ARG12       0.0489
      7  CD       -17.1080  -10.7430   -7.0090 C.3    12  ARG12       0.2205
      8  NE       -16.2060  -11.1350   -5.9410 N.pl3  12  ARG12      -0.0865
      9  CZ       -16.5560  -11.3480   -4.6740 C.cat  12  ARG12       0.5346
     10  NH1      -17.8100  -11.2140   -4.2820 N.pl3  12  ARG12       0.1354
     11  NH2      -15.6320  -11.7100   -3.7890 N.pl3  12  ARG12       0.1354
     12  N        -13.5640   -6.9440   -7.1910 N.am   13  SER13      -0.1952
     13  CA       -12.2520   -6.3000   -7.0220 C.3    13  SER13       0.1924
     14  C        -11.6810   -5.7300   -8.3200 C.2    13  SER13       0.2314
     15  O        -10.6930   -4.9940   -8.2860 O.2    13  SER13      -0.2863
     16  CB       -11.2290   -7.2670   -6.4380 C.3    13  SER13       0.2116
     17  OG       -11.1150   -8.4130   -7.2530 O.3    13  SER13      -0.2180
     18  N         -5.0530  -15.3450   -1.4700 N.3    32  ASN32      -0.1225
     19  CA        -6.4730  -15.1790   -1.1290 C.3    32  ASN32       0.1785
     20  C         -6.9020  -13.7070   -1.2550 C.2    32  ASN32       0.2598
     21  O         -6.1940  -12.8000   -0.8030 O.2    32  ASN32      -0.2718
     22  CB        -6.7830  -15.6730    0.2970 C.3    32  ASN32       0.1169
     23  CG        -6.4270  -17.1550    0.5160 C.2    32  ASN32       0.2627
     24  OD1       -6.0090  -17.5460    1.6080 O.2    32  ASN32      -0.2716
     25  ND2       -6.5840  -17.9660   -0.5190 N.am   32  ASN32      -0.0877
     26  N         -8.0580  -13.4900   -1.8810 N.am   33  GLY33      -0.1942
     27  CA        -8.6820  -12.1760   -1.9430 C.3    33  GLY33       0.2014
     28  C         -8.0630  -11.2370   -2.9810 C.2    33  GLY33       0.2640
     29  O         -8.2460  -10.0230   -2.8980 O.2    33  GLY33      -0.2714
     30  N         -7.3410  -11.7930   -3.9540 N.am   34  SER34      -0.1935
     31  CA        -6.6840  -10.9790   -4.9780 C.3    34  SER34       0.2055
     32  C         -7.5490  -10.6930   -6.2320 C.2    34  SER34       0.2644
     33  O         -7.2530   -9.7470   -6.9710 O.2    34  SER34      -0.2714
     34  CB        -5.3180  -11.5710   -5.3660 C.3    34  SER34       0.2130
     35  OG        -5.4310  -12.9270   -5.7810 O.3    34  SER34      -0.2179
     36  N         -8.5870  -11.4980   -6.4680 N.am   35  GLY35      -0.1939
     37  CA        -9.5050  -11.3070   -7.5930 C.3    35  GLY35       0.2014
     38  C         -9.6260  -12.4580   -8.6000 C.2    35  GLY35       0.2639
     39  O        -10.1860  -12.2910   -9.6840 O.2    35  GLY35      -0.2714
     40  N         -9.1090  -13.6260   -8.2450 N.am   36  LYS36      -0.1963
     41  CA        -9.1350  -14.7970   -9.1390 C.3    36  LYS36       0.1728
     42  C        -10.5470  -15.2600   -9.4940 C.2    36  LYS36       0.2617
     43  O        -10.9530  -15.2340  -10.6750 O.2    36  LYS36      -0.2715
     44  CB        -8.3770  -15.9580   -8.5010 C.3    36  LYS36       0.0311
     45  CG        -6.8600  -15.8100   -8.4780 C.3    36  LYS36       0.0038
     46  CD        -6.2050  -16.7590   -7.4780 C.3    36  LYS36       0.0206
     47  CE        -6.4000  -16.1920   -6.0950 C.3    36  LYS36       0.1093
     48  NZ        -6.9870  -17.0840   -5.0870 N.3    36  LYS36      -0.1314
     49  N        -11.2930  -15.6910   -8.4830 N.am   37  SER37      -0.1936
     50  CA       -12.6520  -16.1860   -8.7080 C.3    37  SER37       0.2055
     51  C        -13.5530  -15.0950   -9.2800 C.2    37  SER37       0.2643
     52  O        -14.5380  -15.3940   -9.9890 O.2    37  SER37      -0.2714
     53  CB       -13.2660  -16.7670   -7.4180 C.3    37  SER37       0.2130
     54  OG       -12.3130  -17.5890   -6.7640 O.3    37  SER37      -0.2179
     55  N        -13.2420  -13.8340   -8.9810 N.am   38  SER38      -0.1949
     56  CA       -14.0890  -12.7360   -9.5050 C.3    38  SER38       0.1924
     57  C        -14.0330  -12.6970  -11.0470 C.2    38  SER38       0.2314
     58  O        -15.0300  -12.4130  -11.7300 O.2    38  SER38      -0.2863
     59  CB       -13.6900  -11.3770   -8.9160 C.3    38  SER38       0.2116
     60  OG       -13.9940  -11.3130   -7.5350 O.3    38  SER38      -0.2180
     61  N        -24.8710   -6.3790   -5.7540 N.3    60  GLU60      -0.1245
     62  CA       -23.6870   -6.5870   -4.9170 C.3    60  GLU60       0.1567
     63  C        -22.3670   -6.5550   -5.6810 C.2    60  GLU60       0.2260
     64  O        -21.3520   -6.1260   -5.1300 O.2    60  GLU60      -0.2867
     65  CB       -23.7810   -7.9360   -4.1970 C.3    60  GLU60       0.0388
     66  CG       -24.9380   -8.0200   -3.2470 C.3    60  GLU60       0.1160
     67  CD       -24.9360   -9.2930   -2.4390 C.2    60  GLU60       0.3649
     68  OE1      -24.3340  -10.2880   -2.8910 O.co2  60  GLU60      -0.2457
     69  OE2      -25.5380   -9.2960   -1.3440 O.co2  60  GLU60      -0.2457
     70  N        -21.2130   -4.8670   -8.3740 N.3    62  THR62      -0.1203
     71  CA       -20.6140   -3.6190   -8.8560 C.3    62  THR62       0.1994
     72  C        -19.5580   -3.1930   -7.8580 C.2    62  THR62       0.2618
     73  O        -19.8360   -3.1470   -6.6660 O.2    62  THR62      -0.2717
     74  CB       -21.6470   -2.4890   -8.9830 C.3    62  THR62       0.1784
     75  OG1      -22.6930   -2.9020   -9.8640 O.3    62  THR62      -0.2211
     76  CG2      -20.9960   -1.2210   -9.5290 C.3    62  THR62       0.0376
     77  N        -18.3520   -2.8940   -8.3390 N.am   63  LYS63      -0.1965
     78  CA       -17.2480   -2.5170   -7.4540 C.3    63  LYS63       0.1728
     79  C        -17.6300   -1.3390   -6.5500 C.2    63  LYS63       0.2616
     80  O        -18.2390   -0.3790   -7.0080 O.2    63  LYS63      -0.2715
     81  CB       -16.0000   -2.1640   -8.2670 C.3    63  LYS63       0.0311
     82  CG       -14.7320   -1.9440   -7.4390 C.3    63  LYS63       0.0038
     83  CD       -13.4690   -2.2300   -8.2720 C.3    63  LYS63       0.0206
     84  CE       -12.2030   -2.2780   -7.4260 C.3    63  LYS63       0.1093
     85  NZ       -11.9780   -1.0200   -6.6340 N.3    63  LYS63      -0.1314
     86  N        -17.2840   -1.4450   -5.2670 N.am   64  VAL64      -0.1977
     87  CA       -17.5430   -0.3880   -4.2980 C.3    64  VAL64       0.1596
     88  C        -16.9890    0.9260   -4.8060 C.2    64  VAL64       0.2287
     89  O        -15.8250    1.0060   -5.1930 O.2    64  VAL64      -0.2864
     90  CB       -16.8970   -0.7110   -2.9240 C.3    64  VAL64       0.0276
     91  CG1      -16.8440    0.5360   -2.0150 C.3    64  VAL64       0.0022
     92  CG2      -17.6580   -1.8250   -2.2340 C.3    64  VAL64       0.0022
     93  N        -15.2960  -22.4420   -7.4520 N.3   140  GLN140     -0.1245
     94  CA       -14.6420  -22.7020   -6.1800 C.3   140  GLN140      0.1566
     95  C        -15.6580  -23.2980   -5.2250 C.2   140  GLN140      0.2260
     96  O        -16.7890  -22.8310   -5.1440 O.2   140  GLN140     -0.2867
     97  CB       -14.0380  -21.4330   -5.5840 C.3   140  GLN140      0.0367
     98  CG       -13.1600  -21.6880   -4.3650 C.3   140  GLN140      0.0905
     99  CD       -12.2530  -20.5090   -4.0100 C.2   140  GLN140      0.2608
    100  OE1      -12.2850  -19.4700   -4.6610 O.2   140  GLN140     -0.2717
    101  NE2      -11.4430  -20.6750   -2.9660 N.am  140  GLN140     -0.0878
    102  N         -3.7630   -7.6330   -5.2480 N.3   309  LEU309     -0.1245
    103  CA        -4.6560   -6.5490   -4.8510 C.3   309  LEU309      0.1561
    104  C         -3.8190   -5.3160   -4.5600 C.2   309  LEU309      0.2260
    105  O         -2.9570   -5.3410   -3.6800 O.2   309  LEU309     -0.2867
    106  CB        -5.4420   -6.9800   -3.6200 C.3   309  LEU309      0.0270
    107  CG        -6.7560   -6.2820   -3.2980 C.3   309  LEU309      0.0019
    108  CD1       -7.8290   -6.5520   -4.3400 C.3   309  LEU309      0.0001
    109  CD2       -7.1930   -6.7550   -1.9290 C.3   309  LEU309      0.0001
    110  N         -6.8500   -1.7440   -3.2970 N.3   312  GLY312     -0.1225
    111  CA        -8.1790   -2.3130   -3.2590 C.3   312  GLY312      0.1811
    112  C         -8.7450   -2.4940   -4.6570 C.2   312  GLY312      0.2280
    113  O         -9.9560   -2.4940   -4.8450 O.2   312  GLY312     -0.2866
@<TRIPOS>BOND
     1    58    57    2
     2    57    56    1
     3    43    42    2
     4    52    51    2
     5    75    74    1
     6    39    38    2
     7    76    74    1
     8    56    55    1
     9    56    59    1
    10    42    41    1
    11    42    49   am
    12    51    55   am
    13    51    50    1
    14    41    44    1
    15    41    40    1
    16    74    71    1
    17    59    60    1
    18    71    70    1
    19    71    72    1
    20    50    49    1
    21    50    53    1
    22     1     2    1
    23    38    40   am
    24    38    37    1
    25    44    45    1
    26    45    46    1
    27    77    72   am
    28    77    78    1
    29    14    15    2
    30    14    13    1
    31    83    82    1
    32    83    84    1
    33    81    78    1
    34    81    82    1
    35    72    73    2
    36    37    36    1
    37    46    47    1
    38    78    79    1
    39    93    94    1
    40     2     3    1
    41     2     5    1
    42    84    85    1
    43    53    54    1
    44     4     3    2
    45     3    12   am
    46     5     6    1
    47    17    16    1
    48    12    13    1
    49     6     7    1
    50    13    16    1
    51     7     8    1
    52    80    79    2
    53    33    32    2
    54    79    86   am
    55    36    32   am
    56    32    31    1
    57    94    97    1
    58    94    95    1
    59    47    48    1
    60     8     9    2
    61    35    34    1
    62    61    62    1
    63    63    64    2
    64    63    62    1
    65    97    98    1
    66    34    31    1
    67    86    87    1
    68   102   103    1
    69    95    96    2
    70    89    88    2
    71    31    30    1
    72    62    65    1
    73   103   104    1
    74   103   106    1
    75   113   112    2
    76    88    87    1
    77     9    10    1
    78     9    11    1
    79   100    99    2
    80   112   111    1
    81   104   105    2
    82    98    99    1
    83   108   107    1
    84    87    90    1
    85    65    66    1
    86    99   101   am
    87    30    28   am
    88   106   107    1
    89   107   109    1
    90   110   111    1
    91    66    67    1
    92    28    29    2
    93    28    27    1
    94    90    92    1
    95    90    91    1
    96    68    67   ar
    97    67    69   ar
    98    27    26    1
    99    26    20   am
   100    18    19    1
   101    20    19    1
   102    20    21    2
   103    19    22    1
   104    25    23   am
   105    22    23    1
   106    23    24    2
