@<TRIPOS>MOLECULE
tmp/4ncjC00.pdb
 84 85 0 0 0
SMALL
GASTEIGER

@<TRIPOS>ATOM
      1  N         -4.3950  -46.9980   -4.0140 N.3   201  LYS201     -0.1231
      2  CA        -5.2570  -47.3100   -2.8750 C.3   201  LYS201      0.1693
      3  C         -6.6780  -47.6340   -3.3260 C.2   201  LYS201      0.2592
      4  O         -7.2970  -48.5360   -2.7820 O.2   201  LYS201     -0.2718
      5  CB        -5.2860  -46.1430   -1.8790 C.3   201  LYS201      0.0285
      6  CG        -6.1800  -46.3720   -0.6600 C.3   201  LYS201      0.0035
      7  CD        -6.0820  -45.1930    0.3080 C.3   201  LYS201      0.0206
      8  CE        -6.8980  -45.4030    1.5780 C.3   201  LYS201      0.1093
      9  NZ        -6.8280  -44.2330    2.5300 N.3   201  LYS201     -0.1314
     10  N         -7.2030  -46.8700   -4.2830 N.am  202  TYR202     -0.1976
     11  CA        -8.4850  -47.1790   -4.9010 C.3   202  TYR202      0.1639
     12  C         -8.2370  -47.5750   -6.3490 C.2   202  TYR202      0.2290
     13  O         -7.6690  -46.7970   -7.1120 O.2   202  TYR202     -0.2864
     14  CB        -9.4450  -46.0010   -4.8460 C.3   202  TYR202      0.0560
     15  CG        -9.7320  -45.5640   -3.4530 C.ar  202  TYR202     -0.0198
     16  CD1      -10.7340  -46.1730   -2.7130 C.ar  202  TYR202     -0.0009
     17  CD2       -8.9800  -44.5680   -2.8590 C.ar  202  TYR202     -0.0009
     18  CE1      -10.9950  -45.8030   -1.4510 C.ar  202  TYR202      0.0417
     19  CE2       -9.2260  -44.1870   -1.5710 C.ar  202  TYR202      0.0417
     20  CZ       -10.2360  -44.8070   -0.8700 C.ar  202  TYR202      0.1957
     21  OH       -10.5080  -44.4220    0.4230 O.3   202  TYR202     -0.2866
     22  N        -12.3100  -50.5400   -3.5390 N.3   220  TRP220     -0.1241
     23  CA       -11.2890  -50.6450   -2.5070 C.3   220  TRP220      0.1605
     24  C        -11.2090  -52.0800   -2.0370 C.2   220  TRP220      0.2264
     25  O        -12.2290  -52.6800   -1.6830 O.2   220  TRP220     -0.2867
     26  CB       -11.6460  -49.7680   -1.3210 C.3   220  TRP220      0.0550
     27  CG       -10.6280  -49.7480   -0.2530 C.ar  220  TRP220      0.0003
     28  CD1       -9.5040  -48.9620   -0.2080 C.ar  220  TRP220      0.0946
     29  CD2      -10.6210  -50.5190    0.9610 C.ar  220  TRP220      0.0152
     30  NE1       -8.7950  -49.2110    0.9490 N.ar  220  TRP220     -0.2442
     31  CE2       -9.4600  -50.1570    1.6820 C.ar  220  TRP220      0.0810
     32  CE3      -11.4730  -51.4820    1.5050 C.ar  220  TRP220      0.0012
     33  CZ2       -9.1360  -50.7230    2.9170 C.ar  220  TRP220      0.0191
     34  CZ3      -11.1360  -52.0590    2.7300 C.ar  220  TRP220      0.0001
     35  CH2       -9.9800  -51.6790    3.4140 C.ar  220  TRP220      0.0015
     36  N        -19.0830  -42.3150    0.5390 N.3   228  THR228     -0.1203
     37  CA       -18.8710  -42.0270    1.9530 C.3   228  THR228      0.1994
     38  C        -17.6470  -42.7450    2.5430 C.2   228  THR228      0.2618
     39  O        -17.1490  -42.3790    3.6060 O.2   228  THR228     -0.2717
     40  CB       -20.0970  -42.4440    2.7910 C.3   228  THR228      0.1784
     41  OG1      -20.3800  -43.8350    2.5680 O.3   228  THR228     -0.2211
     42  CG2      -21.3320  -41.5980    2.4540 C.3   228  THR228      0.0376
     43  N        -17.1670  -43.7730    1.8640 N.am  229  PHE229     -0.1961
     44  CA       -15.9600  -44.4650    2.2720 C.3   229  PHE229      0.1771
     45  C        -14.7460  -43.5340    2.2820 C.2   229  PHE229      0.2619
     46  O        -13.8860  -43.6380    3.1310 O.2   229  PHE229     -0.2715
     47  CB       -15.7110  -45.6180    1.2870 C.3   229  PHE229      0.0574
     48  CG       -14.9180  -46.7690    1.8400 C.ar  229  PHE229     -0.0200
     49  CD1      -15.5580  -47.8240    2.4660 C.ar  229  PHE229     -0.0042
     50  CD2      -13.5360  -46.8330    1.6690 C.ar  229  PHE229     -0.0042
     51  CE1      -14.8360  -48.9270    2.9240 C.ar  229  PHE229     -0.0003
     52  CE2      -12.8110  -47.9270    2.1220 C.ar  229  PHE229     -0.0003
     53  CZ       -13.4660  -48.9750    2.7680 C.ar  229  PHE229     -0.0000
     54  N        -14.6920  -42.6190    1.3270 N.am  230  LEU230     -0.1963
     55  CA       -13.5430  -41.7590    1.1210 C.3   230  LEU230      0.1728
     56  C        -13.3080  -40.7560    2.2600 C.2   230  LEU230      0.2617
     57  O        -14.2330  -40.3890    2.9550 O.2   230  LEU230     -0.2715
     58  CB       -13.7460  -40.9830   -0.1660 C.3   230  LEU230      0.0311
     59  CG       -13.8310  -41.8520   -1.4210 C.3   230  LEU230      0.0022
     60  CD1      -14.1010  -40.9660   -2.6380 C.3   230  LEU230      0.0001
     61  CD2      -12.5650  -42.6660   -1.6120 C.3   230  LEU230      0.0001
     62  N        -12.0710  -40.3200    2.4290 N.am  231  SER231     -0.1936
     63  CA       -11.7710  -39.2020    3.3260 C.3   231  SER231      0.2055
     64  C        -12.1080  -37.8740    2.6200 C.2   231  SER231      0.2644
     65  O        -12.4440  -37.8840    1.4410 O.2   231  SER231     -0.2714
     66  CB       -10.3010  -39.2350    3.7310 C.3   231  SER231      0.2130
     67  OG        -9.4620  -39.0970    2.6090 O.3   231  SER231     -0.2179
     68  N        -11.9920  -36.7380    3.3090 N.am  232  GLY232     -0.1939
     69  CA       -12.3050  -35.4410    2.6910 C.3   232  GLY232      0.2014
     70  C        -11.3830  -35.1190    1.5110 C.2   232  GLY232      0.2639
     71  O        -11.8290  -34.7380    0.3960 O.2   232  GLY232     -0.2714
     72  N        -10.0850  -35.3210    1.7420 N.am  233  GLY233     -0.1939
     73  CA        -9.0710  -35.1120    0.7180 C.3   233  GLY233      0.2014
     74  C         -9.2600  -36.0320   -0.4760 C.2   233  GLY233      0.2638
     75  O         -9.0960  -35.6410   -1.6510 O.2   233  GLY233     -0.2714
     76  N         -9.6350  -37.2740   -0.1760 N.am  234  GLU234     -0.1977
     77  CA        -9.8900  -38.2570   -1.2220 C.3   234  GLU234      0.1602
     78  C        -11.1250  -37.8600   -2.0270 C.2   234  GLU234      0.2287
     79  O        -11.1620  -38.0430   -3.2500 O.2   234  GLU234     -0.2864
     80  CB        -9.9980  -39.6800   -0.6210 C.3   234  GLU234      0.0415
     81  CG        -8.6480  -40.2280   -0.1340 C.3   234  GLU234      0.1163
     82  CD        -8.7570  -41.4940    0.7210 C.2   234  GLU234      0.3649
     83  OE1       -9.8770  -41.8420    1.1880 O.co2 234  GLU234     -0.2457
     84  OE2       -7.6900  -42.1150    0.9480 O.co2 234  GLU234     -0.2457
@<TRIPOS>BOND
     1    13    12    2
     2    12    11    1
     3    11    14    1
     4    11    10    1
     5    14    15    1
     6    10     3   am
     7     1     2    1
     8    22    23    1
     9    15    17   ar
    10    15    16   ar
    11     3     2    1
    12     3     4    2
    13    79    78    2
    14     2     5    1
    15    17    19   ar
    16    16    18   ar
    17    60    59    1
    18    23    24    1
    19    23    26    1
    20    24    25    2
    21    78    77    1
    22     5     6    1
    23    75    74    2
    24    61    59    1
    25    19    20   ar
    26    18    20   ar
    27    59    58    1
    28    26    27    1
    29    77    80    1
    30    77    76    1
    31    20    21    1
    32     6     7    1
    33    80    81    1
    34    74    76   am
    35    74    73    1
    36    27    28   ar
    37    27    29   ar
    38    28    30   ar
    39    58    55    1
    40    81    82    1
    41     7     8    1
    42    71    70    2
    43    36    37    1
    44    73    72    1
    45    82    84   ar
    46    82    83   ar
    47    30    31   ar
    48    29    32   ar
    49    29    31   ar
    50    55    54    1
    51    55    56    1
    52    47    48    1
    53    47    44    1
    54    54    45   am
    55    65    64    2
    56    32    34   ar
    57    70    72   am
    58    70    69    1
    59     8     9    1
    60    50    48   ar
    61    50    52   ar
    62    31    33   ar
    63    48    49   ar
    64    43    44    1
    65    43    38   am
    66    37    38    1
    67    37    40    1
    68    52    53   ar
    69    56    62   am
    70    56    57    2
    71    44    45    1
    72    45    46    2
    73    62    63    1
    74    42    40    1
    75    49    51   ar
    76    38    39    2
    77    41    40    1
    78    67    66    1
    79    64    68   am
    80    64    63    1
    81    69    68    1
    82    34    35   ar
    83    53    51   ar
    84    33    35   ar
    85    63    66    1
