@<TRIPOS>MOLECULE
tmp/4nclB00.pdb
 108 105 0 0 0
SMALL
GASTEIGER

@<TRIPOS>ATOM
      1  N        -18.1420  -45.1200   -7.4300 N.3    13  VAL13      -0.1231
      2  CA       -17.0490  -46.0740   -7.5910 C.3    13  VAL13       0.1692
      3  C        -16.7980  -46.3720   -9.0740 C.2    13  VAL13       0.2592
      4  O        -17.7310  -46.3450   -9.8820 O.2    13  VAL13      -0.2718
      5  CB       -17.3400  -47.3860   -6.8190 C.3    13  VAL13       0.0266
      6  CG1      -18.5760  -48.0810   -7.3740 C.3    13  VAL13       0.0020
      7  CG2      -16.1320  -48.3180   -6.8350 C.3    13  VAL13       0.0020
      8  N        -15.5270  -46.5950   -9.4190 N.am   14  ASP14      -0.1960
      9  CA       -15.0900  -46.9610  -10.7750 C.3    14  ASP14       0.1840
     10  C        -15.2000  -45.8120  -11.7830 C.2    14  ASP14       0.2623
     11  O        -15.1730  -46.0420  -12.9920 O.2    14  ASP14      -0.2715
     12  CB       -15.8640  -48.1830  -11.2920 C.3    14  ASP14       0.1450
     13  CG       -15.3500  -49.4900  -10.7130 C.2    14  ASP14       0.3671
     14  OD1      -15.8400  -50.5620  -11.1290 O.co2  14  ASP14      -0.2456
     15  OD2      -14.4490  -49.4480   -9.8490 O.co2  14  ASP14      -0.2456
     16  N        -15.3060  -44.5810  -11.2920 N.am   15  THR15      -0.1937
     17  CA       -15.3590  -43.4200  -12.1760 C.3    15  THR15       0.2028
     18  C        -13.9530  -42.8940  -12.4370 C.2    15  THR15       0.2643
     19  O        -13.7550  -42.0620  -13.3250 O.2    15  THR15      -0.2714
     20  CB       -16.2090  -42.2750  -11.5930 C.3    15  THR15       0.1808
     21  OG1      -15.7690  -41.9890  -10.2570 O.3    15  THR15      -0.2208
     22  CG2      -17.6910  -42.6400  -11.5890 C.3    15  THR15       0.0379
     23  N        -12.9820  -43.3990  -11.6760 N.am   16  GLY16      -0.1939
     24  CA       -11.5940  -43.0030  -11.8360 C.3    16  GLY16       0.2014
     25  C        -11.0270  -41.9510  -10.8920 C.2    16  GLY16       0.2639
     26  O        -10.0860  -41.2560  -11.2640 O.2    16  GLY16      -0.2714
     27  N        -11.5720  -41.8260   -9.6820 N.am   17  LYS17      -0.1963
     28  CA       -11.0590  -40.8370   -8.7270 C.3    17  LYS17       0.1728
     29  C         -9.6180  -41.1000   -8.3130 C.2    17  LYS17       0.2617
     30  O         -8.7830  -40.1840   -8.2900 O.2    17  LYS17      -0.2715
     31  CB       -11.8930  -40.8220   -7.4450 C.3    17  LYS17       0.0311
     32  CG       -13.3700  -40.5860   -7.5880 C.3    17  LYS17       0.0038
     33  CD       -14.0010  -40.6730   -6.2060 C.3    17  LYS17       0.0206
     34  CE       -13.8350  -42.0530   -5.5790 C.3    17  LYS17       0.1093
     35  NZ       -14.6870  -43.0900   -6.2290 N.3    17  LYS17      -0.1314
     36  N         -9.3420  -42.3560   -7.9650 N.am   18  THR18      -0.1937
     37  CA        -8.0200  -42.7550   -7.4900 C.3    18  THR18       0.2028
     38  C         -7.0290  -42.6100   -8.6390 C.2    18  THR18       0.2642
     39  O         -5.9410  -42.0600   -8.4690 O.2    18  THR18      -0.2714
     40  CB        -8.0090  -44.2050   -6.9390 C.3    18  THR18       0.1808
     41  OG1       -8.8590  -44.2960   -5.7870 O.3    18  THR18      -0.2208
     42  CG2       -6.6000  -44.6350   -6.5510 C.3    18  THR18       0.0379
     43  N         -7.4270  -43.0930   -9.8120 N.am   19  LYS19      -0.1977
     44  CA        -6.5850  -43.0000  -10.9950 C.3    19  LYS19       0.1596
     45  C         -6.3570  -41.5260  -11.3310 C.2    19  LYS19       0.2287
     46  O         -5.2820  -41.1500  -11.7920 O.2    19  LYS19      -0.2864
     47  CB        -7.2170  -43.7470  -12.1710 C.3    19  LYS19       0.0298
     48  CG        -6.2040  -44.2380  -13.1980 C.3    19  LYS19       0.0038
     49  CD        -5.3440  -45.3590  -12.6080 C.3    19  LYS19       0.0206
     50  CE        -4.2580  -45.8260  -13.5710 C.3    19  LYS19       0.1093
     51  NZ        -4.8120  -46.5390  -14.7560 N.3    19  LYS19      -0.1314
     52  N        -14.8390  -37.7540  -16.7430 N.3   122  ASN122     -0.1225
     53  CA       -13.6760  -38.6020  -16.9330 C.3   122  ASN122      0.1785
     54  C        -13.8280  -39.6310  -18.0530 C.2   122  ASN122      0.2597
     55  O        -14.9470  -39.9040  -18.5200 O.2   122  ASN122     -0.2718
     56  CB       -13.3520  -39.3250  -15.6250 C.3   122  ASN122      0.1169
     57  CG       -11.9280  -39.8240  -15.5810 C.2   122  ASN122      0.2627
     58  OD1      -11.0170  -39.1720  -16.0990 O.2   122  ASN122     -0.2716
     59  ND2      -11.7260  -40.9950  -14.9840 N.am  122  ASN122     -0.0877
     60  N        -12.6830  -40.1960  -18.4550 N.am  123  LYS123     -0.1980
     61  CA       -12.5740  -41.2670  -19.4560 C.3   123  LYS123      0.1596
     62  C        -12.9380  -40.8260  -20.8770 C.2   123  LYS123      0.2287
     63  O        -13.5230  -41.6010  -21.6460 O.2   123  LYS123     -0.2864
     64  CB       -13.4440  -42.4660  -19.0460 C.3   123  LYS123      0.0298
     65  CG       -13.2540  -42.9160  -17.5890 C.3   123  LYS123      0.0038
     66  CD       -13.6340  -44.3800  -17.4000 C.3   123  LYS123      0.0206
     67  CE       -13.8560  -44.7180  -15.9290 C.3   123  LYS123      0.1093
     68  NZ       -14.6230  -45.9880  -15.7610 N.3   123  LYS123     -0.1314
     69  N        -10.9810  -40.6190  -23.1890 N.3   125  ASP125     -0.1225
     70  CA       -10.1610  -41.4260  -24.0940 C.3   125  ASP125      0.1805
     71  C        -10.9320  -42.6450  -24.6010 C.2   125  ASP125      0.2597
     72  O        -10.5230  -43.2890  -25.5700 O.2   125  ASP125     -0.2718
     73  CB        -8.8710  -41.8740  -23.4030 C.3   125  ASP125      0.1424
     74  CG        -9.1330  -42.6960  -22.1500 C.2   125  ASP125      0.3668
     75  OD1       -9.0320  -43.9410  -22.2230 O.co2 125  ASP125     -0.2456
     76  OD2       -9.4310  -42.1000  -21.0920 O.co2 125  ASP125     -0.2456
     77  N        -12.0320  -42.9680  -23.9240 N.am  126  ARG126     -0.1979
     78  CA       -12.9060  -44.0570  -24.3500 C.3   126  ARG126      0.1597
     79  C        -13.8540  -43.6510  -25.4710 C.2   126  ARG126      0.2287
     80  O        -14.5870  -44.4870  -26.0000 O.2   126  ARG126     -0.2864
     81  CB       -13.7020  -44.6140  -23.1680 C.3   126  ARG126      0.0334
     82  CG       -12.8290  -45.2380  -22.0950 C.3   126  ARG126      0.0492
     83  CD       -13.1340  -46.7280  -22.0070 C.3   126  ARG126      0.2205
     84  NE       -13.5520  -47.1510  -20.6750 N.pl3 126  ARG126     -0.0865
     85  CZ       -13.7710  -48.4170  -20.3370 C.cat 126  ARG126      0.5346
     86  NH1      -14.1530  -48.7230  -19.1030 N.pl3 126  ARG126      0.1354
     87  NH2      -13.6050  -49.3800  -21.2330 N.pl3 126  ARG126      0.1354
     88  N         -9.0680  -37.1460  -18.8110 N.3   190  SER190     -0.1202
     89  CA        -8.7110  -38.5620  -18.8700 C.3   190  SER190      0.2020
     90  C         -7.6630  -38.8630  -17.8080 C.2   190  SER190      0.2619
     91  O         -6.5300  -38.3880  -17.8980 O.2   190  SER190     -0.2717
     92  CB        -8.1820  -38.9500  -20.2550 C.3   190  SER190      0.2103
     93  OG        -7.7850  -40.3150  -20.2830 O.3   190  SER190     -0.2182
     94  N         -8.0330  -39.6550  -16.8060 N.am  191  ALA191     -0.1965
     95  CA        -7.0560  -40.0800  -15.8110 C.3   191  ALA191      0.1728
     96  C         -6.0130  -40.9850  -16.4620 C.2   191  ALA191      0.2616
     97  O         -4.8890  -41.1060  -15.9730 O.2   191  ALA191     -0.2715
     98  CB        -7.7390  -40.7870  -14.6480 C.3   191  ALA191      0.0334
     99  N         -6.3910  -41.6280  -17.5640 N.am  192  HIS192     -0.1973
    100  CA        -5.4700  -42.4960  -18.2910 C.3   192  HIS192      0.1656
    101  C         -4.3750  -41.6800  -18.9970 C.2   192  HIS192      0.2291
    102  O         -3.1820  -41.9950  -18.8910 O.2   192  HIS192     -0.2864
    103  CB        -6.2370  -43.3600  -19.2930 C.3   192  HIS192      0.0771
    104  CG        -5.4130  -44.4380  -19.9250 C.ar  192  HIS192      0.0820
    105  ND1       -4.7200  -44.2600  -21.1080 N.ar  192  HIS192     -0.2267
    106  CD2       -5.1790  -45.7170  -19.5470 C.ar  192  HIS192      0.1154
    107  CE1       -4.0920  -45.3770  -21.4200 C.ar  192  HIS192      0.1986
    108  NE2       -4.3540  -46.2800  -20.4890 N.ar  192  HIS192     -0.2212
@<TRIPOS>BOND
     1    80    79    2
     2    72    71    2
     3    79    78    1
     4    71    70    1
     5    71    77   am
     6    78    77    1
     7    78    81    1
     8    70    73    1
     9    70    69    1
    10    73    74    1
    11    81    82    1
    12    75    74   ar
    13    74    76   ar
    14    82    83    1
    15    83    84    1
    16    63    62    2
    17   107   105   ar
    18   107   108   ar
    19    87    85    1
    20   105   104   ar
    21    62    61    1
    22    84    85    2
    23   108   106   ar
    24    85    86    1
    25    93    92    1
    26    92    89    1
    27   104   106   ar
    28   104   103    1
    29    61    64    1
    30    61    60    1
    31   103   100    1
    32    64    65    1
    33   101   102    2
    34   101   100    1
    35    89    88    1
    36    89    90    1
    37    55    54    2
    38    60    54   am
    39   100    99    1
    40    54    53    1
    41    91    90    2
    42    90    94   am
    43    65    66    1
    44    99    96   am
    45    66    67    1
    46    53    52    1
    47    53    56    1
    48    94    95    1
    49    96    97    2
    50    96    95    1
    51    58    57    2
    52    67    68    1
    53    95    98    1
    54    56    57    1
    55    57    59   am
    56    51    50    1
    57    50    49    1
    58    19    18    2
    59    48    49    1
    60    48    47    1
    61    11    10    2
    62    18    17    1
    63    18    23   am
    64    17    20    1
    65    17    16    1
    66    47    44    1
    67    24    23    1
    68    24    25    1
    69    46    45    2
    70    10    16   am
    71    10     9    1
    72    20    22    1
    73    20    21    1
    74    45    44    1
    75    12     9    1
    76    12    13    1
    77    26    25    2
    78    14    13   ar
    79    44    43    1
    80    25    27   am
    81     9     8    1
    82    13    15   ar
    83     4     3    2
    84    43    38   am
    85    27    28    1
    86     8     3   am
    87     3     2    1
    88    28    29    1
    89    28    31    1
    90    38    39    2
    91    38    37    1
    92    29    30    2
    93    29    36   am
    94    36    37    1
    95     2     1    1
    96     2     5    1
    97    32    31    1
    98    32    33    1
    99    37    40    1
   100     6     5    1
   101    40    42    1
   102    40    41    1
   103     7     5    1
   104    35    34    1
   105    33    34    1
