@<TRIPOS>MOLECULE
tmp/4ncmA00.pdb
 156 148 0 0 0
SMALL
GASTEIGER

@<TRIPOS>ATOM
      1  N        -54.7130    0.3300    0.9910 N.3     1  SER1       -0.1217
      2  CA       -55.8570    0.8530    1.7510 C.3     1  SER1        0.1889
      3  C        -55.3390    1.8680    2.8000 C.2     1  SER1        0.2288
      4  O        -54.6670    2.8400    2.4270 O.2     1  SER1       -0.2866
      5  CB       -56.6470   -0.3070    2.3810 C.3     1  SER1        0.2089
      6  OG       -55.8180   -1.3260    2.9320 O.3     1  SER1       -0.2183
      7  N        -53.4290    1.2540    6.5550 N.3     3  PHE3       -0.1227
      8  CA       -52.8850    0.2370    7.4550 C.3     3  PHE3        0.1736
      9  C        -51.6240    0.6950    8.1510 C.2     3  PHE3        0.2596
     10  O        -51.0880    1.7680    7.8510 O.2     3  PHE3       -0.2718
     11  CB       -52.6270   -1.0790    6.6790 C.3     3  PHE3        0.0547
     12  CG       -51.6240   -0.9300    5.5590 C.ar    3  PHE3       -0.0202
     13  CD1      -50.2550   -1.1030    5.7980 C.ar    3  PHE3       -0.0042
     14  CD2      -52.0360   -0.5620    4.2820 C.ar    3  PHE3       -0.0042
     15  CE1      -49.3220   -0.9320    4.7780 C.ar    3  PHE3       -0.0003
     16  CE2      -51.1040   -0.3860    3.2610 C.ar    3  PHE3       -0.0003
     17  CZ       -49.7500   -0.5740    3.5180 C.ar    3  PHE3       -0.0000
     18  N        -51.1470   -0.1100    9.0860 N.am    4  SER4       -0.1938
     19  CA       -49.9440    0.2710    9.8070 C.3     4  SER4        0.2055
     20  C        -48.7800   -0.7720    9.7580 C.2     4  SER4        0.2643
     21  O        -49.0060   -1.9870    9.7060 O.2     4  SER4       -0.2714
     22  CB       -50.2570    0.8090   11.1960 C.3     4  SER4        0.2130
     23  OG       -50.3850   -0.2700   12.0970 O.3     4  SER4       -0.2179
     24  N        -47.5450   -0.2660    9.7440 N.am    5  PHE5       -0.1973
     25  CA       -46.3660   -1.1090    9.6580 C.3     5  PHE5        0.1639
     26  C        -45.1740   -0.3620   10.1690 C.2     5  PHE5        0.2290
     27  O        -44.9030    0.7490    9.7190 O.2     5  PHE5       -0.2864
     28  CB       -46.1340   -1.5750    8.1990 C.3     5  PHE5        0.0560
     29  CG       -44.9630   -2.4970    7.9780 C.ar    5  PHE5       -0.0200
     30  CD1      -44.9030   -3.7430    8.6150 C.ar    5  PHE5       -0.0042
     31  CD2      -43.9290   -2.1350    7.1220 C.ar    5  PHE5       -0.0042
     32  CE1      -43.8270   -4.6170    8.3890 C.ar    5  PHE5       -0.0003
     33  CE2      -42.8690   -3.0030    6.8760 C.ar    5  PHE5       -0.0003
     34  CZ       -42.8260   -4.2500    7.5060 C.ar    5  PHE5       -0.0000
     35  N        -52.7450    4.6730    0.8700 N.3    12  ARG12      -0.1245
     36  CA       -52.5090    4.6090   -0.5720 C.3    12  ARG12       0.1563
     37  C        -53.1570    5.7900   -1.2850 C.2    12  ARG12       0.2260
     38  O        -54.3480    6.0710   -1.0870 O.2    12  ARG12      -0.2867
     39  CB       -52.9850    3.2840   -1.1510 C.3    12  ARG12       0.0307
     40  CG       -52.4890    3.0780   -2.5720 C.3    12  ARG12       0.0489
     41  CD       -52.6850    1.6580   -3.0090 C.3    12  ARG12       0.2205
     42  NE       -54.0920    1.2710   -3.0230 N.pl3  12  ARG12      -0.0865
     43  CZ       -54.5170    0.0130   -2.9480 C.cat  12  ARG12       0.5346
     44  NH1      -53.6450   -0.9880   -2.8400 N.pl3  12  ARG12       0.1354
     45  NH2      -55.8140   -0.2580   -2.9920 N.pl3  12  ARG12       0.1354
     46  N        -52.6000   -3.1130   -5.9240 N.3    17  SER17      -0.1217
     47  CA       -51.7690   -4.3120   -5.9800 C.3    17  SER17       0.1889
     48  C        -52.5450   -5.5720   -5.6820 C.2    17  SER17       0.2288
     49  O        -53.6740   -5.5180   -5.1770 O.2    17  SER17      -0.2866
     50  CB       -50.5470   -4.1950   -5.0690 C.3    17  SER17       0.2089
     51  OG       -50.8490   -4.1230   -3.6860 O.3    17  SER17      -0.2183
     52  N        -51.8090   -9.8550   -4.2970 N.3    19  LYS19      -0.1245
     53  CA       -50.8480  -10.6890   -3.5710 C.3    19  LYS19       0.1561
     54  C        -50.5570  -12.0200   -4.2610 C.2    19  LYS19       0.2260
     55  O        -51.4760  -12.7070   -4.7000 O.2    19  LYS19      -0.2867
     56  CB       -51.3840  -10.9920   -2.1810 C.3    19  LYS19       0.0271
     57  CG       -51.2660   -9.8580   -1.2100 C.3    19  LYS19       0.0035
     58  CD       -51.7090  -10.2940    0.1720 C.3    19  LYS19       0.0206
     59  CE       -53.1510   -9.9720    0.4570 C.3    19  LYS19       0.1093
     60  NZ       -53.2740   -8.6420    1.1610 N.3    19  LYS19      -0.1314
     61  N        -45.5840  -12.8420    0.8650 N.3    35  ARG35      -0.1245
     62  CA       -46.6810  -12.4770   -0.0270 C.3    35  ARG35       0.1563
     63  C        -46.2040  -11.2290   -0.7680 C.2    35  ARG35       0.2260
     64  O        -46.0770  -10.1640   -0.1620 O.2    35  ARG35      -0.2867
     65  CB       -47.9930  -12.2130    0.7330 C.3    35  ARG35       0.0307
     66  CG       -48.4640  -13.4300    1.5210 C.3    35  ARG35       0.0489
     67  CD       -49.9010  -13.3210    2.0100 C.3    35  ARG35       0.2205
     68  NE       -50.8690  -13.8160    1.0200 N.pl3  35  ARG35      -0.0865
     69  CZ       -52.1940  -13.8190    1.1810 C.cat  35  ARG35       0.5346
     70  NH1      -52.7370  -13.3730    2.3100 N.pl3  35  ARG35       0.1354
     71  NH2      -52.9840  -14.2680    0.2140 N.pl3  35  ARG35       0.1354
     72  N        -46.5060   -8.1740   -3.2120 N.3    37  HIS37      -0.1241
     73  CA       -47.5380   -7.2680   -3.6650 C.3    37  HIS37       0.1621
     74  C        -47.1410   -6.8300   -5.0360 C.2    37  HIS37       0.2264
     75  O        -46.0510   -6.2850   -5.2420 O.2    37  HIS37      -0.2867
     76  CB       -47.7410   -6.1050   -2.7050 C.3    37  HIS37       0.0745
     77  CG       -48.5550   -6.4940   -1.5130 C.ar   37  HIS37       0.0817
     78  ND1      -47.9790   -7.1170   -0.4160 N.ar   37  HIS37      -0.2268
     79  CD2      -49.8770   -6.3470   -1.2770 C.ar   37  HIS37       0.1154
     80  CE1      -48.9680   -7.3420    0.4350 C.ar   37  HIS37       0.1986
     81  NE2      -50.1220   -6.8770   -0.0300 N.ar   37  HIS37      -0.2212
     82  N        -47.7840    1.3840   -6.8100 N.3    41  GLU41      -0.1245
     83  CA       -48.5600    2.1160   -5.8310 C.3    41  GLU41       0.1567
     84  C        -47.7890    3.2930   -5.2850 C.2    41  GLU41       0.2260
     85  O        -46.5540    3.2530   -5.1680 O.2    41  GLU41      -0.2867
     86  CB       -48.9290    1.2110   -4.6510 C.3    41  GLU41       0.0388
     87  CG       -49.7520   -0.0260   -4.9520 C.3    41  GLU41       0.1160
     88  CD       -49.7260   -1.0200   -3.8000 C.2    41  GLU41       0.3649
     89  OE1      -48.6270   -1.5300   -3.4600 O.co2  41  GLU41      -0.2457
     90  OE2      -50.8160   -1.3050   -3.2460 O.co2  41  GLU41      -0.2457
     91  N        -47.8610    5.8420   -1.7730 N.3    43  PHE43      -0.1241
     92  CA       -48.3380    5.9300   -0.4010 C.3    43  PHE43       0.1605
     93  C        -47.8140    7.1250    0.3260 C.2    43  PHE43       0.2264
     94  O        -46.7390    7.6210    0.0100 O.2    43  PHE43      -0.2867
     95  CB       -47.8330    4.7300    0.4020 C.3    43  PHE43       0.0534
     96  CG       -48.3280    3.3810   -0.0250 C.ar   43  PHE43      -0.0203
     97  CD1      -49.4900    2.8450    0.5250 C.ar   43  PHE43      -0.0042
     98  CD2      -47.5950    2.6100   -0.9310 C.ar   43  PHE43      -0.0042
     99  CE1      -49.9470    1.5850    0.1390 C.ar   43  PHE43      -0.0003
    100  CE2      -48.0390    1.3460   -1.3070 C.ar   43  PHE43      -0.0003
    101  CZ       -49.2160    0.8430   -0.7700 C.ar   43  PHE43      -0.0000
    102  N        -43.6890    3.0320   -5.1710 N.3    56  LYS56      -0.1245
    103  CA       -43.1300    1.7060   -5.3740 C.3    56  LYS56       0.1561
    104  C        -43.8210    0.9140   -6.4510 C.2    56  LYS56       0.2260
    105  O        -45.0640    0.9270   -6.5560 O.2    56  LYS56      -0.2867
    106  CB       -43.0840    0.8960   -4.0570 C.3    56  LYS56       0.0271
    107  CG       -44.3780    0.1380   -3.7030 C.3    56  LYS56       0.0035
    108  CD       -44.2160   -0.7380   -2.4680 C.3    56  LYS56       0.0206
    109  CE       -43.7520   -2.1650   -2.7280 C.3    56  LYS56       0.1093
    110  NZ       -44.8750   -3.0330   -3.1590 N.3    56  LYS56      -0.1314
    111  N        -40.5600   -2.5870    3.3700 N.3    84  PHE84      -0.1241
    112  CA       -41.8860   -2.5890    2.7680 C.3    84  PHE84       0.1605
    113  C        -41.8260   -2.8130    1.2740 C.2    84  PHE84       0.2264
    114  O        -42.6720   -3.5330    0.7500 O.2    84  PHE84      -0.2867
    115  CB       -42.6100   -1.2850    3.1330 C.3    84  PHE84       0.0534
    116  CG       -44.0020   -1.1260    2.5780 C.ar   84  PHE84      -0.0203
    117  CD1      -45.0880   -1.7150    3.2110 C.ar   84  PHE84      -0.0042
    118  CD2      -44.2170   -0.4340    1.3790 C.ar   84  PHE84      -0.0042
    119  CE1      -46.3690   -1.5900    2.6700 C.ar   84  PHE84      -0.0003
    120  CE2      -45.4990   -0.3130    0.8400 C.ar   84  PHE84      -0.0003
    121  CZ       -46.5670   -0.8860    1.4860 C.ar   84  PHE84      -0.0000
    122  N        -40.0210   -4.6950   -0.4780 N.3    86  GLN86      -0.1245
    123  CA       -39.7900   -6.1130   -0.7740 C.3    86  GLN86       0.1566
    124  C        -38.6620   -6.2900   -1.7970 C.2    86  GLN86       0.2260
    125  O        -38.5610   -7.3540   -2.3990 O.2    86  GLN86      -0.2867
    126  CB       -41.0660   -6.8340   -1.2140 C.3    86  GLN86       0.0367
    127  CG       -42.1900   -6.7970   -0.1820 C.3    86  GLN86       0.0905
    128  CD       -43.4430   -7.5110   -0.6400 C.2    86  GLN86       0.2608
    129  OE1      -43.9120   -7.3540   -1.7670 O.2    86  GLN86      -0.2717
    130  NE2      -44.0240   -8.2880    0.2270 N.am   86  GLN86      -0.0878
    131  N        -44.5460  -12.6300   11.1450 N.3   109  ASN109     -0.1240
    132  CA       -44.6050  -12.9940    9.7480 C.3   109  ASN109      0.1653
    133  C        -43.2930  -12.5960    9.1110 C.2   109  ASN109      0.2266
    134  O        -42.5720  -11.7830    9.6500 O.2   109  ASN109     -0.2867
    135  CB       -45.8070  -12.3360    9.0650 C.3   109  ASN109      0.1155
    136  CG       -45.5420  -10.9100    8.6280 C.2   109  ASN109      0.2627
    137  OD1      -44.6470  -10.2460    9.1280 O.2   109  ASN109     -0.2716
    138  ND2      -46.3220  -10.4410    7.6840 N.am  109  ASN109     -0.0877
    139  N        -42.3060  -10.5320    6.8570 N.3   111  MET111     -0.1230
    140  CA       -42.0520   -9.1250    6.6520 C.3   111  MET111      0.1702
    141  C        -41.6940   -8.4730    7.9580 C.2   111  MET111      0.2592
    142  O        -40.9010   -7.5600    8.0080 O.2   111  MET111     -0.2718
    143  CB       -43.2740   -8.4400    6.0670 C.3   111  MET111      0.0401
    144  CG       -43.5900   -8.8540    4.6590 C.3   111  MET111      0.0596
    145  SD       -42.2180   -8.5730    3.5650 S.3   111  MET111     -0.1393
    146  CE       -42.0230   -6.8290    3.7670 C.3   111  MET111      0.0692
    147  N        -42.2980   -8.9540    9.0240 N.am  112  HIS112     -0.1976
    148  CA       -42.0620   -8.3930   10.3300 C.3   112  HIS112      0.1656
    149  C        -40.7590   -8.8920   10.8920 C.2   112  HIS112      0.2291
    150  O        -40.1760   -8.2720   11.7440 O.2   112  HIS112     -0.2864
    151  CB       -43.1960   -8.7600   11.2580 C.3   112  HIS112      0.0771
    152  CG       -44.2710   -7.7260   11.3330 C.ar  112  HIS112      0.0820
    153  ND1      -45.4920   -7.8780   10.7200 N.ar  112  HIS112     -0.2267
    154  CD2      -44.3110   -6.5280   11.9570 C.ar  112  HIS112      0.1154
    155  CE1      -46.2390   -6.8200   10.9630 C.ar  112  HIS112      0.1986
    156  NE2      -45.5450   -5.9850   11.7120 N.ar  112  HIS112     -0.2212
@<TRIPOS>BOND
     1    82    83    1
     2   105   104    2
     3   104   103    1
     4    47    46    1
     5    47    48    1
     6    47    50    1
     7    83    84    1
     8    83    86    1
     9    48    49    2
    10   103   102    1
    11   103   106    1
    12    84    85    2
    13    75    74    2
    14    50    51    1
    15    74    73    1
    16    87    86    1
    17    87    88    1
    18    55    54    2
    19    52    53    1
    20    54    53    1
    21   106   107    1
    22    88    89   ar
    23    88    90   ar
    24   107   108    1
    25    73    72    1
    26    73    76    1
    27    53    56    1
    28   110   109    1
    29    42    41    1
    30    42    43    2
    31    41    40    1
    32    45    43    1
    33    43    44    1
    34   109   108    1
    35    76    77    1
    36    40    39    1
    37   125   124    2
    38    56    57    1
    39   124   123    1
    40    91    92    1
    41   129   128    2
    42    77    79   ar
    43    77    78   ar
    44   100    98   ar
    45   100   101   ar
    46    37    38    2
    47    37    36    1
    48    79    81   ar
    49   126   123    1
    50   126   127    1
    51    57    58    1
    52    39    36    1
    53    98    96   ar
    54   123   122    1
    55   101    99   ar
    56    63    64    2
    57    63    62    1
    58   128   127    1
    59   128   130   am
    60    36    35    1
    61    78    80   ar
    62    92    93    1
    63    92    95    1
    64    81    80   ar
    65    62    65    1
    66    62    61    1
    67    96    95    1
    68    96    97   ar
    69    94    93    2
    70    99    97   ar
    71    58    59    1
    72    71    69    1
    73    59    60    1
    74    65    66    1
    75   114   113    2
    76   120   118   ar
    77   120   121   ar
    78     1     2    1
    79    68    69    2
    80    68    67    1
    81    69    70    1
    82   113   112    1
    83   118   116   ar
    84   121   119   ar
    85    66    67    1
    86     2     5    1
    87     2     3    1
    88     5     6    1
    89     4     3    2
    90   116   115    1
    91   116   117   ar
    92   119   117   ar
    93   112   115    1
    94   112   111    1
    95    16    17   ar
    96    16    14   ar
    97    17    15   ar
    98   145   146    1
    99   145   144    1
   100    14    12   ar
   101   144   143    1
   102    15    13   ar
   103    12    13   ar
   104    12    11    1
   105   143   140    1
   106     7     8    1
   107   140   139    1
   108   140   141    1
   109    11     8    1
   110    33    31   ar
   111    33    34   ar
   112    31    29   ar
   113     8     9    1
   114    34    32   ar
   115   138   136   am
   116    10     9    2
   117   141   142    2
   118   141   147   am
   119    29    28    1
   120    29    30   ar
   121     9    18   am
   122    28    25    1
   123    32    30   ar
   124   136   135    1
   125   136   137    2
   126   147   148    1
   127   135   132    1
   128    18    19    1
   129   133   134    2
   130   133   132    1
   131    25    24    1
   132    25    26    1
   133    21    20    2
   134    27    26    2
   135    24    20   am
   136   132   131    1
   137    20    19    1
   138    19    22    1
   139   148   149    1
   140   148   151    1
   141   153   155   ar
   142   153   152   ar
   143   149   150    2
   144   155   156   ar
   145    22    23    1
   146   151   152    1
   147   152   154   ar
   148   156   154   ar
