@<TRIPOS>MOLECULE
tmp/4ncoE02.pdb
 146 140 0 0 0
SMALL
GASTEIGER

@<TRIPOS>ATOM
      1  N         99.1590    2.5310  336.8270 N.3    16  LYS16      -0.1245
      2  CA        98.8370    3.2210  338.0680 C.3    16  LYS16       0.1561
      3  C        100.0780    3.6170  338.8690 C.2    16  LYS16       0.2260
      4  O        100.0000    4.4170  339.8030 O.2    16  LYS16      -0.2867
      5  CB        97.9370    2.3360  338.9270 C.3    16  LYS16       0.0271
      6  CG        96.7070    1.7990  338.2020 C.3    16  LYS16       0.0035
      7  CD        95.4500    2.0980  339.0000 C.3    16  LYS16       0.0206
      8  CE        95.5580    1.4910  340.3890 C.3    16  LYS16       0.1093
      9  NZ        94.3620    1.7360  341.2350 N.3    16  LYS16      -0.1314
     10  N        108.4510    6.8180  344.0430 N.3    20  THR20      -0.1203
     11  CA       108.7090    6.2280  345.3570 C.3    20  THR20       0.1994
     12  C        109.5340    4.9610  345.1960 C.2    20  THR20       0.2617
     13  O        110.7640    5.0270  345.1570 O.2    20  THR20      -0.2717
     14  CB       107.4040    5.9120  346.1410 C.3    20  THR20       0.1784
     15  OG1      106.7030    4.8350  345.5090 O.3    20  THR20      -0.2211
     16  CG2      106.4980    7.1370  346.2040 C.3    20  THR20       0.0376
     17  N        108.8520    3.8200  345.1470 N.am   21  GLU21      -0.1979
     18  CA       109.4700    2.5120  344.9350 C.3    21  GLU21       0.1602
     19  C        110.5010    2.6030  343.8100 C.2    21  GLU21       0.2287
     20  O        110.2200    3.1860  342.7650 O.2    21  GLU21      -0.2864
     21  CB       108.4080    1.4520  344.6230 C.3    21  GLU21       0.0415
     22  CG       108.9250    0.2420  343.8640 C.3    21  GLU21       0.1163
     23  CD       108.1160   -1.0080  344.1560 C.2    21  GLU21       0.3649
     24  OE1      106.9320   -1.0730  343.7660 O.co2  21  GLU21      -0.2457
     25  OE2      108.6690   -1.9200  344.8030 O.co2  21  GLU21      -0.2457
     26  N        109.4500    1.3290  340.5180 N.3    24  ASN24      -0.1240
     27  CA       108.4470    2.2350  339.9760 C.3    24  ASN24       0.1653
     28  C        109.1250    3.4840  339.4350 C.2    24  ASN24       0.2266
     29  O        108.7830    3.9630  338.3580 O.2    24  ASN24      -0.2867
     30  CB       107.3980    2.6050  341.0290 C.3    24  ASN24       0.1155
     31  CG       106.5360    1.4280  341.4400 C.2    24  ASN24       0.2627
     32  OD1      106.5220    0.3940  340.7760 O.2    24  ASN24      -0.2716
     33  ND2      105.8090    1.5830  342.5400 N.am   24  ASN24      -0.0877
     34  N        111.1630    1.4780  347.4800 N.3   146  SER146     -0.1202
     35  CA       110.7740    0.0900  347.7130 C.3   146  SER146      0.2020
     36  C        111.3910   -0.7350  346.5890 C.2   146  SER146      0.2619
     37  O        112.1300   -0.1970  345.7630 O.2   146  SER146     -0.2717
     38  CB       109.2510   -0.0690  347.7370 C.3   146  SER146      0.2103
     39  OG       108.8810   -1.4350  347.8420 O.3   146  SER146     -0.2182
     40  N        111.1000   -2.0310  346.5500 N.am  147  PHE147     -0.1961
     41  CA       111.7140   -2.8870  345.5440 C.3   147  PHE147      0.1771
     42  C        110.8470   -4.0920  345.1640 C.2   147  PHE147      0.2619
     43  O        110.9410   -5.1610  345.7650 O.2   147  PHE147     -0.2715
     44  CB       113.0720   -3.3710  346.0710 C.3   147  PHE147      0.0574
     45  CG       114.0030   -3.8760  345.0070 C.ar  147  PHE147     -0.0200
     46  CD1      114.0070   -5.2140  344.6510 C.ar  147  PHE147     -0.0042
     47  CD2      114.9040   -3.0210  344.3940 C.ar  147  PHE147     -0.0042
     48  CE1      114.8770   -5.6880  343.6910 C.ar  147  PHE147     -0.0003
     49  CE2      115.7770   -3.4880  343.4310 C.ar  147  PHE147     -0.0003
     50  CZ       115.7630   -4.8250  343.0800 C.ar  147  PHE147     -0.0000
     51  N        110.0220   -3.8900  344.1450 N.am  148  GLU148     -0.1964
     52  CA       109.1890   -4.9330  343.5680 C.3   148  GLU148      0.1718
     53  C        109.3070   -4.8380  342.0550 C.2   148  GLU148      0.2458
     54  O        108.9890   -3.7960  341.4930 O.2   148  GLU148     -0.2730
     55  CB       107.7280   -4.7780  344.0060 C.3   148  GLU148      0.0428
     56  CG       106.8000   -5.8630  343.5120 C.3   148  GLU148      0.1163
     57  CD       105.8980   -5.3710  342.3970 C.2   148  GLU148      0.3649
     58  OE1      105.6790   -4.1450  342.3020 O.co2 148  GLU148     -0.2457
     59  OE2      105.4010   -6.2110  341.6250 O.co2 148  GLU148     -0.2457
     60  N        109.6990   -5.9350  341.3910 N.am  149  PRO149     -0.2727
     61  CA       109.8750   -5.9360  339.9350 C.3   149  PRO149      0.1402
     62  C        108.6470   -5.3960  339.1980 C.2   149  PRO149      0.2269
     63  O        107.5140   -5.7230  339.5440 O.2   149  PRO149     -0.2865
     64  CB       110.0970   -7.4100  339.6150 C.3   149  PRO149      0.0296
     65  CG       110.6950   -7.9710  340.8560 C.3   149  PRO149      0.0237
     66  CD       110.0350   -7.2370  341.9900 C.3   149  PRO149      0.0939
     67  N        108.8680   -8.8240  333.5860 N.3   189  LYS189     -0.1245
     68  CA       109.1600   -8.4760  334.9710 C.3   189  LYS189      0.1561
     69  C        110.5820   -8.9100  335.3700 C.2   189  LYS189      0.2260
     70  O        110.9630  -10.0660  335.1780 O.2   189  LYS189     -0.2867
     71  CB       108.1090   -9.1110  335.8880 C.3   189  LYS189      0.0271
     72  CG       106.7420   -8.4320  335.8100 C.3   189  LYS189      0.0035
     73  CD       105.7080   -9.1020  336.7090 C.3   189  LYS189      0.0206
     74  CE       104.4370   -8.2800  336.8460 C.3   189  LYS189      0.1093
     75  NZ       103.4930   -8.8510  337.8440 N.3   189  LYS189     -0.1314
     76  N        112.6710  -10.1370  337.7480 N.3   191  VAL191     -0.1245
     77  CA       112.7610  -10.9280  338.9750 C.3   191  VAL191      0.1561
     78  C        114.1810  -11.4410  339.1870 C.2   191  VAL191      0.2260
     79  O        114.6770  -12.2580  338.4120 O.2   191  VAL191     -0.2867
     80  CB       111.7910  -12.1190  338.9730 C.3   191  VAL191      0.0252
     81  CG1      112.0070  -12.9720  340.2160 C.3   191  VAL191      0.0019
     82  CG2      110.3650  -11.6340  338.9100 C.3   191  VAL191      0.0019
     83  N        107.5400  -15.4250  340.0500 N.3   199  ASN199     -0.1240
     84  CA       106.7220  -14.8320  338.9980 C.3   199  ASN199      0.1653
     85  C        107.0370  -15.4760  337.6500 C.2   199  ASN199      0.2266
     86  O        106.7570  -16.6490  337.4330 O.2   199  ASN199     -0.2867
     87  CB       106.9260  -13.3220  338.9250 C.3   199  ASN199      0.1155
     88  CG       106.6400  -12.6390  340.2310 C.2   199  ASN199      0.2627
     89  OD1      107.5130  -12.5390  341.0950 O.2   199  ASN199     -0.2716
     90  ND2      105.4350  -12.1130  340.3660 N.am  199  ASN199     -0.0877
     91  N        112.3610  -10.3900  348.7940 N.3   314  CYS314     -0.1221
     92  CA       110.9510  -10.2370  349.1490 C.3   314  CYS314      0.1808
     93  C        110.5710   -8.7670  349.2670 C.2   314  CYS314      0.2601
     94  O        109.6380   -8.4250  349.9840 O.2   314  CYS314     -0.2717
     95  CB       110.6350  -10.9660  350.4560 C.3   314  CYS314      0.0970
     96  SG       110.1340  -12.6970  350.2790 S.3   314  CYS314     -0.0800
     97  N        111.2850   -7.8990  348.5580 N.am  315  GLY315     -0.1957
     98  CA       111.0090   -6.4740  348.6190 C.3   315  GLY315      0.1869
     99  C        112.2150   -5.6140  348.9810 C.2   315  GLY315      0.2309
    100  O        112.0770   -4.5180  349.5210 O.2   315  GLY315     -0.2863
    101  N        105.8230   -9.9530  357.1900 N.3   370  ILE370     -0.1231
    102  CA       105.7000   -9.6830  355.7650 C.3   370  ILE370      0.1692
    103  C        105.7900  -10.9640  354.9550 C.2   370  ILE370      0.2592
    104  O        106.8660  -11.5470  354.8180 O.2   370  ILE370     -0.2718
    105  CB       106.7950   -8.7140  355.2830 C.3   370  ILE370      0.0266
    106  CG1      106.7400   -7.4120  356.0830 C.3   370  ILE370      0.0019
    107  CG2      106.6280   -8.4220  353.7990 C.3   370  ILE370      0.0020
    108  CD1      107.8040   -6.4090  355.6960 C.3   370  ILE370      0.0001
    109  N        104.6630  -11.4020  354.4110 N.am  371  ARG371     -0.1966
    110  CA       104.6450  -12.6490  353.6750 C.3   371  ARG371      0.1729
    111  C        104.4810  -12.3820  352.1830 C.2   371  ARG371      0.2616
    112  O        103.6520  -11.5870  351.7420 O.2   371  ARG371     -0.2715
    113  CB       103.5110  -13.5510  354.1770 C.3   371  ARG371      0.0348
    114  CG       102.1220  -12.9540  353.9750 C.3   371  ARG371      0.0492
    115  CD       101.0070  -13.8630  354.4620 C.3   371  ARG371      0.2205
    116  NE       100.9950  -14.0060  355.9140 N.pl3 371  ARG371     -0.0865
    117  CZ       100.0760  -14.6920  356.5850 C.cat 371  ARG371      0.5346
    118  NH1       99.0880  -15.2920  355.9330 N.pl3 371  ARG371      0.1354
    119  NH2      100.1380  -14.7740  357.9060 N.pl3 371  ARG371      0.1354
    120  N        105.3440  -13.0500  351.4270 N.am  372  CYS372     -0.1954
    121  CA       105.3890  -12.9850  349.9750 C.3   372  CYS372      0.1843
    122  C        105.0120  -14.3270  349.3710 C.2   372  CYS372      0.2625
    123  O        105.7400  -15.3080  349.5180 O.2   372  CYS372     -0.2714
    124  CB       106.7670  -12.5320  349.4800 C.3   372  CYS372      0.0997
    125  SG       108.1630  -13.1630  350.4440 S.3   372  CYS372     -0.0797
    126  N        103.8740  -14.3720  348.6890 N.am  373  VAL373     -0.1963
    127  CA       103.4720  -15.5930  348.0120 C.3   373  VAL373      0.1727
    128  C        103.9690  -15.5370  346.5780 C.2   373  VAL373      0.2617
    129  O        103.7930  -14.5440  345.8770 O.2   373  VAL373     -0.2715
    130  CB       101.9420  -15.7640  348.0330 C.3   373  VAL373      0.0290
    131  CG1      101.5400  -17.0890  347.4060 C.3   373  VAL373      0.0023
    132  CG2      101.4140  -15.6510  349.4560 C.3   373  VAL373      0.0023
    133  N        104.6180  -16.6210  346.1690 N.am  374  SER374     -0.1936
    134  CA       105.2440  -16.7210  344.8600 C.3   374  SER374      0.2055
    135  C        104.8950  -18.0210  344.1330 C.2   374  SER374      0.2643
    136  O        104.6060  -19.0600  344.7530 O.2   374  SER374     -0.2714
    137  CB       106.7620  -16.5920  344.9940 C.3   374  SER374      0.2130
    138  OG       107.1160  -15.4150  345.6990 O.3   374  SER374     -0.2179
    139  N        104.9620  -17.9390  342.8080 N.am  375  ASN375     -0.1971
    140  CA       104.7610  -19.0670  341.9110 C.3   375  ASN375      0.1688
    141  C        106.0900  -19.6200  341.4040 C.2   375  ASN375      0.2292
    142  O        106.8100  -18.9130  340.6940 O.2   375  ASN375     -0.2864
    143  CB       103.9080  -18.6500  340.7040 C.3   375  ASN375      0.1181
    144  CG       102.4140  -18.7440  340.9450 C.2   375  ASN375      0.2629
    145  OD1      101.9450  -18.9500  342.0660 O.2   375  ASN375     -0.2716
    146  ND2      101.6540  -18.5630  339.8650 N.am  375  ASN375     -0.0877
@<TRIPOS>BOND
     1    67    68    1
     2    68    69    1
     3    68    71    1
     4    70    69    2
     5    72    71    1
     6    72    73    1
     7    73    74    1
     8     1     2    1
     9    74    75    1
    10    86    85    2
    11    85    84    1
    12    76    77    1
    13     2     3    1
    14     2     5    1
    15     6     5    1
    16     6     7    1
    17    29    28    2
    18    79    78    2
    19     3     4    2
    20    82    80    1
    21    87    84    1
    22    87    88    1
    23    80    77    1
    24    80    81    1
    25    77    78    1
    26    84    83    1
    27     7     8    1
    28    62    63    2
    29    62    61    1
    30    28    27    1
    31    64    61    1
    32    64    65    1
    33   146   144   am
    34    61    60    1
    35    27    26    1
    36    27    30    1
    37    88    90   am
    38    88    89    2
    39     8     9    1
    40   142   141    2
    41   143   144    1
    42   143   140    1
    43    32    31    2
    44    65    66    1
    45   144   145    2
    46    30    31    1
    47    60    66    1
    48    60    53   am
    49   141   140    1
    50    31    33   am
    51    54    53    2
    52    59    57   ar
    53   140   139    1
    54    53    52    1
    55    58    57   ar
    56    57    56    1
    57    20    19    2
    58   139   135   am
    59    50    49   ar
    60    50    48   ar
    61    49    47   ar
    62    56    55    1
    63    52    55    1
    64    52    51    1
    65    48    46   ar
    66    24    23   ar
    67    19    18    1
    68    22    23    1
    69    22    21    1
    70    10    11    1
    71   135   136    2
    72   135   134    1
    73    51    42   am
    74    23    25   ar
    75    47    45   ar
    76    21    18    1
    77    46    45   ar
    78   134   137    1
    79   134   133    1
    80    18    17    1
    81   137   138    1
    82    45    44    1
    83    17    12   am
    84    13    12    2
    85    42    41    1
    86    42    43    2
    87    12    11    1
    88    11    14    1
    89    15    14    1
    90    41    44    1
    91    41    40    1
    92    37    36    2
    93   129   128    2
    94    14    16    1
    95   133   128   am
    96    40    36   am
    97   128   127    1
    98    36    35    1
    99   131   130    1
   100    34    35    1
   101    35    38    1
   102    38    39    1
   103   127   130    1
   104   127   126    1
   105   130   132    1
   106    97    98    1
   107    97    93   am
   108    98    99    1
   109   126   122   am
   110    91    92    1
   111    99   100    2
   112    92    93    1
   113    92    95    1
   114    93    94    2
   115   122   123    2
   116   122   121    1
   117   124   121    1
   118   124   125    1
   119   121   120    1
   120    96   125    1
   121    96    95    1
   122   120   111   am
   123   112   111    2
   124   111   110    1
   125   110   113    1
   126   110   109    1
   127   107   105    1
   128   114   113    1
   129   114   115    1
   130   109   103   am
   131   115   116    1
   132   104   103    2
   133   103   102    1
   134   105   102    1
   135   105   106    1
   136   108   106    1
   137   102   101    1
   138   116   117    2
   139   118   117    1
   140   117   119    1
