@<TRIPOS>MOLECULE
tmp/4ncoE00.pdb
 84 78 0 0 0
SMALL
GASTEIGER

@<TRIPOS>ATOM
      1  N        129.3540   -2.3440  368.9260 N.3    87  GLN87      -0.1245
      2  CA       129.3330   -2.8970  370.2740 C.3    87  GLN87       0.1566
      3  C        128.0380   -3.6660  370.4540 C.2    87  GLN87       0.2260
      4  O        127.0430   -3.1420  370.9240 O.2    87  GLN87      -0.2867
      5  CB       129.4660   -1.7950  371.3280 C.3    87  GLN87       0.0367
      6  CG       130.8220   -1.0980  371.3170 C.3    87  GLN87       0.0905
      7  CD       131.2830   -0.6820  372.7030 C.2    87  GLN87       0.2608
      8  OE1      132.4410   -0.3090  372.8980 O.2    87  GLN87      -0.2717
      9  NE2      130.3800   -0.7520  373.6740 N.am   87  GLN87      -0.0878
     10  N        125.6040   -7.1410  371.5450 N.3    89  THR89      -0.1218
     11  CA       125.3590   -8.1260  372.5840 C.3    89  THR89       0.1862
     12  C        124.3000   -9.0850  372.0740 C.2    89  THR89       0.2287
     13  O        123.7920   -8.9240  370.9630 O.2    89  THR89      -0.2866
     14  CB       124.8620   -7.4740  373.8940 C.3    89  THR89       0.1770
     15  OG1      123.6560   -6.7430  373.6380 O.3    89  THR89      -0.2211
     16  CG2      125.9050   -6.5290  374.4740 C.3    89  THR89       0.0375
     17  N        120.6150  -11.4860  372.8880 N.3    91  VAL91      -0.1245
     18  CA       119.3830  -11.5960  373.6580 C.3    91  VAL91       0.1561
     19  C        119.2390  -12.9630  374.3300 C.2    91  VAL91       0.2260
     20  O        118.1810  -13.2770  374.8730 O.2    91  VAL91      -0.2867
     21  CB       118.1470  -11.3470  372.7720 C.3    91  VAL91       0.0252
     22  CG1      116.8490  -11.4690  373.5630 C.3    91  VAL91       0.0019
     23  CG2      118.2310   -9.9280  372.2040 C.3    91  VAL91       0.0019
     24  N        121.2130   -7.0350  368.2920 N.3   105  ASN105     -0.1225
     25  CA       120.8590   -5.6710  368.6370 C.3   105  ASN105      0.1785
     26  C        122.0510   -5.0590  369.3490 C.2   105  ASN105      0.2597
     27  O        122.5220   -5.5740  370.3640 O.2   105  ASN105     -0.2718
     28  CB       119.6140   -5.6700  369.5330 C.3   105  ASN105      0.1169
     29  CG       119.6240   -4.5650  370.5780 C.2   105  ASN105      0.2627
     30  OD1      119.8880   -3.3990  370.2790 O.2   105  ASN105     -0.2716
     31  ND2      119.3170   -4.9370  371.8200 N.am  105  ASN105     -0.0877
     32  N        122.5360   -3.9540  368.7980 N.am  106  CYS106     -0.1956
     33  CA       123.8200   -3.4110  369.2080 C.3   106  CYS106      0.1843
     34  C        123.7670   -1.9450  369.5960 C.2   106  CYS106      0.2626
     35  O        122.8250   -1.2170  369.2780 O.2   106  CYS106     -0.2714
     36  CB       124.8340   -3.5660  368.0700 C.3   106  CYS106      0.0997
     37  SG       125.1240   -5.2640  367.5100 S.3   106  CYS106     -0.0797
     38  N        124.8190   -1.5400  370.2900 N.am  107  SER107     -0.1950
     39  CA       125.0170   -0.1940  370.7770 C.3   107  SER107      0.1924
     40  C        126.1300    0.4170  369.9320 C.2   107  SER107      0.2314
     41  O        127.0890   -0.2960  369.5300 O.2   107  SER107     -0.2863
     42  CB       125.3610   -0.1720  372.2670 C.3   107  SER107      0.2116
     43  OG       124.2510   -0.5680  373.0540 O.3   107  SER107     -0.2180
     44  N        124.2440    7.6180  372.0970 N.3   120  LYS120     -0.1245
     45  CA       124.1660    6.1640  372.1370 C.3   120  LYS120      0.1561
     46  C        123.1310    5.7150  371.1210 C.2   120  LYS120      0.2260
     47  O        121.9740    6.1290  371.2060 O.2   120  LYS120     -0.2867
     48  CB       123.7820    5.6890  373.5370 C.3   120  LYS120      0.0271
     49  CG       124.3990    4.3530  373.9160 C.3   120  LYS120      0.0035
     50  CD       124.0260    3.9440  375.3300 C.3   120  LYS120      0.0206
     51  CE       124.8200    2.7250  375.7710 C.3   120  LYS120      0.1093
     52  NZ       124.3850    2.2300  377.1050 N.3   120  LYS120     -0.1314
     53  N        121.1810    2.5110  368.7460 N.3   122  TYR122     -0.1241
     54  CA       120.8860    1.1600  368.2810 C.3   122  TYR122      0.1605
     55  C        121.4160    0.8960  366.8770 C.2   122  TYR122      0.2264
     56  O        121.3570    1.7670  366.0080 O.2   122  TYR122     -0.2867
     57  CB       119.3830    0.8750  368.3260 C.3   122  TYR122      0.0534
     58  CG       118.8070    0.6840  369.7080 C.ar  122  TYR122     -0.0201
     59  CD1      119.6200    0.3830  370.7920 C.ar  122  TYR122     -0.0009
     60  CD2      117.4410    0.7920  369.9220 C.ar  122  TYR122     -0.0009
     61  CE1      119.0840    0.2050  372.0540 C.ar  122  TYR122      0.0417
     62  CE2      116.8980    0.6160  371.1720 C.ar  122  TYR122      0.0417
     63  CZ       117.7210    0.3230  372.2330 C.ar  122  TYR122      0.1957
     64  OH       117.1640    0.1480  373.4740 O.3   122  TYR122     -0.2866
     65  N        115.5870   -2.3100  365.0370 N.3   256  GLY256     -0.1210
     66  CA       115.7670   -3.2150  366.1550 C.3   256  GLY256      0.1956
     67  C        114.9920   -2.8700  367.4060 C.2   256  GLY256      0.2612
     68  O        115.4430   -3.1480  368.5140 O.2   256  GLY256     -0.2717
     69  N        113.8310   -2.2510  367.2380 N.am  257  ASP257     -0.1959
     70  CA       112.9580   -1.9980  368.3730 C.3   257  ASP257      0.1840
     71  C        111.9780   -3.1510  368.5350 C.2   257  ASP257      0.2621
     72  O        111.9260   -4.0470  367.6900 O.2   257  ASP257     -0.2715
     73  CB       112.2020   -0.6850  368.1800 C.3   257  ASP257      0.1450
     74  CG       113.0480    0.5300  368.2340 C.2   257  ASP257      0.3671
     75  OD1      114.1850    0.4850  368.7960 O.co2 257  ASP257     -0.2456
     76  OD2      112.5650    1.6190  367.7760 O.co2 257  ASP257     -0.2456
     77  N        111.2130   -3.1260  369.6220 N.am  258  ILE258     -0.1977
     78  CA       110.2310   -4.1700  369.9190 C.3   258  ILE258      0.1596
     79  C        110.7790   -5.6010  369.9380 C.2   258  ILE258      0.2287
     80  O        111.9210   -5.8350  370.3410 O.2   258  ILE258     -0.2864
     81  CB       109.0230   -4.0970  368.9600 C.3   258  ILE258      0.0276
     82  CG1      108.5910   -2.7030  368.6050 C.3   258  ILE258      0.0022
     83  CG2      107.8920   -4.9370  369.5070 C.3   258  ILE258      0.0022
     84  CD1      108.1100   -1.9090  369.7620 C.3   258  ILE258      0.0001
@<TRIPOS>BOND
     1    65    66    1
     2    56    55    2
     3    66    67    1
     4    55    54    1
     5    69    67   am
     6    69    70    1
     7    67    68    2
     8    37    36    1
     9    72    71    2
    10    76    74   ar
    11    36    33    1
    12    73    74    1
    13    73    70    1
    14    74    75   ar
    15    54    57    1
    16    54    53    1
    17    24    25    1
    18    57    58    1
    19    70    71    1
    20    71    77   am
    21    82    81    1
    22    82    84    1
    23    25    26    1
    24    25    28    1
    25    32    33    1
    26    32    26   am
    27     1     2    1
    28    81    83    1
    29    81    78    1
    30    33    34    1
    31    35    34    2
    32    26    27    2
    33    41    40    2
    34    28    29    1
    35    34    38   am
    36    77    78    1
    37    58    60   ar
    38    58    59   ar
    39    78    79    1
    40    60    62   ar
    41    40    39    1
    42    79    80    2
    43     2     3    1
    44     2     5    1
    45    30    29    2
    46    38    39    1
    47     3     4    2
    48    29    31   am
    49    39    42    1
    50    59    61   ar
    51    13    12    2
    52    46    47    2
    53    46    45    1
    54    62    63   ar
    55     6     5    1
    56     6     7    1
    57    10    11    1
    58    61    63   ar
    59    12    11    1
    60    44    45    1
    61    45    48    1
    62    23    21    1
    63    63    64    1
    64    42    43    1
    65    11    14    1
    66     7     8    2
    67     7     9   am
    68    21    22    1
    69    21    18    1
    70    17    18    1
    71    48    49    1
    72    15    14    1
    73    18    19    1
    74    14    16    1
    75    49    50    1
    76    19    20    2
    77    50    51    1
    78    51    52    1
