@<TRIPOS>MOLECULE
tmp/4ncrB00.pdb
 183 177 0 0 0
SMALL
GASTEIGER

@<TRIPOS>ATOM
      1  N         45.4560  -28.5450   44.6120 N.3     9  TRP9       -0.1241
      2  CA        45.8050  -29.4230   43.4990 C.3     9  TRP9        0.1605
      3  C         46.7480  -30.5690   43.8330 C.2     9  TRP9        0.2264
      4  O         46.7520  -31.6140   43.1410 O.2     9  TRP9       -0.2867
      5  CB        46.4040  -28.5930   42.3730 C.3     9  TRP9        0.0550
      6  CG        46.2490  -29.2540   41.0360 C.ar    9  TRP9        0.0003
      7  CD1       47.2650  -29.7970   40.2320 C.ar    9  TRP9        0.0946
      8  CD2       44.9920  -29.4660   40.2950 C.ar    9  TRP9        0.0152
      9  NE1       46.7440  -30.2850   39.0620 N.ar    9  TRP9       -0.2442
     10  CE2       45.3700  -30.1230   39.0330 C.ar    9  TRP9        0.0810
     11  CE3       43.6510  -29.1670   40.5320 C.ar    9  TRP9        0.0012
     12  CZ2       44.4160  -30.4950   38.0690 C.ar    9  TRP9        0.0191
     13  CZ3       42.6910  -29.5390   39.5470 C.ar    9  TRP9        0.0001
     14  CH2       43.0610  -30.2050   38.3490 C.ar    9  TRP9        0.0015
     15  N         48.1190  -25.3180   44.6530 N.3    53  TYR53      -0.1241
     16  CA        48.5820  -26.5900   45.1900 C.3    53  TYR53       0.1605
     17  C         48.3740  -26.6610   46.7050 C.2    53  TYR53       0.2264
     18  O         48.1170  -27.7430   47.2360 O.2    53  TYR53      -0.2867
     19  CB        50.0590  -26.8440   44.8720 C.3    53  TYR53       0.0534
     20  CG        50.3040  -27.2030   43.4170 C.ar   53  TYR53      -0.0201
     21  CD1       50.4060  -26.1910   42.4380 C.ar   53  TYR53      -0.0009
     22  CD2       50.4220  -28.5530   43.0080 C.ar   53  TYR53      -0.0009
     23  CE1       50.6430  -26.4970   41.0940 C.ar   53  TYR53       0.0417
     24  CE2       50.6660  -28.8680   41.6650 C.ar   53  TYR53       0.0417
     25  CZ        50.7700  -27.8270   40.7120 C.ar   53  TYR53       0.1957
     26  OH        50.9980  -28.0710   39.3790 O.3    53  TYR53      -0.2866
     27  N         49.3470  -15.1860   31.4830 N.3   108  LEU108     -0.1231
     28  CA        48.8170  -16.5280   31.4970 C.3   108  LEU108      0.1678
     29  C         49.7150  -17.5020   32.2500 C.2   108  LEU108      0.2434
     30  O         50.8920  -17.5750   31.9930 O.2   108  LEU108     -0.2733
     31  CB        48.6810  -17.0680   30.0620 C.3   108  LEU108      0.0284
     32  CG        47.5710  -16.3880   29.2710 C.3   108  LEU108      0.0019
     33  CD1       47.7700  -16.7820   27.8110 C.3   108  LEU108      0.0001
     34  CD2       46.2450  -16.8740   29.8300 C.3   108  LEU108      0.0001
     35  N         49.1250  -18.2980   33.1470 N.am  109  PRO109     -0.2718
     36  CA        49.9200  -19.2940   33.8650 C.3   109  PRO109      0.1535
     37  C         49.9380  -20.6090   33.0560 C.2   109  PRO109      0.2599
     38  O         49.3020  -20.7100   31.9980 O.2   109  PRO109     -0.2715
     39  CB        49.0980  -19.4840   35.1500 C.3   109  PRO109      0.0310
     40  CG        47.6480  -19.3400   34.6580 C.3   109  PRO109      0.0237
     41  CD        47.6750  -18.3890   33.4750 C.3   109  PRO109      0.0939
     42  N         50.6130  -21.6270   33.5620 N.am  110  GLY110     -0.1955
     43  CA        50.7930  -22.7940   32.7330 C.3   110  GLY110      0.1869
     44  C         49.5620  -23.6990   32.6580 C.2   110  GLY110      0.2309
     45  O         49.6850  -24.7790   32.0950 O.2   110  GLY110     -0.2863
     46  N         51.8320  -15.1650   37.7280 N.3   125  HIS125     -0.1226
     47  CA        52.8760  -14.7820   36.7740 C.3   125  HIS125      0.1752
     48  C         52.9660  -15.7540   35.6020 C.2   125  HIS125      0.2597
     49  O         52.4790  -16.9180   35.6450 O.2   125  HIS125     -0.2718
     50  CB        54.2480  -14.6430   37.5110 C.3   125  HIS125      0.0759
     51  CG        54.6670  -15.9090   38.1900 C.ar  125  HIS125      0.0818
     52  ND1       54.3270  -16.2280   39.4880 N.ar  125  HIS125     -0.2268
     53  CD2       55.2810  -17.0440   37.6360 C.ar  125  HIS125      0.1154
     54  CE1       54.7740  -17.5260   39.7390 C.ar  125  HIS125      0.1986
     55  NE2       55.3230  -18.0080   38.6010 N.ar  125  HIS125     -0.2212
     56  N         53.6370  -15.2980   34.5520 N.am  126  GLY126     -0.1942
     57  CA        53.7980  -16.0740   33.3470 C.3   126  GLY126      0.2014
     58  C         55.1830  -15.9130   32.7590 C.2   126  GLY126      0.2638
     59  O         56.0890  -15.3380   33.3640 O.2   126  GLY126     -0.2714
     60  N         55.3460  -16.4390   31.5360 N.am  127  LYS127     -0.1977
     61  CA        56.6370  -16.5230   30.9040 C.3   127  LYS127      0.1596
     62  C         56.9750  -15.0960   30.4760 C.2   127  LYS127      0.2287
     63  O         58.0510  -14.8830   30.0730 O.2   127  LYS127     -0.2864
     64  CB        56.5480  -17.3510   29.6500 C.3   127  LYS127      0.0298
     65  CG        56.3160  -18.8370   30.0220 C.3   127  LYS127      0.0038
     66  CD        56.1270  -19.6010   28.7330 C.3   127  LYS127      0.0206
     67  CE        55.9280  -21.0870   29.0620 C.3   127  LYS127      0.1093
     68  NZ        55.6640  -21.6300   27.6730 N.3   127  LYS127     -0.1314
     69  N         61.3460  -18.5750   28.7080 N.3   221  SER221     -0.1217
     70  CA        61.4470  -19.5250   29.8210 C.3   221  SER221      0.1889
     71  C         62.2940  -20.7110   29.3410 C.2   221  SER221      0.2288
     72  O         62.5700  -20.8110   28.1520 O.2   221  SER221     -0.2866
     73  CB        60.1120  -20.0440   30.2910 C.3   221  SER221      0.2089
     74  OG        59.3660  -20.7630   29.2780 O.3   221  SER221     -0.2183
     75  N         63.3340  -25.1160   29.9310 N.3   223  TRP223     -0.1241
     76  CA        63.4340  -26.3640   30.6730 C.3   223  TRP223      0.1605
     77  C         64.8340  -26.5060   31.1670 C.2   223  TRP223      0.2264
     78  O         65.8120  -26.2590   30.4330 O.2   223  TRP223     -0.2867
     79  CB        63.1960  -27.5820   29.7870 C.3   223  TRP223      0.0550
     80  CG        61.8530  -27.6500   29.1510 C.ar  223  TRP223      0.0003
     81  CD1       61.5240  -27.4620   27.7900 C.ar  223  TRP223      0.0946
     82  CD2       60.6000  -27.9340   29.8230 C.ar  223  TRP223      0.0152
     83  NE1       60.1770  -27.5980   27.6010 N.ar  223  TRP223     -0.2442
     84  CE2       59.5550  -27.8800   28.7830 C.ar  223  TRP223      0.0810
     85  CE3       60.2350  -28.1860   31.1470 C.ar  223  TRP223      0.0012
     86  CZ2       58.2240  -28.0970   29.0800 C.ar  223  TRP223      0.0191
     87  CZ3       58.8740  -28.4190   31.4330 C.ar  223  TRP223      0.0001
     88  CH2       57.9040  -28.3650   30.4190 C.ar  223  TRP223      0.0015
     89  N         55.5480  -30.2880   44.2730 N.3   286  GLN286     -0.1245
     90  CA        55.8430  -29.1270   43.4730 C.3   286  GLN286      0.1566
     91  C         56.4930  -28.0880   44.3890 C.2   286  GLN286      0.2260
     92  O         55.9800  -27.7640   45.4770 O.2   286  GLN286     -0.2867
     93  CB        54.5550  -28.5670   42.8560 C.3   286  GLN286      0.0367
     94  CG        54.3960  -28.7680   41.3510 C.3   286  GLN286      0.0905
     95  CD        55.4380  -27.9950   40.4740 C.2   286  GLN286      0.2608
     96  OE1       56.0080  -26.9410   40.8660 O.2   286  GLN286     -0.2717
     97  NE2       55.6760  -28.5200   39.2620 N.am  286  GLN286     -0.0878
     98  N         58.6820  -24.2750   44.3540 N.3   288  GLN288     -0.1245
     99  CA        59.0320  -23.1380   43.4960 C.3   288  GLN288      0.1566
    100  C         59.6410  -22.0470   44.3670 C.2   288  GLN288      0.2260
    101  O         59.1570  -21.8210   45.4710 O.2   288  GLN288     -0.2867
    102  CB        57.7860  -22.6130   42.7810 C.3   288  GLN288      0.0367
    103  CG        58.1120  -21.2510   42.0770 C.3   288  GLN288      0.0905
    104  CD        56.9890  -20.7610   41.1610 C.2   288  GLN288      0.2608
    105  OE1       55.8880  -21.2910   41.1790 O.2   288  GLN288     -0.2717
    106  NE2       57.3240  -19.8140   40.2300 N.am  288  GLN288     -0.0878
    107  N         61.1280  -32.4930   35.4300 N.3   315  LEU315     -0.1245
    108  CA        60.4520  -31.3660   34.8250 C.3   315  LEU315      0.1561
    109  C         60.7080  -30.1100   35.6360 C.2   315  LEU315      0.2260
    110  O         60.1650  -29.9920   36.7420 O.2   315  LEU315     -0.2867
    111  CB        58.9830  -31.6510   34.7860 C.3   315  LEU315      0.0270
    112  CG        58.5890  -32.6210   33.6780 C.3   315  LEU315      0.0019
    113  CD1       57.1170  -32.3200   33.4180 C.3   315  LEU315      0.0001
    114  CD2       59.4310  -32.4920   32.3930 C.3   315  LEU315      0.0001
    115  N         61.3660  -25.7620   35.4290 N.3   317  VAL317     -0.1231
    116  CA        61.0850  -24.6140   34.5250 C.3   317  VAL317      0.1692
    117  C         61.8000  -23.4740   35.2130 C.2   317  VAL317      0.2592
    118  O         61.6330  -23.2840   36.4550 O.2   317  VAL317     -0.2718
    119  CB        59.5470  -24.3060   34.4180 C.3   317  VAL317      0.0266
    120  CG1       59.2930  -23.0150   33.5790 C.3   317  VAL317      0.0020
    121  CG2       58.7540  -25.5090   33.9130 C.3   317  VAL317      0.0020
    122  N         62.5740  -22.7150   34.4360 N.am  318  PHE318     -0.1962
    123  CA        63.3820  -21.6510   34.9220 C.3   318  PHE318      0.1771
    124  C         63.0490  -20.3910   34.1930 C.2   318  PHE318      0.2619
    125  O         62.7710  -20.4110   33.0050 O.2   318  PHE318     -0.2715
    126  CB        64.8210  -22.0670   34.6430 C.3   318  PHE318      0.0574
    127  CG        65.8470  -20.9700   34.7110 C.ar  318  PHE318     -0.0200
    128  CD1       66.1750  -20.2020   33.5590 C.ar  318  PHE318     -0.0042
    129  CD2       66.5830  -20.7470   35.9060 C.ar  318  PHE318     -0.0042
    130  CE1       67.1410  -19.2010   33.6240 C.ar  318  PHE318     -0.0003
    131  CE2       67.6000  -19.7910   35.9440 C.ar  318  PHE318     -0.0003
    132  CZ        67.8840  -19.0230   34.7910 C.ar  318  PHE318     -0.0000
    133  N         63.1630  -19.3030   34.8850 N.am  319  LYS319     -0.1977
    134  CA        63.0830  -17.9760   34.1770 C.3   319  LYS319      0.1596
    135  C         63.6880  -16.8960   35.0170 C.2   319  LYS319      0.2287
    136  O         63.8240  -17.1010   36.2460 O.2   319  LYS319     -0.2864
    137  CB        61.7040  -17.6810   33.5760 C.3   319  LYS319      0.0298
    138  CG        60.7150  -16.8790   34.3540 C.3   319  LYS319      0.0038
    139  CD        59.6520  -16.3150   33.4750 C.3   319  LYS319      0.0206
    140  CE        59.9270  -14.8060   33.1260 C.3   319  LYS319      0.1093
    141  NZ        60.7240  -14.6630   31.8050 N.3   319  LYS319     -0.1314
    142  N         62.8240  -13.3900   36.4010 N.3   321  PHE321     -0.1241
    143  CA        61.6440  -12.5060   36.6010 C.3   321  PHE321      0.1605
    144  C         62.1510  -11.0640   36.4460 C.2   321  PHE321      0.2264
    145  O         63.3320  -10.8400   36.6460 O.2   321  PHE321     -0.2867
    146  CB        61.1780  -12.5910   38.0690 C.3   321  PHE321      0.0534
    147  CG        60.2360  -13.7620   38.3610 C.ar  321  PHE321     -0.0203
    148  CD1       59.4850  -14.3570   37.3180 C.ar  321  PHE321     -0.0042
    149  CD2       60.0380  -14.2200   39.6850 C.ar  321  PHE321     -0.0042
    150  CE1       58.5910  -15.3990   37.5810 C.ar  321  PHE321     -0.0003
    151  CE2       59.1830  -15.2720   39.9290 C.ar  321  PHE321     -0.0003
    152  CZ        58.4150  -15.8400   38.9160 C.ar  321  PHE321     -0.0000
    153  N         64.0110  -17.7260   39.0360 N.3   337  ASN337     -0.1240
    154  CA        62.8490  -18.3910   39.5190 C.3   337  ASN337      0.1653
    155  C         62.9480  -19.8520   39.0090 C.2   337  ASN337      0.2266
    156  O         63.2230  -20.0830   37.8180 O.2   337  ASN337     -0.2867
    157  CB        61.5980  -17.8340   38.8650 C.3   337  ASN337      0.1155
    158  CG        60.3620  -18.6630   39.2160 C.2   337  ASN337      0.2627
    159  OD1       59.8720  -18.6300   40.3120 O.2   337  ASN337     -0.2716
    160  ND2       59.8670  -19.4210   38.2560 N.am  337  ASN337     -0.0877
    161  N         60.8720  -23.8060   39.0960 N.3   339  CYS339     -0.1235
    162  CA        59.7950  -24.7250   39.5140 C.3   339  CYS339      0.1677
    163  C         60.3970  -26.1030   39.3750 C.2   339  CYS339      0.2270
    164  O         60.8520  -26.4650   38.2940 O.2   339  CYS339     -0.2867
    165  CB        58.5520  -24.5960   38.6220 C.3   339  CYS339      0.0956
    166  SG        58.0180  -22.8400   38.6130 S.3   339  CYS339     -0.0801
    167  N         59.9380  -30.4520   40.6220 N.3   341  ASP341     -0.1239
    168  CA        58.8340  -31.3280   40.9650 C.3   341  ASP341      0.1674
    169  C         59.4080  -32.6470   41.4820 C.2   341  ASP341      0.2266
    170  O         59.8910  -33.4660   40.6930 O.2   341  ASP341     -0.2867
    171  CB        58.0060  -31.5310   39.7200 C.3   341  ASP341      0.1410
    172  CG        56.5440  -31.7070   40.0200 C.2   341  ASP341      0.3668
    173  OD1       55.7260  -31.1330   39.2750 O.co2 341  ASP341     -0.2456
    174  OD2       56.1980  -32.4150   40.9910 O.co2 341  ASP341     -0.2456
    175  N         51.9080  -22.7060   45.6290 N.3   370  LYS370     -0.1245
    176  CA        52.6390  -23.9690   45.5150 C.3   370  LYS370      0.1561
    177  C         53.0030  -24.5130   46.9410 C.2   370  LYS370      0.2260
    178  O         53.7730  -25.4850   47.0730 O.2   370  LYS370     -0.2867
    179  CB        53.8710  -23.7960   44.5730 C.3   370  LYS370      0.0271
    180  CG        53.4480  -23.5520   43.1000 C.3   370  LYS370      0.0035
    181  CD        54.4390  -24.0980   42.0680 C.3   370  LYS370      0.0206
    182  CE        53.7940  -24.5820   40.7610 C.3   370  LYS370      0.1093
    183  NZ        53.6840  -23.6750   39.5550 N.3   370  LYS370     -0.1314
@<TRIPOS>BOND
     1    83    81   ar
     2    83    84   ar
     3    68    67    1
     4    81    80   ar
     5    33    32    1
     6    72    71    2
     7    69    70    1
     8    66    67    1
     9    66    65    1
    10    84    86   ar
    11    84    82   ar
    12    86    88   ar
    13    80    79    1
    14    80    82   ar
    15    32    34    1
    16    32    31    1
    17    74    73    1
    18    71    70    1
    19    64    65    1
    20    64    61    1
    21    79    76    1
    22    70    73    1
    23    82    85   ar
    24    75    76    1
    25    31    28    1
    26    63    62    2
    27    88    87   ar
    28    78    77    2
    29    62    61    1
    30    76    77    1
    31    61    60    1
    32    85    87   ar
    33    27    28    1
    34    28    29    1
    35    60    58   am
    36   141   140    1
    37    30    29    2
    38    38    37    2
    39    45    44    2
    40    29    35   am
    41   114   112    1
    42    44    43    1
    43    43    42    1
    44    58    57    1
    45    58    59    2
    46   125   124    2
    47    37    42   am
    48    37    36    1
    49   140   139    1
    50    35    41    1
    51    35    36    1
    52    57    56    1
    53   113   112    1
    54    41    40    1
    55   139   138    1
    56   128   130   ar
    57   128   127   ar
    58   137   134    1
    59   137   138    1
    60   120   119    1
    61   130   132   ar
    62   112   111    1
    63    36    39    1
    64   121   119    1
    65   134   133    1
    66   134   135    1
    67   124   133   am
    68   124   123    1
    69   119   116    1
    70   122   123    1
    71   122   117   am
    72   116   117    1
    73   116   115    1
    74    56    48   am
    75   126   127    1
    76   126   123    1
    77    40    39    1
    78   127   129   ar
    79   111   108    1
    80   132   131   ar
    81   108   107    1
    82   108   109    1
    83   135   136    2
    84   117   118    2
    85    48    49    2
    86    48    47    1
    87   109   110    2
    88   129   131   ar
    89   142   143    1
    90   144   143    1
    91   144   145    2
    92   143   146    1
    93    47    50    1
    94    47    46    1
    95   148   150   ar
    96   148   147   ar
    97    50    51    1
    98   150   152   ar
    99    53    51   ar
   100    53    55   ar
   101   156   155    2
   102   146   147    1
   103    12    14   ar
   104    12    10   ar
   105    51    52   ar
   106   160   158   am
   107   164   163    2
   108    14    13   ar
   109   147   149   ar
   110    55    54   ar
   111   166   165    1
   112   165   162    1
   113   157   158    1
   114   157   154    1
   115   152   151   ar
   116   155   154    1
   117    10     9   ar
   118    10     8   ar
   119   153   154    1
   120     9     7   ar
   121   161   162    1
   122   158   159    2
   123    97    95   am
   124   173   172   ar
   125   163   162    1
   126    26    25    1
   127    52    54   ar
   128    13    11   ar
   129   183   182    1
   130   149   151   ar
   131   171   172    1
   132   171   168    1
   133   172   174   ar
   134   106   104   am
   135     7     6   ar
   136     8    11   ar
   137     8     6   ar
   138    95    96    2
   139    95    94    1
   140   167   168    1
   141   170   169    2
   142    25    23   ar
   143    25    24   ar
   144   182   181    1
   145   168   169    1
   146     6     5    1
   147    23    21   ar
   148   104   105    2
   149   104   103    1
   150    94    93    1
   151    24    22   ar
   152   181   180    1
   153   103   102    1
   154     5     2    1
   155    21    20   ar
   156   102    99    1
   157    93    90    1
   158    22    20   ar
   159   180   179    1
   160     4     3    2
   161    20    19    1
   162    90    89    1
   163    90    91    1
   164    99    98    1
   165    99   100    1
   166     2     3    1
   167     2     1    1
   168   100   101    2
   169    91    92    2
   170   179   176    1
   171    15    16    1
   172    19    16    1
   173    16    17    1
   174   176   175    1
   175   176   177    1
   176    17    18    2
   177   177   178    2
