@<TRIPOS>MOLECULE
tmp/4nctC00.pdb
 192 183 0 0 0
SMALL
GASTEIGER

@<TRIPOS>ATOM
      1  N         -3.1220    0.6850  -22.3270 N.3    32  ILE32      -0.1231
      2  CA        -3.6610    1.4440  -23.4730 C.3    32  ILE32       0.1692
      3  C         -2.8320    1.3270  -24.7590 C.2    32  ILE32       0.2593
      4  O         -3.2410    1.8490  -25.8010 O.2    32  ILE32      -0.2718
      5  CB        -3.8530    2.9480  -23.1410 C.3    32  ILE32       0.0266
      6  CG1       -2.5080    3.6410  -22.8560 C.3    32  ILE32       0.0019
      7  CG2       -4.8010    3.1130  -21.9630 C.3    32  ILE32       0.0020
      8  CD1       -2.6000    5.1550  -22.7980 C.3    32  ILE32       0.0001
      9  N         -1.6870    0.6430  -24.6950 N.am   33  GLY33      -0.1942
     10  CA        -0.8460    0.4470  -25.8710 C.3    33  GLY33       0.2014
     11  C          0.1920   -0.6460  -25.7060 C.2    33  GLY33       0.2638
     12  O          0.6380   -0.9370  -24.5990 O.2    33  GLY33      -0.2714
     13  N          0.5840   -1.2350  -26.8330 N.am   34  LYS34      -0.1977
     14  CA         1.4310   -2.4100  -26.8600 C.3    34  LYS34       0.1596
     15  C          2.3700   -2.3390  -28.0580 C.2    34  LYS34       0.2287
     16  O          2.0050   -1.8490  -29.1220 O.2    34  LYS34      -0.2864
     17  CB         0.5570   -3.6570  -26.9590 C.3    34  LYS34       0.0298
     18  CG         1.1840   -4.9140  -26.3760 C.3    34  LYS34       0.0038
     19  CD         0.1460   -6.0060  -26.1380 C.3    34  LYS34       0.0206
     20  CE         0.6260   -7.0150  -25.0980 C.3    34  LYS34       0.1093
     21  NZ         1.8070   -7.8020  -25.5580 N.3    34  LYS34      -0.1314
     22  N          8.7210   -2.7750  -28.0760 N.3    37  PHE37      -0.1241
     23  CA         9.4110   -1.9690  -27.0500 C.3    37  PHE37       0.1605
     24  C          8.9720   -2.3160  -25.6300 C.2    37  PHE37       0.2264
     25  O          9.7570   -2.2080  -24.6890 O.2    37  PHE37      -0.2867
     26  CB         9.1810   -0.4700  -27.2750 C.3    37  PHE37       0.0534
     27  CG         7.7630   -0.0250  -27.0350 C.ar   37  PHE37      -0.0203
     28  CD1        7.2910    0.2040  -25.7390 C.ar   37  PHE37      -0.0042
     29  CD2        6.8970    0.1930  -28.1040 C.ar   37  PHE37      -0.0042
     30  CE1        5.9790    0.6070  -25.5210 C.ar   37  PHE37      -0.0003
     31  CE2        5.5900    0.6100  -27.8870 C.ar   37  PHE37      -0.0003
     32  CZ         5.1280    0.8090  -26.5940 C.ar   37  PHE37      -0.0000
     33  N          2.4580    0.5420  -22.8970 N.3    40  VAL40      -0.1245
     34  CA         2.0350    1.8350  -22.3720 C.3    40  VAL40       0.1561
     35  C          0.7930    1.6140  -21.5280 C.2    40  VAL40       0.2260
     36  O         -0.1030    0.8640  -21.9110 O.2    40  VAL40      -0.2867
     37  CB         1.7290    2.8540  -23.4790 C.3    40  VAL40       0.0252
     38  CG1        1.2150    4.1570  -22.8720 C.3    40  VAL40       0.0019
     39  CG2        2.9730    3.1300  -24.3010 C.3    40  VAL40       0.0019
     40  N          0.6250    9.0840  -19.2720 N.3    53  ALA53      -0.1245
     41  CA         0.8200    7.8480  -20.0150 C.3    53  ALA53       0.1562
     42  C          2.2170    7.3400  -19.7210 C.2    53  ALA53       0.2260
     43  O          3.1950    8.0240  -20.0120 O.2    53  ALA53      -0.2867
     44  CB         0.6350    8.0880  -21.5030 C.3    53  ALA53       0.0290
     45  N          5.1630    4.7260  -20.4190 N.3    55  LYS55      -0.1245
     46  CA         5.7140    3.7500  -21.3520 C.3    55  LYS55       0.1561
     47  C          6.6750    2.8390  -20.5910 C.2    55  LYS55       0.2260
     48  O          7.7490    3.2780  -20.1980 O.2    55  LYS55      -0.2867
     49  CB         6.4420    4.4790  -22.4750 C.3    55  LYS55       0.0271
     50  CG         6.9330    3.6020  -23.6160 C.3    55  LYS55       0.0035
     51  CD         7.8270    4.4030  -24.5580 C.3    55  LYS55       0.0206
     52  CE         8.1260    3.6330  -25.8330 C.3    55  LYS55       0.1093
     53  NZ         8.7960    4.4540  -26.8830 N.3    55  LYS55      -0.1314
     54  N         15.8860    7.3330  -26.9390 N.3    70  GLU70      -0.1245
     55  CA        14.6440    8.0990  -26.9620 C.3    70  GLU70       0.1567
     56  C         14.6320    9.2220  -25.9030 C.2    70  GLU70       0.2260
     57  O         14.2700   10.3660  -26.2040 O.2    70  GLU70      -0.2867
     58  CB        13.4510    7.1650  -26.7540 C.3    70  GLU70       0.0388
     59  CG        12.0980    7.7990  -27.0570 C.3    70  GLU70       0.1160
     60  CD        10.9210    6.8950  -26.7240 C.2    70  GLU70       0.3649
     61  OE1       11.1300    5.7360  -26.3100 O.co2  70  GLU70      -0.2457
     62  OE2        9.7660    7.3440  -26.8760 O.co2  70  GLU70      -0.2457
     63  N          5.1500   15.7030  -27.9400 N.3    89  VAL89      -0.1245
     64  CA         4.6700   15.1960  -26.6520 C.3    89  VAL89       0.1561
     65  C          5.7820   15.3560  -25.6170 C.2    89  VAL89       0.2260
     66  O          6.9370   15.0090  -25.8630 O.2    89  VAL89      -0.2867
     67  CB         4.2040   13.7250  -26.7180 C.3    89  VAL89       0.0252
     68  CG1        3.8360   13.2190  -25.3320 C.3    89  VAL89       0.0019
     69  CG2        2.9940   13.5870  -27.6380 C.3    89  VAL89       0.0019
     70  N          4.9210   10.3030  -19.8620 N.3   105  PHE105     -0.1227
     71  CA         4.4950   11.3250  -20.8020 C.3   105  PHE105      0.1736
     72  C          3.2520   12.0290  -20.3010 C.2   105  PHE105      0.2595
     73  O          2.5060   11.4740  -19.5020 O.2   105  PHE105     -0.2718
     74  CB         4.1560   10.6940  -22.1440 C.3   105  PHE105      0.0547
     75  CG         5.3260   10.0710  -22.8270 C.ar  105  PHE105     -0.0202
     76  CD1        6.1600   10.8360  -23.6270 C.ar  105  PHE105     -0.0042
     77  CD2        5.5920    8.7130  -22.6800 C.ar  105  PHE105     -0.0042
     78  CE1        7.2480   10.2610  -24.2650 C.ar  105  PHE105     -0.0003
     79  CE2        6.6740    8.1330  -23.3240 C.ar  105  PHE105     -0.0003
     80  CZ         7.5090    8.9140  -24.1150 C.ar  105  PHE105     -0.0000
     81  N          3.0260   13.2480  -20.7750 N.am  106  GLU106     -0.1965
     82  CA         1.7180   13.8880  -20.6230 C.3   106  GLU106      0.1733
     83  C          0.7200   13.0370  -21.3860 C.2   106  GLU106      0.2616
     84  O          1.0480   12.5050  -22.4400 O.2   106  GLU106     -0.2715
     85  CB         1.7130   15.3260  -21.1720 C.3   106  GLU106      0.0429
     86  CG         2.0280   15.4400  -22.6610 C.3   106  GLU106      0.1163
     87  CD         2.0650   16.8640  -23.1680 C.2   106  GLU106      0.3649
     88  OE1        1.4800   17.7610  -22.5170 O.co2 106  GLU106     -0.2457
     89  OE2        2.6720   17.0830  -24.2380 O.co2 106  GLU106     -0.2457
     90  N         -0.4850   12.8850  -20.8490 N.am  107  MET107     -0.1963
     91  CA        -1.5160   12.1220  -21.5430 C.3   107  MET107      0.1736
     92  C         -2.3740   13.0170  -22.4200 C.2   107  MET107      0.2616
     93  O         -2.8320   14.0770  -21.9890 O.2   107  MET107     -0.2715
     94  CB        -2.4100   11.3610  -20.5690 C.3   107  MET107      0.0427
     95  CG        -3.4150   10.4810  -21.2870 C.3   107  MET107      0.0599
     96  SD        -3.9390    9.0660  -20.3240 S.3   107  MET107     -0.1393
     97  CE        -4.9840    8.2540  -21.5300 C.3   107  MET107      0.0692
     98  N         -2.5830   12.5650  -23.6520 N.am  108  LEU108     -0.1963
     99  CA        -3.4180   13.2630  -24.6200 C.3   108  LEU108      0.1728
    100  C         -4.5570   12.3300  -25.0240 C.2   108  LEU108      0.2617
    101  O         -4.6230   11.1940  -24.5570 O.2   108  LEU108     -0.2715
    102  CB        -2.5760   13.6970  -25.8190 C.3   108  LEU108      0.0311
    103  CG        -1.2710   14.4140  -25.4320 C.3   108  LEU108      0.0022
    104  CD1       -0.2740   14.3910  -26.5750 C.3   108  LEU108      0.0001
    105  CD2       -1.5260   15.8450  -24.9770 C.3   108  LEU108      0.0001
    106  N         -5.4530   12.8030  -25.8830 N.am  109  SER109     -0.1936
    107  CA        -6.7540   12.1530  -26.0390 C.3   109  SER109      0.2055
    108  C         -6.7940   11.0580  -27.1150 C.2   109  SER109      0.2643
    109  O         -6.8230    9.8700  -26.7860 O.2   109  SER109     -0.2714
    110  CB        -7.8450   13.2060  -26.2750 C.3   109  SER109      0.2130
    111  OG        -9.0910   12.7220  -25.8170 O.3   109  SER109     -0.2179
    112  N         -6.8020   11.4580  -28.3850 N.am  110  TYR110     -0.1959
    113  CA        -6.9690   10.5350  -29.5080 C.3   110  TYR110      0.1771
    114  C         -5.8490   10.7670  -30.5070 C.2   110  TYR110      0.2619
    115  O         -5.3290   11.8820  -30.6120 O.2   110  TYR110     -0.2715
    116  CB        -8.3040   10.7960  -30.2210 C.3   110  TYR110      0.0574
    117  CG        -9.5490   10.3900  -29.4510 C.ar  110  TYR110     -0.0198
    118  CD1       -9.8120    9.0480  -29.1690 C.ar  110  TYR110     -0.0009
    119  CD2      -10.4800   11.3430  -29.0340 C.ar  110  TYR110     -0.0009
    120  CE1      -10.9500    8.6690  -28.4720 C.ar  110  TYR110      0.0417
    121  CE2      -11.6240   10.9740  -28.3390 C.ar  110  TYR110      0.0417
    122  CZ       -11.8560    9.6360  -28.0600 C.ar  110  TYR110      0.1957
    123  OH       -12.9890    9.2620  -27.3670 O.3   110  TYR110     -0.2866
    124  N         -5.4900    9.7280  -31.2570 N.am  111  ASN111     -0.1972
    125  CA        -4.5780    9.9050  -32.3840 C.3   111  ASN111      0.1688
    126  C         -5.3680   10.1940  -33.6570 C.2   111  ASN111      0.2292
    127  O         -6.5800   10.0220  -33.6830 O.2   111  ASN111     -0.2864
    128  CB        -3.6140    8.7140  -32.5450 C.3   111  ASN111      0.1181
    129  CG        -4.3000    7.4430  -32.9970 C.2   111  ASN111      0.2629
    130  OD1       -5.0430    7.4380  -33.9710 O.2   111  ASN111     -0.2716
    131  ND2       -4.0270    6.3480  -32.3050 N.am  111  ASN111     -0.0877
    132  N         -5.5000    8.6500  -36.4170 N.3   113  TYR113     -0.1241
    133  CA        -6.1530    7.4770  -36.9950 C.3   113  TYR113      0.1605
    134  C         -7.5190    7.2730  -36.3460 C.2   113  TYR113      0.2264
    135  O         -8.5000    6.9910  -37.0370 O.2   113  TYR113     -0.2867
    136  CB        -5.3150    6.2040  -36.8660 C.3   113  TYR113      0.0534
    137  CG        -5.9280    5.0460  -37.6230 C.ar  113  TYR113     -0.0201
    138  CD1       -5.6950    4.8820  -38.9840 C.ar  113  TYR113     -0.0009
    139  CD2       -6.7660    4.1370  -36.9910 C.ar  113  TYR113     -0.0009
    140  CE1       -6.2620    3.8330  -39.6920 C.ar  113  TYR113      0.0417
    141  CE2       -7.3420    3.0850  -37.6900 C.ar  113  TYR113      0.0417
    142  CZ        -7.0840    2.9360  -39.0420 C.ar  113  TYR113      0.1957
    143  OH        -7.6500    1.8950  -39.7490 O.3   113  TYR113     -0.2866
    144  N          3.1160    8.9560  -39.0490 N.3   156  LYS156     -0.1245
    145  CA         1.8900    8.3670  -39.5650 C.3   156  LYS156      0.1561
    146  C          0.7350    8.8270  -38.6740 C.2   156  LYS156      0.2260
    147  O          0.9580    9.2310  -37.5300 O.2   156  LYS156     -0.2867
    148  CB         1.9910    6.8410  -39.5960 C.3   156  LYS156      0.0271
    149  CG         2.3330    6.2020  -38.2630 C.3   156  LYS156      0.0035
    150  CD         2.5650    4.7040  -38.4120 C.3   156  LYS156      0.0206
    151  CE         3.0690    4.0900  -37.1130 C.3   156  LYS156      0.1093
    152  NZ         3.3680    2.6370  -37.2350 N.3   156  LYS156     -0.1314
    153  N         -1.4380    7.6320  -36.7560 N.3   158  GLU158     -0.1231
    154  CA        -1.5120    7.0890  -35.3970 C.3   158  GLU158      0.1699
    155  C         -0.3840    7.5480  -34.4540 C.2   158  GLU158      0.2592
    156  O         -0.4770    7.3210  -33.2520 O.2   158  GLU158     -0.2718
    157  CB        -1.6460    5.5560  -35.3940 C.3   158  GLU158      0.0402
    158  CG        -0.6600    4.7960  -36.2680 C.3   158  GLU158      0.1161
    159  CD        -1.2450    4.3900  -37.6160 C.2   158  GLU158      0.3649
    160  OE1       -1.4770    5.2800  -38.4740 O.co2 158  GLU158     -0.2457
    161  OE2       -1.4640    3.1720  -37.8120 O.co2 158  GLU158     -0.2457
    162  N          0.6430    8.2150  -34.9880 N.am  159  ASN159     -0.1974
    163  CA         1.6990    8.8380  -34.1670 C.3   159  ASN159      0.1688
    164  C          1.5680   10.3700  -34.0290 C.2   159  ASN159      0.2292
    165  O          2.5280   11.0580  -33.6540 O.2   159  ASN159     -0.2864
    166  CB         3.0860    8.4780  -34.7180 C.3   159  ASN159      0.1181
    167  CG         3.5140    7.0670  -34.3590 C.2   159  ASN159      0.2629
    168  OD1        3.0630    6.4970  -33.3670 O.2   159  ASN159     -0.2716
    169  ND2        4.3970    6.5000  -35.1620 N.am  159  ASN159     -0.0877
    170  N         -1.0420   12.9670  -32.0480 N.3   161  LEU161     -0.1245
    171  CA        -2.1310   12.9640  -31.0720 C.3   161  LEU161      0.1561
    172  C         -2.7750   14.3270  -30.9110 C.2   161  LEU161      0.2260
    173  O         -2.1410   15.3410  -31.1560 O.2   161  LEU161     -0.2867
    174  CB        -1.6360   12.4500  -29.7130 C.3   161  LEU161      0.0270
    175  CG        -1.7550   10.9310  -29.5140 C.3   161  LEU161      0.0019
    176  CD1       -1.0210   10.1700  -30.6050 C.3   161  LEU161      0.0001
    177  CD2       -1.2470   10.5130  -28.1420 C.3   161  LEU161      0.0001
    178  N          4.2150   12.1340  -31.3520 N.3   172  VAL172     -0.1231
    179  CA         4.5350   11.1670  -30.3030 C.3   172  VAL172      0.1692
    180  C          5.3770   10.0050  -30.8650 C.2   172  VAL172      0.2592
    181  O          5.3930    9.7680  -32.0760 O.2   172  VAL172     -0.2718
    182  CB         3.2270   10.6680  -29.6270 C.3   172  VAL172      0.0266
    183  CG1        2.4770    9.6760  -30.5070 C.3   172  VAL172      0.0020
    184  CG2        3.5080   10.0470  -28.2760 C.3   172  VAL172      0.0020
    185  N          6.0890    9.3120  -29.9780 N.am  173  ASP173     -0.1974
    186  CA         6.9130    8.1360  -30.3170 C.3   173  ASP173      0.1709
    187  C          8.1450    8.4930  -31.1440 C.2   173  ASP173      0.2293
    188  O          8.1670    8.2970  -32.3600 O.2   173  ASP173     -0.2864
    189  CB         6.0930    7.0480  -31.0220 C.3   173  ASP173      0.1436
    190  CG         6.8000    5.6850  -31.0510 C.2   173  ASP173      0.3671
    191  OD1        7.9170    5.5170  -30.5020 O.co2 173  ASP173     -0.2456
    192  OD2        6.2120    4.7520  -31.6230 O.co2 173  ASP173     -0.2456
@<TRIPOS>BOND
     1   143   142    1
     2   140   142   ar
     3   140   138   ar
     4   148   145    1
     5   148   149    1
     6   145   144    1
     7   145   146    1
     8   142   141   ar
     9   138   137   ar
    10   146   147    2
    11   160   159   ar
    12   150   149    1
    13   150   151    1
    14   161   159   ar
    15   141   139   ar
    16   137   139   ar
    17   137   136    1
    18   159   158    1
    19   152   151    1
    20   135   134    2
    21   133   136    1
    22   133   132    1
    23   133   134    1
    24   153   154    1
    25   158   157    1
    26   154   157    1
    27   154   155    1
    28   169   167   am
    29   162   155   am
    30   162   163    1
    31   166   167    1
    32   166   163    1
    33   155   156    2
    34   167   168    2
    35   163   164    1
    36   164   165    2
    37   130   129    2
    38   127   126    2
    39   126   125    1
    40   129   128    1
    41   129   131   am
    42   128   125    1
    43   125   124    1
    44   188   187    2
    45   181   180    2
    46   170   171    1
    47   192   190   ar
    48   178   179    1
    49   124   114   am
    50   173   172    2
    51   187   186    1
    52   171   172    1
    53   171   174    1
    54   190   189    1
    55   190   191   ar
    56   189   186    1
    57   180   179    1
    58   180   185   am
    59   115   114    2
    60   176   175    1
    61   114   113    1
    62   183   182    1
    63   186   185    1
    64   179   182    1
    65   116   113    1
    66   116   117    1
    67   174   175    1
    68   182   184    1
    69   175   177    1
    70   113   112    1
    71   117   118   ar
    72   117   119   ar
    73   118   120   ar
    74    16    15    2
    75   119   121   ar
    76   120   122   ar
    77   112   108   am
    78   121   122   ar
    79    29    31   ar
    80    29    27   ar
    81    22    23    1
    82   122   123    1
    83    15    14    1
    84    63    64    1
    85    31    32   ar
    86    69    67    1
    87    26    23    1
    88    26    27    1
    89   108   109    2
    90   108   107    1
    91    59    58    1
    92    59    60    1
    93    23    24    1
    94    27    28   ar
    95    55    54    1
    96    55    58    1
    97    55    56    1
    98    17    14    1
    99    17    18    1
   100    53    52    1
   101    62    60   ar
   102    14    13    1
   103    13    11   am
   104    60    61   ar
   105    67    64    1
   106    67    68    1
   107    64    65    1
   108    32    30   ar
   109   104   103    1
   110    18    19    1
   111   110   107    1
   112   110   111    1
   113    57    56    2
   114    19    20    1
   115   107   106    1
   116   106   100   am
   117    10    11    1
   118    10     9    1
   119    66    65    2
   120    52    51    1
   121   102   103    1
   122   102    99    1
   123     4     3    2
   124    28    30   ar
   125    11    12    2
   126    24    25    2
   127    21    20    1
   128   103   105    1
   129   100    99    1
   130   100   101    2
   131     3     9   am
   132     3     2    1
   133    99    98    1
   134    51    50    1
   135    39    37    1
   136    78    80   ar
   137    78    76   ar
   138    89    87   ar
   139    80    79   ar
   140    98    92   am
   141    76    75   ar
   142    50    49    1
   143    37    38    1
   144    37    34    1
   145     2     5    1
   146     2     1    1
   147    79    77   ar
   148    87    86    1
   149    87    88   ar
   150     5     6    1
   151     5     7    1
   152    33    34    1
   153     6     8    1
   154    75    77   ar
   155    75    74    1
   156    86    85    1
   157    49    46    1
   158    84    83    2
   159    92    93    2
   160    92    91    1
   161    34    35    1
   162    74    71    1
   163    36    35    2
   164    91    90    1
   165    91    94    1
   166    97    96    1
   167    44    41    1
   168    83    90   am
   169    83    82    1
   170    46    47    1
   171    46    45    1
   172    95    94    1
   173    95    96    1
   174    85    82    1
   175    71    72    1
   176    71    70    1
   177    81    82    1
   178    81    72   am
   179    47    48    2
   180    72    73    2
   181    41    42    1
   182    41    40    1
   183    43    42    2
