@<TRIPOS>MOLECULE
tmp/4nczA00.pdb
 100 95 0 0 0
SMALL
GASTEIGER

@<TRIPOS>ATOM
      1  N         14.5400   43.0370   46.3350 N.3    23  ASN23      -0.1225
      2  CA        14.2160   42.1950   45.1890 C.3    23  ASN23       0.1785
      3  C         15.4470   41.7690   44.3950 C.2    23  ASN23       0.2597
      4  O         15.2920   41.2550   43.2930 O.2    23  ASN23      -0.2718
      5  CB        13.2210   42.9180   44.2390 C.3    23  ASN23       0.1169
      6  CG        12.2850   43.8770   44.9690 C.2    23  ASN23       0.2627
      7  OD1       11.7770   43.5650   46.0500 O.2    23  ASN23      -0.2716
      8  ND2       12.0660   45.0600   44.3870 N.am   23  ASN23      -0.0877
      9  N         16.6600   41.9740   44.9350 N.am   24  ARG24      -0.1966
     10  CA        17.8740   41.6470   44.2060 C.3    24  ARG24       0.1729
     11  C         18.7890   40.6990   44.9770 C.2    24  ARG24       0.2616
     12  O         18.9720   40.8700   46.1620 O.2    24  ARG24      -0.2715
     13  CB        18.6150   42.9370   43.9070 C.3    24  ARG24       0.0348
     14  CG        17.8350   43.8780   43.0010 C.3    24  ARG24       0.0492
     15  CD        18.3940   45.2840   43.0530 C.3    24  ARG24       0.2205
     16  NE        19.6740   45.4330   42.3670 N.pl3  24  ARG24      -0.0865
     17  CZ        19.8170   45.4740   41.0440 C.cat  24  ARG24       0.5346
     18  NH1       18.7530   45.3420   40.2370 N.pl3  24  ARG24       0.1354
     19  NH2       21.0290   45.6250   40.5190 N.pl3  24  ARG24       0.1354
     20  N         19.3550   39.7080   44.3170 N.am   25  ASN25      -0.1958
     21  CA        20.2240   38.7180   44.9660 C.3    25  ASN25       0.1819
     22  C         21.6960   39.0530   44.8390 C.2    25  ASN25       0.2621
     23  O         22.5550   38.1670   44.4260 O.2    25  ASN25      -0.2715
     24  CB        20.0330   37.3570   44.3710 C.3    25  ASN25       0.1195
     25  CG        18.6210   36.8190   44.6080 C.2    25  ASN25       0.2630
     26  OD1       18.0160   37.0870   45.6350 O.2    25  ASN25      -0.2716
     27  ND2       18.1090   36.1170   43.6380 N.am   25  ASN25      -0.0877
     28  N         21.9830   40.2870   45.1710 N.am   26  ILE26      -0.1977
     29  CA        23.3920   40.7960   45.1440 C.3    26  ILE26       0.1596
     30  C         23.4690   41.8100   46.2560 C.2    26  ILE26       0.2287
     31  O         22.4620   42.4340   46.6070 O.2    26  ILE26      -0.2864
     32  CB        23.7790   41.3730   43.7840 C.3    26  ILE26       0.0276
     33  CG1       25.3240   41.5900   43.7100 C.3    26  ILE26       0.0022
     34  CG2       23.0070   42.6340   43.4810 C.3    26  ILE26       0.0022
     35  CD1       25.7420   42.1030   42.3630 C.3    26  ILE26       0.0001
     36  N         23.5150   52.7710   36.1240 N.3    84  GLN84      -0.1245
     37  CA        22.6140   51.6680   36.3270 C.3    84  GLN84       0.1566
     38  C         21.2060   52.2350   36.4740 C.2    84  GLN84       0.2260
     39  O         21.0380   53.3410   36.9710 O.2    84  GLN84      -0.2867
     40  CB        22.9740   50.9130   37.6020 C.3    84  GLN84       0.0367
     41  CG        21.9730   49.8020   37.9230 C.3    84  GLN84       0.0905
     42  CD        22.2870   48.9970   39.1710 C.2    84  GLN84       0.2608
     43  OE1       22.4690   47.7750   39.0940 O.2    84  GLN84      -0.2717
     44  NE2       22.3010   49.6570   40.3340 N.am   84  GLN84      -0.0878
     45  N         27.1640   47.6110   33.3610 N.3   120  HIS120     -0.1226
     46  CA        27.1950   46.2040   33.3640 C.3   120  HIS120      0.1752
     47  C         25.8340   45.5900   33.2000 C.2   120  HIS120      0.2596
     48  O         24.8410   46.0780   33.8010 O.2   120  HIS120     -0.2718
     49  CB        27.7790   45.6710   34.6030 C.3   120  HIS120      0.0759
     50  CG        29.1400   46.2360   34.8850 C.ar  120  HIS120      0.0818
     51  ND1       29.4000   47.0120   35.9830 N.ar  120  HIS120     -0.2268
     52  CD2       30.3090   46.1410   34.2010 C.ar  120  HIS120      0.1154
     53  CE1       30.6900   47.3630   35.9800 C.ar  120  HIS120      0.1986
     54  NE2       31.2560   46.8460   34.9100 N.ar  120  HIS120     -0.2212
     55  N         25.8140   44.5480   32.3910 N.am  121  VAL121     -0.1966
     56  CA        24.6140   43.6960   32.2620 C.3   121  VAL121      0.1727
     57  C         25.0010   42.2190   32.2960 C.2   121  VAL121      0.2616
     58  O         25.9390   41.7740   31.6330 O.2   121  VAL121     -0.2715
     59  CB        23.7470   44.0980   31.0300 C.3   121  VAL121      0.0290
     60  CG1       24.5570   44.2140   29.7570 C.3   121  VAL121      0.0023
     61  CG2       22.6020   43.1540   30.8190 C.3   121  VAL121      0.0023
     62  N         24.2040   41.4260   33.0070 N.am  122  ALA122     -0.1977
     63  CA        24.3860   39.9650   33.0080 C.3   122  ALA122      0.1597
     64  C         24.3700   39.3800   31.6050 C.2   122  ALA122      0.2287
     65  O         23.5160   39.6850   30.7510 O.2   122  ALA122     -0.2864
     66  CB        23.3350   39.2780   33.8870 C.3   122  ALA122      0.0319
     67  N         21.3750   37.5710   30.9430 N.3   125  ASN125     -0.1240
     68  CA        20.2260   38.5020   30.7930 C.3   125  ASN125      0.1653
     69  C         20.1570   39.1240   29.3880 C.2   125  ASN125      0.2266
     70  O         20.3230   40.3390   29.2000 O.2   125  ASN125     -0.2867
     71  CB        20.2010   39.5630   31.8510 C.3   125  ASN125      0.1155
     72  CG        18.8730   40.3450   31.8320 C.2   125  ASN125      0.2627
     73  OD1       18.0310   40.1300   30.9550 O.2   125  ASN125     -0.2716
     74  ND2       18.7200   41.2430   32.7580 N.am  125  ASN125     -0.0877
     75  N         30.9690   38.9390   39.3930 N.3   147  PHE147     -0.1241
     76  CA        30.1890   39.2150   40.5740 C.3   147  PHE147      0.1605
     77  C         29.5710   37.8890   41.1040 C.2   147  PHE147      0.2264
     78  O         29.1730   37.0600   40.3170 O.2   147  PHE147     -0.2867
     79  CB        29.0500   40.1260   40.1550 C.3   147  PHE147      0.0534
     80  CG        29.4540   41.4760   39.7780 C.ar  147  PHE147     -0.0203
     81  CD1       30.1940   42.2950   40.6400 C.ar  147  PHE147     -0.0042
     82  CD2       29.0840   41.9750   38.5690 C.ar  147  PHE147     -0.0042
     83  CE1       30.5000   43.5690   40.2650 C.ar  147  PHE147     -0.0003
     84  CE2       29.4500   43.2400   38.1770 C.ar  147  PHE147     -0.0003
     85  CZ        30.1270   44.0470   39.0180 C.ar  147  PHE147     -0.0000
     86  N         26.6280   36.2410   42.4710 N.3   149  ILE149     -0.1245
     87  CA        25.1890   36.5340   42.4770 C.3   149  ILE149      0.1561
     88  C         24.4080   35.2400   42.6740 C.2   149  ILE149      0.2260
     89  O         24.5900   34.2740   41.9520 O.2   149  ILE149     -0.2867
     90  CB        24.7750   37.1410   41.1160 C.3   149  ILE149      0.0252
     91  CG1       25.4410   38.5310   40.9120 C.3   149  ILE149      0.0019
     92  CG2       23.2930   37.3720   41.0720 C.3   149  ILE149      0.0019
     93  CD1       25.3130   39.0220   39.4780 C.3   149  ILE149      0.0001
     94  N         29.4570   39.1910   33.1900 N.3   156  VAL156     -0.1245
     95  CA        28.7330   40.4020   32.7850 C.3   156  VAL156      0.1561
     96  C         29.3170   41.0440   31.5440 C.2   156  VAL156      0.2260
     97  O         30.5470   40.9910   31.2840 O.2   156  VAL156     -0.2867
     98  CB        28.5930   41.4650   33.9060 C.3   156  VAL156      0.0252
     99  CG1       27.9280   40.8780   35.1460 C.3   156  VAL156      0.0019
    100  CG2       29.9080   42.0310   34.3000 C.3   156  VAL156      0.0019
@<TRIPOS>BOND
     1    70    69    2
     2    69    68    1
     3    60    59    1
     4    65    64    2
     5    68    67    1
     6    68    71    1
     7    61    59    1
     8    73    72    2
     9    59    56    1
    10    97    96    2
    11    96    95    1
    12    64    63    1
    13    58    57    2
    14    72    71    1
    15    72    74   am
    16    56    57    1
    17    56    55    1
    18    57    62   am
    19    55    47   am
    20    95    94    1
    21    95    98    1
    22    62    63    1
    23    63    66    1
    24    47    46    1
    25    47    48    2
    26    45    46    1
    27    46    49    1
    28    98   100    1
    29    98    99    1
    30    52    50   ar
    31    52    54   ar
    32    49    50    1
    33    50    51   ar
    34    54    53   ar
    35    53    51   ar
    36    36    37    1
    37    37    38    1
    38    37    40    1
    39    38    39    2
    40    40    41    1
    41    41    42    1
    42    84    82   ar
    43    84    85   ar
    44    82    80   ar
    45    85    83   ar
    46    43    42    2
    47    42    44   am
    48    75    76    1
    49    93    91    1
    50    80    79    1
    51    80    81   ar
    52    79    76    1
    53    18    17    1
    54    83    81   ar
    55    78    77    2
    56    19    17    1
    57    76    77    1
    58    91    90    1
    59    17    16    2
    60    92    90    1
    61    90    87    1
    62    89    88    2
    63    35    33    1
    64    16    15    1
    65    86    87    1
    66    87    88    1
    67    14    15    1
    68    14    13    1
    69     4     3    2
    70    34    32    1
    71    27    25   am
    72    33    32    1
    73    32    29    1
    74    13    10    1
    75    10     9    1
    76    10    11    1
    77     5     6    1
    78     5     2    1
    79    20    21    1
    80    20    11   am
    81    24    25    1
    82    24    21    1
    83     8     6   am
    84     3     9   am
    85     3     2    1
    86    23    22    2
    87    25    26    2
    88    22    21    1
    89    22    28   am
    90     6     7    2
    91    11    12    2
    92    29    28    1
    93    29    30    1
    94     2     1    1
    95    30    31    2
