@<TRIPOS>MOLECULE
tmp/4ndaA00.pdb
 123 114 0 0 0
SMALL
GASTEIGER

@<TRIPOS>ATOM
      1  N         76.4110   50.5910   -2.8130 N.3    32  HIS32      -0.1241
      2  CA        75.4180   49.6100   -2.3910 C.3    32  HIS32       0.1621
      3  C         76.0430   48.2780   -2.0410 C.2    32  HIS32       0.2264
      4  O         77.1910   47.9950   -2.3980 O.2    32  HIS32      -0.2867
      5  CB        74.2430   49.4770   -3.3850 C.3    32  HIS32       0.0745
      6  CG        74.4710   48.5100   -4.5110 C.ar   32  HIS32       0.0817
      7  ND1       73.5380   48.3160   -5.5080 N.ar   32  HIS32      -0.2268
      8  CD2       75.5000   47.6750   -4.7890 C.ar   32  HIS32       0.1154
      9  CE1       73.9930   47.4190   -6.3660 C.ar   32  HIS32       0.1986
     10  NE2       75.1800   47.0130   -5.9530 N.ar   32  HIS32      -0.2212
     11  N         74.4570   44.1080   -1.6950 N.3    34  GLY34      -0.1210
     12  CA        73.2860   43.2530   -1.7350 C.3    34  GLY34       0.1956
     13  C         73.4710   42.0550   -0.8350 C.2    34  GLY34       0.2612
     14  O         74.5710   41.5220   -0.7080 O.2    34  GLY34      -0.2717
     15  N         72.3880   41.6080   -0.2080 N.am   35  PHE35      -0.1962
     16  CA        72.4340   40.3890    0.6000 C.3    35  PHE35       0.1771
     17  C         71.2550   39.5280    0.2100 C.2    35  PHE35       0.2619
     18  O         70.1200   40.0180    0.1970 O.2    35  PHE35      -0.2715
     19  CB        72.2270   40.6820    2.0990 C.3    35  PHE35       0.0574
     20  CG        73.3030   41.5230    2.7480 C.ar   35  PHE35      -0.0200
     21  CD1       74.5340   40.9710    3.0950 C.ar   35  PHE35      -0.0042
     22  CD2       73.0440   42.8450    3.0820 C.ar   35  PHE35      -0.0042
     23  CE1       75.5090   41.7410    3.7320 C.ar   35  PHE35      -0.0003
     24  CE2       74.0130   43.6300    3.7210 C.ar   35  PHE35      -0.0003
     25  CZ        75.2470   43.0710    4.0440 C.ar   35  PHE35      -0.0000
     26  N         71.5000   38.2540   -0.0670 N.am   36  GLU36      -0.1977
     27  CA        70.4160   37.2850   -0.0240 C.3    36  GLU36       0.1602
     28  C         69.8880   37.3170    1.3950 C.2    36  GLU36       0.2287
     29  O         70.6620   37.1980    2.3520 O.2    36  GLU36      -0.2864
     30  CB        70.9350   35.8840   -0.3240 C.3    36  GLU36       0.0415
     31  CG        71.4800   35.7460   -1.7270 C.3    36  GLU36       0.1163
     32  CD        71.7720   34.3010   -2.0920 C.2    36  GLU36       0.3649
     33  OE1       71.0170   33.4050   -1.6220 O.co2  36  GLU36      -0.2457
     34  OE2       72.7630   34.0540   -2.8310 O.co2  36  GLU36      -0.2457
     35  N         70.5360   46.4630   -0.8790 N.3    65  LEU65      -0.1245
     36  CA        69.7330   45.6400   -1.7700 C.3    65  LEU65       0.1561
     37  C         69.3650   44.3270   -1.0780 C.2    65  LEU65       0.2260
     38  O         70.2240   43.4870   -0.8030 O.2    65  LEU65      -0.2867
     39  CB        70.5050   45.3750   -3.0660 C.3    65  LEU65       0.0270
     40  CG        69.8710   44.4850   -4.1260 C.3    65  LEU65       0.0019
     41  CD1       68.4540   44.9700   -4.3680 C.3    65  LEU65       0.0001
     42  CD2       70.6890   44.5640   -5.4150 C.3    65  LEU65       0.0001
     43  N         68.2390   41.0660   -1.6390 N.3    67  ALA67      -0.1245
     44  CA        68.3860   40.4100   -2.9360 C.3    67  ALA67       0.1562
     45  C         67.4370   39.2380   -3.0600 C.2    67  ALA67       0.2260
     46  O         67.8760   38.0810   -3.1390 O.2    67  ALA67      -0.2867
     47  CB        69.8440   39.9500   -3.1530 C.3    67  ALA67       0.0290
     48  N         67.7650   37.1220   -6.5160 N.3    70  CYS70      -0.1235
     49  CA        68.9830   36.3050   -6.5150 C.3    70  CYS70       0.1677
     50  C         68.8640   35.1420   -5.5330 C.2    70  CYS70       0.2270
     51  O         69.2510   34.0020   -5.8340 O.2    70  CYS70      -0.2867
     52  CB        70.2260   37.1540   -6.1990 C.3    70  CYS70       0.0956
     53  SG        71.0290   37.8320   -7.7060 S.3    70  CYS70      -0.0801
     54  N         64.2730   44.2140  -11.0440 N.3   109  GLN109     -0.1245
     55  CA        65.0340   43.2150  -11.7970 C.3   109  GLN109      0.1566
     56  C         64.1880   42.4020  -12.7790 C.2   109  GLN109      0.2260
     57  O         64.7130   41.5610  -13.5120 O.2   109  GLN109     -0.2867
     58  CB        65.7720   42.2850  -10.8350 C.3   109  GLN109      0.0367
     59  CG        66.9630   42.9590  -10.1750 C.3   109  GLN109      0.0905
     60  CD        67.6160   42.0940   -9.1210 C.2   109  GLN109      0.2608
     61  OE1       66.9480   41.3340   -8.4230 O.2   109  GLN109     -0.2717
     62  NE2       68.9360   42.1970   -9.0110 N.am  109  GLN109     -0.0878
     63  N         79.4060   30.9660   -3.6890 N.3   137  ILE137     -0.1245
     64  CA        78.1040   31.5810   -3.4530 C.3   137  ILE137      0.1561
     65  C         76.9930   30.5780   -3.7000 C.2   137  ILE137      0.2260
     66  O         76.0040   30.5230   -2.9610 O.2   137  ILE137     -0.2867
     67  CB        77.8850   32.7720   -4.4060 C.3   137  ILE137      0.0252
     68  CG1       78.7710   33.9480   -3.9890 C.3   137  ILE137      0.0019
     69  CG2       76.4270   33.2360   -4.3620 C.3   137  ILE137      0.0019
     70  CD1       78.8840   35.0230   -5.0520 C.3   137  ILE137      0.0001
     71  N         72.1660   33.8870  -12.0780 N.3   151  TYR151     -0.1241
     72  CA        72.4530   34.6730  -10.8760 C.3   151  TYR151      0.1605
     73  C         73.6020   35.6850  -11.0520 C.2   151  TYR151      0.2264
     74  O         73.4320   36.8680  -10.7200 O.2   151  TYR151     -0.2867
     75  CB        72.7320   33.7080   -9.7290 C.3   151  TYR151      0.0534
     76  CG        73.0000   34.2950   -8.3630 C.ar  151  TYR151     -0.0201
     77  CD1       74.0900   35.1230   -8.1360 C.ar  151  TYR151     -0.0009
     78  CD2       72.2230   33.9220   -7.2740 C.ar  151  TYR151     -0.0009
     79  CE1       74.3670   35.6210   -6.8450 C.ar  151  TYR151      0.0417
     80  CE2       72.4940   34.3920   -5.9810 C.ar  151  TYR151      0.0417
     81  CZ        73.5590   35.2540   -5.7740 C.ar  151  TYR151      0.1957
     82  OH        73.8240   35.7040   -4.4820 O.3   151  TYR151     -0.2866
     83  N         73.3940   39.9420  -11.0080 N.3   155  GLN155     -0.1245
     84  CA        74.1530   40.8050  -10.0990 C.3   155  GLN155      0.1566
     85  C         75.0300   41.8010  -10.8530 C.2   155  GLN155      0.2260
     86  O         75.1710   42.9560  -10.4440 O.2   155  GLN155     -0.2867
     87  CB        74.9950   39.9560   -9.1350 C.3   155  GLN155      0.0367
     88  CG        75.7940   40.7650   -8.1160 C.3   155  GLN155      0.0905
     89  CD        76.3250   39.8910   -6.9890 C.2   155  GLN155      0.2608
     90  OE1       75.7780   38.8210   -6.7130 O.2   155  GLN155     -0.2717
     91  NE2       77.4020   40.3380   -6.3350 N.am  155  GLN155     -0.0878
     92  N         72.7680   44.6280  -11.9250 N.3   158  SER158     -0.1217
     93  CA        72.2850   45.3730  -10.7720 C.3   158  SER158      0.1889
     94  C         73.1010   46.6380  -10.5350 C.2   158  SER158      0.2288
     95  O         72.5530   47.7320  -10.3590 O.2   158  SER158     -0.2866
     96  CB        72.3280   44.4570   -9.5380 C.3   158  SER158      0.2089
     97  OG        71.9130   45.1320   -8.3770 O.3   158  SER158     -0.2183
     98  N         79.9850   47.0850   -2.6030 N.3   168  VAL168     -0.1245
     99  CA        80.6530   46.4800   -1.4650 C.3   168  VAL168      0.1561
    100  C         80.1660   45.0480   -1.3020 C.2   168  VAL168      0.2260
    101  O         78.9970   44.7470   -1.5120 O.2   168  VAL168     -0.2867
    102  CB        80.3400   47.2610   -0.1740 C.3   168  VAL168      0.0252
    103  CG1       81.0480   46.6190    1.0410 C.3   168  VAL168      0.0019
    104  CG2       80.7490   48.7080   -0.3420 C.3   168  VAL168      0.0019
    105  N         82.3770   37.5950   -3.4020 N.3   173  GLN173     -0.1245
    106  CA        81.7460   38.2780   -4.5300 C.3   173  GLN173      0.1566
    107  C         82.7340   38.7490   -5.5840 C.2   173  GLN173      0.2260
    108  O         82.3350   39.3370   -6.5950 O.2   173  GLN173     -0.2867
    109  CB        80.9940   39.5180   -4.0410 C.3   173  GLN173      0.0367
    110  CG        80.1170   39.2840   -2.8100 C.3   173  GLN173      0.0905
    111  CD        78.9670   38.3430   -3.1020 C.2   173  GLN173      0.2608
    112  OE1       78.3420   38.4220   -4.1650 O.2   173  GLN173     -0.2717
    113  NE2       78.6850   37.4380   -2.1670 N.am  173  GLN173     -0.0878
    114  N         82.1650   40.5500   -9.3380 N.3   177  HIS177     -0.1241
    115  CA        82.5690   41.9390   -9.5200 C.3   177  HIS177      0.1621
    116  C         83.5840   42.1670  -10.6420 C.2   177  HIS177      0.2264
    117  O         83.5110   43.1790  -11.3430 O.2   177  HIS177     -0.2867
    118  CB        83.1050   42.5070   -8.2000 C.3   177  HIS177      0.0745
    119  CG        82.0280   42.7610   -7.1920 C.ar  177  HIS177      0.0817
    120  ND1       82.2990   43.0240   -5.8700 N.ar  177  HIS177     -0.2268
    121  CD2       80.6820   42.8150   -7.3230 C.ar  177  HIS177      0.1154
    122  CE1       81.1600   43.2080   -5.2180 C.ar  177  HIS177      0.1986
    123  NE2       80.1650   43.0910   -6.0790 N.ar  177  HIS177     -0.2212
@<TRIPOS>BOND
     1    57    56    2
     2    56    55    1
     3    71    72    1
     4    92    93    1
     5    55    54    1
     6    55    58    1
     7   117   116    2
     8    73    72    1
     9    73    74    2
    10    83    84    1
    11    72    75    1
    12    85    86    2
    13    85    84    1
    14    58    59    1
    15    93    94    1
    16    93    96    1
    17   116   115    1
    18    94    95    2
    19    59    60    1
    20    84    87    1
    21    75    76    1
    22    96    97    1
    23   115   114    1
    24   115   118    1
    25    87    88    1
    26    60    62   am
    27    60    61    2
    28    76    77   ar
    29    76    78   ar
    30   118   119    1
    31    77    79   ar
    32    88    89    1
    33    53    52    1
    34   121   119   ar
    35   121   123   ar
    36    78    80   ar
    37   119   120   ar
    38    89    90    2
    39    89    91   am
    40    79    81   ar
    41   108   107    2
    42    48    49    1
    43    49    52    1
    44    49    50    1
    45     9    10   ar
    46     9     7   ar
    47   123   122   ar
    48    80    81   ar
    49    10     8   ar
    50   120   122   ar
    51    51    50    2
    52    81    82    1
    53   107   106    1
    54     7     6   ar
    55    42    40    1
    56    70    68    1
    57     8     6   ar
    58   106   109    1
    59   106   105    1
    60     6     5    1
    61    67    69    1
    62    67    68    1
    63    67    64    1
    64    41    40    1
    65   112   111    2
    66    40    39    1
    67   109   110    1
    68    65    64    1
    69    65    66    2
    70    63    64    1
    71     5     2    1
    72    47    44    1
    73    46    45    2
    74   111   110    1
    75   111   113   am
    76    39    36    1
    77    45    44    1
    78    44    43    1
    79    34    32   ar
    80     1     2    1
    81    98    99    1
    82     4     3    2
    83     2     3    1
    84    32    31    1
    85    32    33   ar
    86    36    37    1
    87    36    35    1
    88    12    11    1
    89    12    13    1
    90    31    30    1
    91   101   100    2
    92    99   100    1
    93    99   102    1
    94    37    38    2
    95    13    14    2
    96    13    15   am
    97   104   102    1
    98    30    27    1
    99    15    16    1
   100   102   103    1
   101    26    27    1
   102    26    17   am
   103    27    28    1
   104    18    17    2
   105    17    16    1
   106    16    19    1
   107    28    29    2
   108    19    20    1
   109    20    22   ar
   110    20    21   ar
   111    22    24   ar
   112    21    23   ar
   113    24    25   ar
   114    23    25   ar
