@<TRIPOS>MOLECULE
tmp/4ndfB00.pdb
 163 159 0 0 0
SMALL
GASTEIGER

@<TRIPOS>ATOM
      1  N          2.1890   -8.8870  -28.5410 N.3    10  GLY10      -0.1210
      2  CA         3.3790   -9.6810  -28.8120 C.3    10  GLY10       0.1956
      3  C          3.9700   -9.5510  -30.2090 C.2    10  GLY10       0.2611
      4  O          5.1850   -9.4800  -30.3700 O.2    10  GLY10      -0.2717
      5  N          3.1120   -9.5200  -31.2220 N.am   11  LEU11      -0.1979
      6  CA         3.5640   -9.4520  -32.6060 C.3    11  LEU11       0.1596
      7  C          4.2880   -8.1450  -32.9050 C.2    11  LEU11       0.2287
      8  O          5.3520   -8.1360  -33.5280 O.2    11  LEU11      -0.2864
      9  CB         2.3700   -9.6140  -33.5460 C.3    11  LEU11       0.0297
     10  CG         2.6490   -9.6840  -35.0460 C.3    11  LEU11       0.0022
     11  CD1        3.6280  -10.8220  -35.3570 C.3    11  LEU11       0.0001
     12  CD2        1.3500   -9.8810  -35.8030 C.3    11  LEU11       0.0001
     13  N          7.4860   -8.2770  -31.1930 N.3    14  SER14      -0.1217
     14  CA         8.4050   -9.1660  -31.9030 C.3    14  SER14       0.1889
     15  C          9.0180   -8.5060  -33.1380 C.2    14  SER14       0.2288
     16  O         10.2180   -8.6420  -33.3900 O.2    14  SER14      -0.2866
     17  CB         7.7170  -10.4790  -32.2830 C.3    14  SER14       0.2089
     18  OG         7.3440  -11.2050  -31.1210 O.3    14  SER14      -0.2183
     19  N          9.6200  -11.3150  -40.2090 N.3    31  ILE31      -0.1231
     20  CA         9.9640  -12.2110  -39.1150 C.3    31  ILE31       0.1692
     21  C          9.4630  -13.6080  -39.4440 C.2    31  ILE31       0.2592
     22  O          8.5810  -13.7660  -40.2860 O.2    31  ILE31      -0.2718
     23  CB         9.3430  -11.7530  -37.7750 C.3    31  ILE31       0.0266
     24  CG1        7.8140  -11.7810  -37.8470 C.3    31  ILE31       0.0019
     25  CG2        9.8090  -10.3510  -37.4190 C.3    31  ILE31       0.0020
     26  CD1        7.1410  -11.3430  -36.5390 C.3    31  ILE31       0.0001
     27  N         10.0180  -14.6250  -38.7960 N.am   32  LYS32      -0.1966
     28  CA         9.4290  -15.9510  -38.8990 C.3    32  LYS32       0.1728
     29  C          8.1110  -15.9690  -38.1350 C.2    32  LYS32       0.2616
     30  O          8.0110  -15.3960  -37.0430 O.2    32  LYS32      -0.2715
     31  CB        10.3560  -17.0210  -38.3280 C.3    32  LYS32       0.0311
     32  CG        11.6710  -17.1840  -39.0560 C.3    32  LYS32       0.0038
     33  CD        12.3290  -18.5090  -38.6650 C.3    32  LYS32       0.0206
     34  CE        13.8350  -18.3880  -38.5820 C.3    32  LYS32       0.1093
     35  NZ        14.4930  -19.7340  -38.5780 N.3    32  LYS32      -0.1314
     36  N          7.1010  -16.6160  -38.7030 N.am   33  ASP33      -0.1957
     37  CA         5.8830  -16.8800  -37.9430 C.3    33  ASP33       0.1840
     38  C          6.2570  -17.7170  -36.7250 C.2    33  ASP33       0.2622
     39  O          7.0150  -18.6740  -36.8370 O.2    33  ASP33      -0.2715
     40  CB         4.8450  -17.6150  -38.7890 C.3    33  ASP33       0.1450
     41  CG         3.4520  -17.5040  -38.2060 C.2    33  ASP33       0.3671
     42  OD1        3.2260  -18.0670  -37.1090 O.co2  33  ASP33      -0.2456
     43  OD2        2.5950  -16.8390  -38.8350 O.co2  33  ASP33      -0.2456
     44  N          5.7370  -17.3390  -35.5630 N.am   34  LYS34      -0.1963
     45  CA         6.0920  -17.9770  -34.3000 C.3    34  LYS34       0.1728
     46  C          5.4230  -19.3420  -34.1770 C.2    34  LYS34       0.2616
     47  O          5.8710  -20.2150  -33.4240 O.2    34  LYS34      -0.2715
     48  CB         5.6590  -17.0750  -33.1440 C.3    34  LYS34       0.0311
     49  CG         6.0420  -17.5570  -31.7420 C.3    34  LYS34       0.0038
     50  CD         5.5610  -16.5450  -30.6940 C.3    34  LYS34       0.0206
     51  CE         5.8480  -16.9950  -29.2640 C.3    34  LYS34       0.1093
     52  NZ         7.2920  -16.9320  -28.9520 N.3    34  LYS34      -0.1314
     53  N          4.3380  -19.5140  -34.9210 N.am   35  TYR35      -0.1974
     54  CA         3.5960  -20.7670  -34.9250 C.3    35  TYR35       0.1639
     55  C          3.4560  -21.2120  -36.3790 C.2    35  TYR35       0.2290
     56  O          2.3540  -21.1900  -36.9410 O.2    35  TYR35      -0.2864
     57  CB         2.2340  -20.5490  -34.2620 C.3    35  TYR35       0.0560
     58  CG         2.3830  -19.9620  -32.8710 C.ar   35  TYR35      -0.0198
     59  CD1        2.7820  -20.7600  -31.8050 C.ar   35  TYR35      -0.0009
     60  CD2        2.1650  -18.6040  -32.6340 C.ar   35  TYR35      -0.0009
     61  CE1        2.9450  -20.2340  -30.5290 C.ar   35  TYR35       0.0417
     62  CE2        2.3210  -18.0660  -31.3530 C.ar   35  TYR35       0.0417
     63  CZ         2.7130  -18.8920  -30.3080 C.ar   35  TYR35       0.1957
     64  OH         2.8790  -18.3850  -29.0340 O.3    35  TYR35      -0.2866
     65  N          2.9940  -22.7840  -39.9640 N.3    37  LYS37      -0.1245
     66  CA         2.0480  -23.7860  -40.4420 C.3    37  LYS37       0.1561
     67  C          2.6400  -24.6400  -41.5730 C.2    37  LYS37       0.2260
     68  O          1.9260  -25.4140  -42.2170 O.2    37  LYS37      -0.2867
     69  CB         0.7350  -23.1170  -40.8730 C.3    37  LYS37       0.0271
     70  CG         0.0160  -22.3670  -39.7240 C.3    37  LYS37       0.0035
     71  CD        -0.2050  -23.2880  -38.5270 C.3    37  LYS37       0.0206
     72  CE        -1.1010  -22.6700  -37.4480 C.3    37  LYS37       0.1093
     73  NZ        -0.5660  -21.3950  -36.8950 N.3    37  LYS37      -0.1314
     74  N          7.7340  -20.3910  -43.0690 N.3    41  HIS41      -0.1241
     75  CA         6.5620  -19.5430  -42.8590 C.3    41  HIS41       0.1621
     76  C          7.0280  -18.2150  -42.2830 C.2    41  HIS41       0.2264
     77  O          7.3840  -18.1230  -41.0990 O.2    41  HIS41      -0.2867
     78  CB         5.5540  -20.2120  -41.9080 C.3    41  HIS41       0.0745
     79  CG         4.2230  -19.5200  -41.8560 C.ar   41  HIS41       0.0817
     80  ND1        3.1690  -19.9820  -41.0980 N.ar   41  HIS41      -0.2268
     81  CD2        3.7750  -18.4020  -42.4780 C.ar   41  HIS41       0.1154
     82  CE1        2.1310  -19.1800  -41.2520 C.ar   41  HIS41       0.1986
     83  NE2        2.4710  -18.2130  -42.0840 N.ar   41  HIS41      -0.2212
     84  N          6.3120  -13.8120  -42.0720 N.3    43  LEU43      -0.1245
     85  CA         5.3440  -12.7280  -42.1560 C.3    43  LEU43       0.1561
     86  C          6.0730  -11.4880  -42.6410 C.2    43  LEU43       0.2260
     87  O          7.1740  -11.1900  -42.1710 O.2    43  LEU43      -0.2867
     88  CB         4.7460  -12.4370  -40.7790 C.3    43  LEU43       0.0270
     89  CG         3.9320  -13.5470  -40.1170 C.3    43  LEU43       0.0019
     90  CD1        3.4760  -13.0820  -38.7570 C.3    43  LEU43       0.0001
     91  CD2        2.7340  -13.9230  -41.0050 C.3    43  LEU43       0.0001
     92  N         -4.7220  -13.5290  -45.4140 N.3    91  HIS91      -0.1241
     93  CA        -5.9700  -14.0240  -44.8630 C.3    91  HIS91       0.1621
     94  C         -7.0260  -12.9510  -45.0640 C.2    91  HIS91       0.2264
     95  O         -6.7520  -11.7680  -44.8620 O.2    91  HIS91      -0.2867
     96  CB        -5.8110  -14.3520  -43.3810 C.3    91  HIS91       0.0745
     97  CG        -4.9920  -15.5790  -43.1250 C.ar   91  HIS91       0.0817
     98  ND1       -4.2100  -15.7340  -41.9990 N.ar   91  HIS91      -0.2268
     99  CD2       -4.8400  -16.7130  -43.8470 C.ar   91  HIS91       0.1154
    100  CE1       -3.6090  -16.9100  -42.0420 C.ar   91  HIS91       0.1986
    101  NE2       -3.9750  -17.5240  -43.1530 N.ar   91  HIS91      -0.2212
    102  N         -8.0010  -10.5930  -40.7190 N.3    94  PRO94      -0.2102
    103  CA        -6.8860  -10.8490  -39.8010 C.3    94  PRO94       0.1504
    104  C         -7.3970  -11.5860  -38.5740 C.2    94  PRO94       0.2576
    105  O         -8.5190  -11.3260  -38.1450 O.2    94  PRO94      -0.2718
    106  CB        -6.4330   -9.4380  -39.3960 C.3    94  PRO94       0.0282
    107  CG        -7.0010   -8.5210  -40.4320 C.3    94  PRO94       0.0208
    108  CD        -8.3040   -9.1590  -40.8310 C.3    94  PRO94       0.0893
    109  N         -6.6010  -12.4860  -38.0090 N.am   95  SER95      -0.1938
    110  CA        -7.0090  -13.2180  -36.8110 C.3    95  SER95       0.2055
    111  C         -6.9240  -12.3220  -35.5820 C.2    95  SER95       0.2642
    112  O         -7.6400  -12.5170  -34.6010 O.2    95  SER95      -0.2714
    113  CB        -6.1250  -14.4500  -36.6100 C.3    95  SER95       0.2130
    114  OG        -4.7930  -14.0630  -36.3180 O.3    95  SER95      -0.2179
    115  N         -6.0290  -11.3430  -35.6380 N.am   96  MET96      -0.1976
    116  CA        -5.8660  -10.4000  -34.5440 C.3    96  MET96       0.1605
    117  C         -6.2420   -8.9970  -35.0380 C.2    96  MET96       0.2287
    118  O         -7.4060   -8.6040  -34.9920 O.2    96  MET96      -0.2864
    119  CB        -4.4290  -10.4580  -34.0150 C.3    96  MET96       0.0413
    120  CG        -4.0960  -11.7760  -33.2850 C.3    96  MET96       0.0598
    121  SD        -2.3460  -12.0570  -32.8940 S.3    96  MET96      -0.1393
    122  CE        -1.7030  -12.3660  -34.5310 C.3    96  MET96       0.0692
    123  N         -4.7480   -5.8390  -38.1830 N.3    98  HIS98      -0.1241
    124  CA        -3.7900   -5.4000  -39.2060 C.3    98  HIS98       0.1621
    125  C         -3.5580   -6.4060  -40.3310 C.2    98  HIS98       0.2264
    126  O         -3.8140   -7.6090  -40.1900 O.2    98  HIS98      -0.2867
    127  CB        -2.4370   -5.0040  -38.5890 C.3    98  HIS98       0.0745
    128  CG        -2.5370   -3.9570  -37.5270 C.ar   98  HIS98       0.0817
    129  ND1       -3.5530   -3.0260  -37.4920 N.ar   98  HIS98      -0.2268
    130  CD2       -1.7400   -3.6840  -36.4660 C.ar   98  HIS98       0.1154
    131  CE1       -3.3780   -2.2240  -36.4560 C.ar   98  HIS98       0.1986
    132  NE2       -2.2850   -2.6020  -35.8170 N.ar   98  HIS98      -0.2212
    133  N         -1.1400   -8.5010  -42.7640 N.3   100  HIS100     -0.1241
    134  CA         0.1740   -9.1250  -42.7870 C.3   100  HIS100      0.1621
    135  C          0.2780  -10.0770  -43.9690 C.2   100  HIS100      0.2264
    136  O         -0.6260  -10.8830  -44.2070 O.2   100  HIS100     -0.2867
    137  CB         0.3950   -9.9260  -41.4990 C.3   100  HIS100      0.0745
    138  CG        -0.0140   -9.1960  -40.2610 C.ar  100  HIS100      0.0817
    139  ND1       -0.8600   -9.7440  -39.3200 N.ar  100  HIS100     -0.2268
    140  CD2        0.2860   -7.9520  -39.8190 C.ar  100  HIS100      0.1154
    141  CE1       -1.0480   -8.8720  -38.3440 C.ar  100  HIS100      0.1986
    142  NE2       -0.3650   -7.7780  -38.6240 N.ar  100  HIS100     -0.2212
    143  N          1.6350  -13.3520  -45.6040 N.3   102  HIS102     -0.1241
    144  CA         2.2050  -14.6720  -45.3400 C.3   102  HIS102      0.1621
    145  C          3.0210  -15.1830  -46.5250 C.2   102  HIS102      0.2264
    146  O          2.5700  -15.1430  -47.6710 O.2   102  HIS102     -0.2867
    147  CB         1.1050  -15.6880  -45.0200 C.3   102  HIS102      0.0745
    148  CG         0.3110  -15.3610  -43.7940 C.ar  102  HIS102      0.0817
    149  ND1        0.5310  -15.9700  -42.5760 N.ar  102  HIS102     -0.2268
    150  CD2       -0.7160  -14.4980  -43.6030 C.ar  102  HIS102      0.1154
    151  CE1       -0.3230  -15.4930  -41.6870 C.ar  102  HIS102      0.1986
    152  NE2       -1.0870  -14.5950  -42.2830 N.ar  102  HIS102     -0.2212
    153  N         -5.4120  -21.2840  -45.1770 N.3   122  PHE122     -0.1241
    154  CA        -4.3890  -21.2580  -46.2200 C.3   122  PHE122      0.1605
    155  C         -4.7880  -22.0010  -47.5010 C.2   122  PHE122      0.2264
    156  O         -4.0960  -21.8960  -48.5100 O.2   122  PHE122     -0.2867
    157  CB        -3.0580  -21.8200  -45.6980 C.3   122  PHE122      0.0534
    158  CG        -2.3690  -20.9240  -44.7070 C.ar  122  PHE122     -0.0203
    159  CD1       -1.6420  -19.8220  -45.1310 C.ar  122  PHE122     -0.0042
    160  CD2       -2.4610  -21.1750  -43.3480 C.ar  122  PHE122     -0.0042
    161  CE1       -1.0110  -18.9870  -44.2110 C.ar  122  PHE122     -0.0003
    162  CE2       -1.8380  -20.3430  -42.4270 C.ar  122  PHE122     -0.0003
    163  CZ        -1.1100  -19.2560  -42.8590 C.ar  122  PHE122     -0.0000
@<TRIPOS>BOND
     1   156   155    2
     2   146   145    2
     3   155   154    1
     4   145   144    1
     5   154   157    1
     6   154   153    1
     7   157   158    1
     8   143   144    1
     9    92    93    1
    10   144   147    1
    11   159   158   ar
    12   159   161   ar
    13    94    93    1
    14    94    95    2
    15   147   148    1
    16    93    96    1
    17   158   160   ar
    18   161   163   ar
    19   136   135    2
    20   135   134    1
    21    99   101   ar
    22    99    97   ar
    23   148   150   ar
    24   148   149   ar
    25   150   152   ar
    26    96    97    1
    27   160   162   ar
    28   101   100   ar
    29    97    98   ar
    30    74    75    1
    31    75    76    1
    32    75    78    1
    33   163   162   ar
    34   134   133    1
    35   134   137    1
    36    86    87    2
    37    86    85    1
    38   149   151   ar
    39    81    83   ar
    40    81    79   ar
    41   152   151   ar
    42    76    77    2
    43    68    67    2
    44    85    84    1
    45    85    88    1
    46    83    82   ar
    47   100    98   ar
    48    78    79    1
    49    79    80   ar
    50    67    66    1
    51   137   138    1
    52    82    80   ar
    53    91    89    1
    54    69    66    1
    55    69    70    1
    56   108   102    1
    57   108   107    1
    58    88    89    1
    59   102   103    1
    60    66    65    1
    61   107   106    1
    62   125   126    2
    63   125   124    1
    64    22    21    2
    65   138   140   ar
    66   138   139   ar
    67    19    20    1
    68    89    90    1
    69   140   142   ar
    70   103   106    1
    71   103   104    1
    72    70    71    1
    73    21    20    1
    74    21    27   am
    75   139   141   ar
    76   124   127    1
    77   124   123    1
    78    20    23    1
    79    32    33    1
    80    32    31    1
    81    28    27    1
    82    28    31    1
    83    28    29    1
    84    43    41   ar
    85    40    41    1
    86    40    37    1
    87    36    29   am
    88    36    37    1
    89    33    34    1
    90   142   141   ar
    91   127   128    1
    92    34    35    1
    93   104   105    2
    94   104   109   am
    95    71    72    1
    96    41    42   ar
    97    29    30    2
    98   109   110    1
    99    37    38    1
   100    24    23    1
   101    24    26    1
   102    23    25    1
   103   128   129   ar
   104   128   130   ar
   105   129   131   ar
   106    72    73    1
   107    56    55    2
   108    39    38    2
   109   110   113    1
   110   110   111    1
   111    38    44   am
   112   113   114    1
   113   130   132   ar
   114   131   132   ar
   115    55    54    1
   116    12    10    1
   117   115   111   am
   118   115   116    1
   119   111   112    2
   120    44    45    1
   121    11    10    1
   122    10     9    1
   123   117   118    2
   124   117   116    1
   125    54    53    1
   126    54    57    1
   127    53    46   am
   128   116   119    1
   129   122   121    1
   130    45    46    1
   131    45    48    1
   132    57    58    1
   133    46    47    2
   134   119   120    1
   135     9     6    1
   136     8     7    2
   137    16    15    2
   138   120   121    1
   139    48    49    1
   140    15    14    1
   141     7     6    1
   142    58    60   ar
   143    58    59   ar
   144    60    62   ar
   145     6     5    1
   146    17    14    1
   147    17    18    1
   148    14    13    1
   149    59    61   ar
   150    49    50    1
   151    62    63   ar
   152     5     3   am
   153    50    51    1
   154    61    63   ar
   155     4     3    2
   156    63    64    1
   157     3     2    1
   158    51    52    1
   159     2     1    1
