@<TRIPOS>MOLECULE
tmp/4ndgB00.pdb
 146 141 0 0 0
SMALL
GASTEIGER

@<TRIPOS>ATOM
      1  N         13.2290    2.7210  -18.3050 N.3     7  GLY7       -0.1210
      2  CA        12.0130    2.6890  -17.5060 C.3     7  GLY7        0.1956
      3  C         10.9180    3.6660  -17.8910 C.2     7  GLY7        0.2611
      4  O          9.7900    3.2570  -18.1900 O.2     7  GLY7       -0.2717
      5  N         11.2540    4.9530  -17.8940 N.am    8  LEU8       -0.1979
      6  CA        10.2820    5.9980  -18.1810 C.3     8  LEU8        0.1596
      7  C          9.5120    5.7360  -19.4690 C.2     8  LEU8        0.2287
      8  O          8.2820    5.8110  -19.4660 O.2     8  LEU8       -0.2864
      9  CB        10.9620    7.3630  -18.2490 C.3     8  LEU8        0.0297
     10  CG        11.6650    7.8110  -16.9700 C.3     8  LEU8        0.0022
     11  CD1       12.1200    9.2550  -17.0920 C.3     8  LEU8        0.0001
     12  CD2       10.7750    7.6130  -15.7430 C.3     8  LEU8        0.0001
     13  N          6.7930    3.3610  -18.9400 N.3    11  SER11      -0.1217
     14  CA         5.7300    3.9130  -18.1070 C.3    11  SER11       0.1889
     15  C          4.8190    4.8780  -18.8650 C.2    11  SER11       0.2288
     16  O          3.6750    5.0860  -18.4560 O.2    11  SER11      -0.2866
     17  CB         6.3170    4.6130  -16.8800 C.3    11  SER11       0.2089
     18  OG         6.7960    3.6680  -15.9390 O.3    11  SER11      -0.2183
     19  N          3.1420   11.4460  -15.5630 N.3    28  ILE28      -0.1231
     20  CA         2.9890   10.2630  -14.7180 C.3    28  ILE28       0.1692
     21  C          3.5910   10.4670  -13.3320 C.2    28  ILE28       0.2592
     22  O          4.5350   11.2370  -13.1710 O.2    28  ILE28      -0.2718
     23  CB         3.6410    9.0160  -15.3620 C.3    28  ILE28       0.0266
     24  CG1        5.1520    9.2170  -15.5150 C.3    28  ILE28       0.0019
     25  CG2        3.0210    8.7270  -16.7190 C.3    28  ILE28       0.0020
     26  CD1        5.9700    8.5790  -14.4150 C.3    28  ILE28       0.0001
     27  N          3.0670    9.7660  -12.3320 N.am   29  LYS29      -0.1966
     28  CA         3.6040    9.8730  -10.9770 C.3    29  LYS29       0.1728
     29  C          4.9720    9.2280  -10.8680 C.2    29  LYS29       0.2616
     30  O          5.2040    8.1570  -11.4150 O.2    29  LYS29      -0.2715
     31  CB         2.6570    9.2330   -9.9630 C.3    29  LYS29       0.0311
     32  CG         1.2740    9.8420   -9.9320 C.3    29  LYS29       0.0038
     33  CD         0.7080    9.7990   -8.5280 C.3    29  LYS29       0.0206
     34  CE         0.6010    8.3820   -8.0080 C.3    29  LYS29       0.1093
     35  NZ        -0.3710    8.3020   -6.8870 N.3    29  LYS29      -0.1314
     36  N          5.8700    9.8780  -10.1400 N.am   30  ASP30      -0.1957
     37  CA         7.1780    9.2970   -9.8730 C.3    30  ASP30       0.1840
     38  C          7.0040    7.9830   -9.1150 C.2    30  ASP30       0.2622
     39  O          6.3760    7.9480   -8.0600 O.2    30  ASP30      -0.2715
     40  CB         8.0470   10.2730   -9.0720 C.3    30  ASP30       0.1450
     41  CG         9.5160    9.8970   -9.0870 C.2    30  ASP30       0.3671
     42  OD1        9.8960    8.9150   -8.4190 O.co2  30  ASP30      -0.2456
     43  OD2       10.2930   10.5840   -9.7800 O.co2  30  ASP30      -0.2456
     44  N          7.5610    6.9030   -9.6540 N.am   31  LYS31      -0.1963
     45  CA         7.3970    5.5800   -9.0570 C.3    31  LYS31       0.1728
     46  C          8.0590    5.5260   -7.6870 C.2    31  LYS31       0.2616
     47  O          7.7280    4.6800   -6.8590 O.2    31  LYS31      -0.2715
     48  CB         7.9730    4.4970   -9.9690 C.3    31  LYS31       0.0311
     49  CG         7.5570    3.0800   -9.6160 C.3    31  LYS31       0.0038
     50  CD         8.1620    2.0910  -10.5950 C.3    31  LYS31       0.0206
     51  CE         7.7050    0.6720  -10.3150 C.3    31  LYS31       0.1093
     52  NZ         8.2680   -0.2780  -11.3110 N.3    31  LYS31      -0.1314
     53  N          9.0060    6.4290   -7.4560 N.am   32  TYR32      -0.1974
     54  CA         9.6520    6.5320   -6.1550 C.3    32  TYR32       0.1639
     55  C          9.6770    7.9870   -5.7170 C.2    32  TYR32       0.2290
     56  O         10.7450    8.5940   -5.6520 O.2    32  TYR32      -0.2864
     57  CB        11.0700    5.9790   -6.2190 C.3    32  TYR32       0.0560
     58  CG        11.1830    4.6320   -6.8940 C.ar   32  TYR32      -0.0198
     59  CD1       10.9730    3.4560   -6.1860 C.ar   32  TYR32      -0.0009
     60  CD2       11.5120    4.5380   -8.2390 C.ar   32  TYR32      -0.0009
     61  CE1       11.0850    2.2230   -6.7990 C.ar   32  TYR32       0.0417
     62  CE2       11.6290    3.3100   -8.8610 C.ar   32  TYR32       0.0417
     63  CZ        11.4140    2.1560   -8.1340 C.ar   32  TYR32       0.1957
     64  OH        11.5260    0.9280   -8.7450 O.3    32  TYR32      -0.2866
     65  N          9.8100   11.7240   -4.3680 N.3    34  LYS34      -0.1245
     66  CA        10.7320   12.3230   -3.4150 C.3    34  LYS34       0.1561
     67  C          9.9830   13.2970   -2.5100 C.2    34  LYS34       0.2260
     68  O         10.5890   14.0580   -1.7550 O.2    34  LYS34      -0.2867
     69  CB        11.8630   13.0520   -4.1490 C.3    34  LYS34       0.0271
     70  CG        12.8400   12.1570   -4.9210 C.3    34  LYS34       0.0035
     71  CD        13.1420   10.8540   -4.2170 C.3    34  LYS34       0.0206
     72  CE        14.1080    9.9940   -5.0330 C.3    34  LYS34       0.1093
     73  NZ        13.5360    9.5020   -6.3190 N.3    34  LYS34      -0.1314
     74  N          4.8450   14.2170   -6.3470 N.3    38  HIS38      -0.1241
     75  CA         5.9960   14.2220   -7.2450 C.3    38  HIS38       0.1621
     76  C          5.6260   13.6510   -8.6010 C.2    38  HIS38       0.2264
     77  O          5.3640   12.4560   -8.7380 O.2    38  HIS38      -0.2867
     78  CB         7.1560   13.4350   -6.6430 C.3    38  HIS38       0.0745
     79  CG         8.4310   13.5340   -7.4250 C.ar   38  HIS38       0.0817
     80  ND1        9.5890   12.8910   -7.0430 N.ar   38  HIS38      -0.2268
     81  CD2        8.7260   14.1830   -8.5780 C.ar   38  HIS38       0.1154
     82  CE1       10.5430   13.1460   -7.9200 C.ar   38  HIS38       0.1986
     83  NE2       10.0440   13.9250   -8.8620 N.ar   38  HIS38      -0.2212
     84  N          6.3080   13.5190  -13.0160 N.3    40  LEU40      -0.1245
     85  CA         7.2210   13.6640  -14.1380 C.3    40  LEU40       0.1561
     86  C          6.4450   14.0380  -15.3930 C.2    40  LEU40       0.2260
     87  O          5.4330   13.3900  -15.7400 O.2    40  LEU40      -0.2867
     88  CB         7.9970   12.3680  -14.3770 C.3    40  LEU40       0.0270
     89  CG         8.6930   11.7740  -13.1530 C.3    40  LEU40       0.0019
     90  CD1        9.3380   10.4440  -13.5060 C.3    40  LEU40       0.0001
     91  CD2        9.7210   12.7420  -12.5930 C.3    40  LEU40       0.0001
     92  N         17.2970   17.9660  -13.8270 N.3    88  HIS88      -0.1241
     93  CA        18.5900   17.6300  -13.2440 C.3    88  HIS88       0.1621
     94  C         19.7310   17.9230  -14.2170 C.2    88  HIS88       0.2264
     95  O         19.6120   17.6710  -15.4210 O.2    88  HIS88      -0.2867
     96  CB        18.6160   16.1630  -12.8280 C.3    88  HIS88       0.0745
     97  CG        17.8580   15.8790  -11.5690 C.ar   88  HIS88       0.0817
     98  ND1       17.6110   14.5990  -11.1220 N.ar   88  HIS88      -0.2268
     99  CD2       17.3020   16.7090  -10.6580 C.ar   88  HIS88       0.1154
    100  CE1       16.9320   14.6530   -9.9920 C.ar   88  HIS88       0.1986
    101  NE2       16.7300   15.9220   -9.6890 N.ar   88  HIS88      -0.2212
    102  N         20.1060   10.4400  -15.0410 N.3    92  SER92      -0.1202
    103  CA        20.5220    9.0420  -15.0750 C.3    92  SER92       0.2020
    104  C         19.7090    8.2560  -16.0950 C.2    92  SER92       0.2618
    105  O         20.2500    7.4410  -16.8360 O.2    92  SER92      -0.2717
    106  CB        20.3670    8.4190  -13.6850 C.3    92  SER92       0.2103
    107  OG        20.9310    9.2600  -12.6960 O.3    92  SER92      -0.2182
    108  N         18.4040    8.5130  -16.1050 N.am   93  MET93      -0.1979
    109  CA        17.4750    7.8550  -17.0110 C.3    93  MET93       0.1605
    110  C         17.5400    8.4580  -18.3990 C.2    93  MET93       0.2287
    111  O         17.8930    9.6180  -18.5680 O.2    93  MET93      -0.2864
    112  CB        16.0400    7.9640  -16.4640 C.3    93  MET93       0.0413
    113  CG        15.8500    7.4180  -15.0660 C.3    93  MET93       0.0598
    114  SD        15.6240    5.6290  -15.0650 S.3    93  MET93      -0.1393
    115  CE        13.8530    5.5210  -15.3080 C.3    93  MET93       0.0692
    116  N         13.0030   14.7760  -18.7610 N.3    97  HIS97      -0.1241
    117  CA        11.8560   14.7210  -17.8700 C.3    97  HIS97       0.1621
    118  C         11.7980   15.9110  -16.9520 C.2    97  HIS97       0.2264
    119  O         12.7600   16.2030  -16.2550 O.2    97  HIS97      -0.2867
    120  CB        11.8540   13.4170  -17.0450 C.3    97  HIS97       0.0745
    121  CG        13.1890   12.9490  -16.5890 C.ar   97  HIS97       0.0817
    122  ND1       14.3230   13.0360  -17.3640 N.ar   97  HIS97      -0.2268
    123  CD2       13.5660   12.3410  -15.4410 C.ar   97  HIS97       0.1154
    124  CE1       15.3460   12.5320  -16.7040 C.ar   97  HIS97       0.1986
    125  NE2       14.9130   12.1000  -15.5310 N.ar   97  HIS97      -0.2212
    126  N         10.7910   17.5270  -13.6640 N.3    99  HIS99      -0.1241
    127  CA        10.3920   17.2160  -12.3090 C.3    99  HIS99       0.1621
    128  C          9.4470   18.2930  -11.8190 C.2    99  HIS99       0.2264
    129  O          9.7720   19.4820  -11.8530 O.2    99  HIS99      -0.2867
    130  CB        11.6050   17.1040  -11.3850 C.3    99  HIS99       0.0745
    131  CG        12.4200   15.8650  -11.5940 C.ar   99  HIS99       0.0817
    132  ND1       12.1170   14.6670  -10.9850 N.ar   99  HIS99      -0.2268
    133  CD2       13.5360   15.6420  -12.3280 C.ar   99  HIS99       0.1154
    134  CE1       13.0060   13.7570  -11.3420 C.ar   99  HIS99       0.1986
    135  NE2       13.8790   14.3230  -12.1570 N.ar   99  HIS99      -0.2212
    136  N         17.7100   17.8070   -5.5490 N.3   119  PHE119     -0.1241
    137  CA        16.5500   18.7050   -5.6010 C.3   119  PHE119      0.1605
    138  C         16.6960   20.0520   -4.8620 C.2   119  PHE119      0.2264
    139  O         15.8390   20.9230   -5.0020 O.2   119  PHE119     -0.2867
    140  CB        15.3130   17.9780   -5.0980 C.3   119  PHE119      0.0534
    141  CG        14.7610   16.9990   -6.0880 C.ar  119  PHE119     -0.0203
    142  CD1       14.0140   17.4440   -7.1710 C.ar  119  PHE119     -0.0042
    143  CD2       15.0010   15.6440   -5.9530 C.ar  119  PHE119     -0.0042
    144  CE1       13.5060   16.5490   -8.0930 C.ar  119  PHE119     -0.0003
    145  CE2       14.4990   14.7490   -6.8600 C.ar  119  PHE119     -0.0003
    146  CZ        13.7470   15.2020   -7.9410 C.ar  119  PHE119     -0.0000
@<TRIPOS>BOND
     1     7     8    2
     2     7     6    1
     3    13    14    1
     4    15    16    2
     5    15    14    1
     6   116   117    1
     7   111   110    2
     8   110   109    1
     9     1     2    1
    10     9     6    1
    11     9    10    1
    12     4     3    2
    13     6     5    1
    14    14    17    1
    15     5     3   am
    16     3     2    1
    17   117   120    1
    18   117   118    1
    19   122   124   ar
    20   122   121   ar
    21    11    10    1
    22   120   121    1
    23   109   112    1
    24   109   108    1
    25    10    12    1
    26   118   119    2
    27    17    18    1
    28   105   104    2
    29    25    23    1
    30   124   125   ar
    31   121   123   ar
    32   112   113    1
    33   108   104   am
    34   104   103    1
    35    87    86    2
    36    19    20    1
    37   125   123   ar
    38    24    23    1
    39    24    26    1
    40    95    94    2
    41    86    85    1
    42    23    20    1
    43   115   114    1
    44   103   102    1
    45   103   106    1
    46   113   114    1
    47    20    21    1
    48    88    85    1
    49    88    89    1
    50    94    93    1
    51    85    84    1
    52    92    93    1
    53   106   107    1
    54   126   127    1
    55    90    89    1
    56    21    22    2
    57    21    27   am
    58    93    96    1
    59    89    91    1
    60    96    97    1
    61    27    28    1
    62   133   135   ar
    63   133   131   ar
    64   127   128    1
    65   127   130    1
    66   135   134   ar
    67   129   128    2
    68   131   130    1
    69   131   132   ar
    70    97    98   ar
    71    97    99   ar
    72    30    29    2
    73   134   132   ar
    74    52    51    1
    75    98   100   ar
    76    28    29    1
    77    28    31    1
    78    29    36   am
    79    99   101   ar
    80    50    51    1
    81    50    49    1
    82    36    37    1
    83   100   101   ar
    84    48    49    1
    85    48    45    1
    86    31    32    1
    87    32    33    1
    88    37    38    1
    89    37    40    1
    90    43    41   ar
    91    44    38   am
    92    44    45    1
    93    38    39    2
    94    41    40    1
    95    41    42   ar
    96    45    46    1
    97    83    81   ar
    98    83    82   ar
    99    62    60   ar
   100    62    63   ar
   101    64    63    1
   102    77    76    2
   103    76    75    1
   104    81    79   ar
   105    33    34    1
   106    60    58   ar
   107    63    61   ar
   108   144   146   ar
   109   144   142   ar
   110    34    35    1
   111   146   145   ar
   112    82    80   ar
   113    46    53   am
   114    46    47    2
   115    53    54    1
   116    79    80   ar
   117    79    78    1
   118    75    78    1
   119    75    74    1
   120   142   141   ar
   121    58    57    1
   122    58    59   ar
   123   145   143   ar
   124    61    59   ar
   125    73    72    1
   126    57    54    1
   127    54    55    1
   128   141   143   ar
   129   141   140    1
   130    55    56    2
   131   137   136    1
   132   137   140    1
   133   137   138    1
   134    72    71    1
   135   139   138    2
   136    70    71    1
   137    70    69    1
   138    65    66    1
   139    69    66    1
   140    66    67    1
   141    67    68    2
