@<TRIPOS>MOLECULE
tmp/4ndrB00.pdb
 207 202 0 0 0
SMALL
GASTEIGER

@<TRIPOS>ATOM
      1  N         35.9760   26.8990   44.7190 N.3    14  LYS14      -0.1245
      2  CA        35.7190   27.3650   43.3570 C.3    14  LYS14       0.1561
      3  C         34.6190   28.4010   43.5110 C.2    14  LYS14       0.2260
      4  O         33.5990   28.1160   44.1270 O.2    14  LYS14      -0.2867
      5  CB        35.3220   26.1960   42.4420 C.3    14  LYS14       0.0271
      6  CG        35.0230   26.5930   40.9690 C.3    14  LYS14       0.0035
      7  CD        33.5330   26.9280   40.7870 C.3    14  LYS14       0.0206
      8  CE        33.2300   27.4360   39.3970 C.3    14  LYS14       0.1093
      9  NZ        31.7630   27.5110   39.1600 N.3    14  LYS14      -0.1314
     10  N         31.8460   30.6510   41.6420 N.3    16  GLY16      -0.1210
     11  CA        31.2180   30.6960   40.3380 C.3    16  GLY16       0.1956
     12  C         31.3940   32.0360   39.6520 C.2    16  GLY16       0.2612
     13  O         31.3830   33.0730   40.3070 O.2    16  GLY16      -0.2717
     14  N         31.5120   32.0310   38.3250 N.am   17  GLY17      -0.1942
     15  CA        31.6460   33.2890   37.6170 C.3    17  GLY17       0.2014
     16  C         30.3940   34.1380   37.7670 C.2    17  GLY17       0.2639
     17  O         30.4820   35.3670   37.7650 O.2    17  GLY17      -0.2714
     18  N         29.2310   33.5000   37.9220 N.am   18  ARG18      -0.1963
     19  CA        27.9690   34.2430   38.0600 C.3    18  ARG18       0.1729
     20  C         27.8600   34.8570   39.4580 C.2    18  ARG18       0.2616
     21  O         27.0840   35.7740   39.6810 O.2    18  ARG18      -0.2715
     22  CB        26.7470   33.3710   37.7840 C.3    18  ARG18       0.0348
     23  CG        26.7120   32.7420   36.4070 C.3    18  ARG18       0.0492
     24  CD        25.9020   33.5860   35.5150 C.3    18  ARG18       0.2205
     25  NE        25.2310   32.8360   34.4810 N.pl3  18  ARG18      -0.0865
     26  CZ        24.4820   33.4080   33.5540 C.cat  18  ARG18       0.5346
     27  NH1       24.3300   34.7220   33.5600 N.pl3  18  ARG18       0.1354
     28  NH2       23.8830   32.6720   32.6410 N.pl3  18  ARG18       0.1354
     29  N         28.6390   34.3490   40.3980 N.am   19  VAL19      -0.1977
     30  CA        28.7750   35.0360   41.6740 C.3    19  VAL19       0.1596
     31  C         29.5930   36.2950   41.4710 C.2    19  VAL19       0.2287
     32  O         29.1760   37.3530   41.9020 O.2    19  VAL19      -0.2864
     33  CB        29.3640   34.1250   42.7740 C.3    19  VAL19       0.0276
     34  CG1       29.6440   34.9280   44.0520 C.3    19  VAL19       0.0022
     35  CG2       28.3820   32.9770   43.0330 C.3    19  VAL19       0.0022
     36  N         35.3760   30.7780   38.2500 N.3    48  GLY48      -0.1210
     37  CA        34.6970   30.4660   37.0000 C.3    48  GLY48       0.1956
     38  C         34.4840   31.7040   36.1390 C.2    48  GLY48       0.2612
     39  O         34.9870   32.8070   36.4490 O.2    48  GLY48      -0.2717
     40  N         33.7190   31.5300   35.0660 N.am   49  ALA49      -0.1965
     41  CA        33.6880   32.5030   33.9600 C.3    49  ALA49       0.1728
     42  C         32.4610   33.4100   33.9790 C.2    49  ALA49       0.2616
     43  O         32.5640   34.6350   33.8040 O.2    49  ALA49      -0.2715
     44  CB        33.7410   31.7560   32.6210 C.3    49  ALA49       0.0334
     45  N         31.2930   32.8050   34.1590 N.am   50  GLY50      -0.1955
     46  CA        30.0730   33.5880   34.1640 C.3    50  GLY50       0.1869
     47  C         29.7110   34.1520   32.7970 C.2    50  GLY50       0.2309
     48  O         30.0880   33.6000   31.7590 O.2    50  GLY50      -0.2863
     49  N         29.4520   33.6060   27.9940 N.3    54  ARG54      -0.1245
     50  CA        28.2570   33.3940   27.1820 C.3    54  ARG54       0.1563
     51  C         28.3090   34.3410   26.0070 C.2    54  ARG54       0.2260
     52  O         27.8730   34.0170   24.9070 O.2    54  ARG54      -0.2867
     53  CB        26.9910   33.7030   28.0000 C.3    54  ARG54       0.0307
     54  CG        26.9700   32.9470   29.3190 C.3    54  ARG54       0.0489
     55  CD        27.3300   31.4370   29.1660 C.3    54  ARG54       0.2205
     56  NE        27.1060   30.8190   30.4660 N.pl3  54  ARG54      -0.0865
     57  CZ        25.9240   30.3440   30.8600 C.cat  54  ARG54       0.5346
     58  NH1       24.8960   30.3060   30.0100 N.pl3  54  ARG54       0.1354
     59  NH2       25.7850   29.8590   32.0810 N.pl3  54  ARG54       0.1354
     60  N         39.1690   27.2050   35.0600 N.3   121  PHE121     -0.1241
     61  CA        39.1500   26.4560   33.8130 C.3   121  PHE121      0.1605
     62  C         40.4200   25.6680   33.6230 C.2   121  PHE121      0.2264
     63  O         41.5000   26.1390   33.9370 O.2   121  PHE121     -0.2867
     64  CB        39.0170   27.3560   32.6230 C.3   121  PHE121      0.0534
     65  CG        37.6310   27.5080   32.1600 C.ar  121  PHE121     -0.0203
     66  CD1       36.7120   28.1610   32.9430 C.ar  121  PHE121     -0.0042
     67  CD2       37.2440   27.0200   30.9190 C.ar  121  PHE121     -0.0042
     68  CE1       35.4080   28.3150   32.5090 C.ar  121  PHE121     -0.0003
     69  CE2       35.9420   27.1680   30.4940 C.ar  121  PHE121     -0.0003
     70  CZ        35.0390   27.8390   31.2850 C.ar  121  PHE121     -0.0000
     71  N         34.6260   22.8650   32.0000 N.3   138  ARG138     -0.1231
     72  CA        34.5930   24.2450   32.4200 C.3   138  ARG138      0.1694
     73  C         35.0990   24.3650   33.8610 C.2   138  ARG138      0.2592
     74  O         35.9590   23.5870   34.2690 O.2   138  ARG138     -0.2718
     75  CB        33.2100   24.8360   32.1640 C.3   138  ARG138      0.0321
     76  CG        32.8410   24.6630   30.6930 C.3   138  ARG138      0.0489
     77  CD        31.4520   25.2100   30.3750 C.3   138  ARG138      0.2205
     78  NE        30.3630   24.6160   31.1710 N.pl3 138  ARG138     -0.0865
     79  CZ        29.5890   23.6160   30.7790 C.cat 138  ARG138      0.5346
     80  NH1       29.7780   23.0420   29.5840 N.pl3 138  ARG138      0.1354
     81  NH2       28.5970   23.2080   31.5750 N.pl3 138  ARG138      0.1354
     82  N         34.6110   25.3440   34.6000 N.am  139  ALA139     -0.1966
     83  CA        35.2810   25.7210   35.8370 C.3   139  ALA139      0.1728
     84  C         35.1020   24.6970   36.9640 C.2   139  ALA139      0.2616
     85  O         36.0400   24.4270   37.6970 O.2   139  ALA139     -0.2715
     86  CB        34.8330   27.1290   36.2820 C.3   139  ALA139      0.0334
     87  N         33.9080   24.1340   37.1080 N.am  140  ASP140     -0.1971
     88  CA        33.6920   23.1320   38.1610 C.3   140  ASP140      0.1709
     89  C         34.5620   21.9440   37.8580 C.2   140  ASP140      0.2293
     90  O         35.1200   21.3310   38.7490 O.2   140  ASP140     -0.2864
     91  CB        32.2560   22.6130   38.1550 C.3   140  ASP140      0.1436
     92  CG        31.2500   23.7160   38.3090 C.2   140  ASP140      0.3671
     93  OD1       31.4470   24.5860   39.1900 O.co2 140  ASP140     -0.2456
     94  OD2       30.2780   23.7370   37.5200 O.co2 140  ASP140     -0.2456
     95  N         28.2940   28.9170   44.8280 N.3   159  GLU159     -0.1231
     96  CA        27.2880   29.1200   43.7920 C.3   159  GLU159      0.1699
     97  C         26.4510   30.3450   44.1410 C.2   159  GLU159      0.2592
     98  O         26.5760   30.9230   45.2320 O.2   159  GLU159     -0.2718
     99  CB        26.3820   27.8800   43.7590 C.3   159  GLU159      0.0402
    100  CG        25.7560   27.5780   42.3930 C.3   159  GLU159      0.1161
    101  CD        26.7920   27.0840   41.3790 C.2   159  GLU159      0.3649
    102  OE1       27.7390   26.3830   41.8020 O.co2 159  GLU159     -0.2457
    103  OE2       26.6650   27.4130   40.1780 O.co2 159  GLU159     -0.2457
    104  N         25.5560   30.7170   43.2380 N.am  160  ASN160     -0.1960
    105  CA        24.6450   31.8210   43.4910 C.3   160  ASN160      0.1819
    106  C         23.2670   31.3050   43.8770 C.2   160  ASN160      0.2621
    107  O         22.3140   32.0830   43.9820 O.2   160  ASN160     -0.2715
    108  CB        24.5630   32.7550   42.2610 C.3   160  ASN160      0.1195
    109  CG        23.8880   32.0910   41.0350 C.2   160  ASN160      0.2630
    110  OD1       23.4840   30.9270   41.0730 O.2   160  ASN160     -0.2716
    111  ND2       23.7550   32.8490   39.9540 N.am  160  ASN160     -0.0877
    112  N         23.1600   29.9850   44.0720 N.am  161  VAL161     -0.1977
    113  CA        21.9600   29.3820   44.6530 C.3   161  VAL161      0.1596
    114  C         22.3490   28.4810   45.8370 C.2   161  VAL161      0.2287
    115  O         23.5270   28.2560   46.0830 O.2   161  VAL161     -0.2864
    116  CB        21.1850   28.5440   43.5940 C.3   161  VAL161      0.0276
    117  CG1       20.5020   29.4530   42.5620 C.3   161  VAL161      0.0022
    118  CG2       22.1430   27.5820   42.9030 C.3   161  VAL161      0.0022
    119  N         22.1770   25.3430   46.2840 N.3   163  GLY163     -0.1210
    120  CA        22.7710   24.0620   45.9410 C.3   163  GLY163      0.1956
    121  C         22.1040   23.5300   44.6910 C.2   163  GLY163      0.2612
    122  O         21.7010   24.2920   43.8210 O.2   163  GLY163     -0.2717
    123  N         21.9760   22.2170   44.6070 N.am  164  ILE164     -0.1965
    124  CA        21.3690   21.6120   43.4390 C.3   164  ILE164      0.1727
    125  C         19.9050   21.3670   43.7190 C.2   164  ILE164      0.2616
    126  O         19.5420   20.8980   44.8040 O.2   164  ILE164     -0.2715
    127  CB        22.0790   20.2990   43.0560 C.3   164  ILE164      0.0290
    128  CG1       23.5860   20.5500   42.8480 C.3   164  ILE164      0.0022
    129  CG2       21.4340   19.6850   41.8130 C.3   164  ILE164      0.0023
    130  CD1       24.3390   19.2840   42.4880 C.3   164  ILE164      0.0001
    131  N         19.0630   21.7360   42.7560 N.am  165  TYR165     -0.1960
    132  CA        17.6290   21.4630   42.8390 C.3   165  TYR165      0.1771
    133  C         17.2600   20.4570   41.7600 C.2   165  TYR165      0.2620
    134  O         18.0820   20.1460   40.8850 O.2   165  TYR165     -0.2715
    135  CB        16.8180   22.7370   42.6370 C.3   165  TYR165      0.0574
    136  CG        16.9360   23.7690   43.7450 C.ar  165  TYR165     -0.0198
    137  CD1       15.8740   24.0200   44.6130 C.ar  165  TYR165     -0.0009
    138  CD2       18.0980   24.5160   43.9040 C.ar  165  TYR165     -0.0009
    139  CE1       15.9710   24.9790   45.6120 C.ar  165  TYR165      0.0417
    140  CE2       18.2040   25.4740   44.8980 C.ar  165  TYR165      0.0417
    141  CZ        17.1530   25.7070   45.7410 C.ar  165  TYR165      0.1957
    142  OH        17.2920   26.6580   46.7270 O.3   165  TYR165     -0.2866
    143  N         16.0300   19.9570   41.8140 N.am  166  THR166     -0.1937
    144  CA        15.5510   18.9940   40.8390 C.3   166  THR166      0.2028
    145  C         15.2350   19.6570   39.4910 C.2   166  THR166      0.2642
    146  O         14.9610   18.9740   38.4950 O.2   166  THR166     -0.2714
    147  CB        14.2910   18.3140   41.3520 C.3   166  THR166      0.1808
    148  OG1       13.3360   19.3300   41.6410 O.3   166  THR166     -0.2208
    149  CG2       14.6070   17.5300   42.6460 C.3   166  THR166      0.0379
    150  N         15.2620   20.9850   39.4750 N.am  167  ALA167     -0.1963
    151  CA        15.1080   21.7670   38.2540 C.3   167  ALA167      0.1728
    152  C         15.7220   23.1280   38.5310 C.2   167  ALA167      0.2616
    153  O         16.0020   23.4540   39.6900 O.2   167  ALA167     -0.2715
    154  CB        13.6350   21.9090   37.8740 C.3   167  ALA167      0.0334
    155  N         15.9380   23.9120   37.4770 N.am  168  ASP168     -0.1958
    156  CA        16.5290   25.2400   37.6070 C.3   168  ASP168      0.1825
    157  C         15.6190   26.1200   38.4850 C.2   168  ASP168      0.2464
    158  O         14.4710   26.3920   38.1330 O.2   168  ASP168     -0.2730
    159  CB        16.7370   25.8380   36.2060 C.3   168  ASP168      0.1450
    160  CG        17.5760   27.1170   36.2140 C.2   168  ASP168      0.3671
    161  OD1       17.6290   27.7920   37.2660 O.co2 168  ASP168     -0.2456
    162  OD2       18.1710   27.4540   35.1600 O.co2 168  ASP168     -0.2456
    163  N         16.1190   26.5470   39.6560 N.am  169  PRO169     -0.2715
    164  CA        15.2700   27.3370   40.5590 C.3   169  PRO169      0.1536
    165  C         15.0620   28.7600   40.0430 C.2   169  PRO169      0.2598
    166  O         14.2930   29.5240   40.6200 O.2   169  PRO169     -0.2715
    167  CB        16.0520   27.3320   41.8750 C.3   169  PRO169      0.0310
    168  CG        17.5170   27.1510   41.4290 C.3   169  PRO169      0.0237
    169  CD        17.4440   26.2550   40.2290 C.3   169  PRO169      0.0939
    170  N         15.7230   29.0990   38.9400 N.am  170  ASN170     -0.1973
    171  CA        15.5340   30.3910   38.2960 C.3   170  ASN170      0.1688
    172  C         14.9310   30.2060   36.9110 C.2   170  ASN170      0.2292
    173  O         14.7830   31.1590   36.1700 O.2   170  ASN170     -0.2864
    174  CB        16.8700   31.1380   38.1940 C.3   170  ASN170      0.1181
    175  CG        17.4930   31.3990   39.5510 C.2   170  ASN170      0.2629
    176  OD1       16.8210   31.8670   40.4630 O.2   170  ASN170     -0.2716
    177  ND2       18.7770   31.0740   39.6990 N.am  170  ASN170     -0.0877
    178  N         18.9870   20.5730   33.5170 N.3   194  PRO194     -0.2102
    179  CA        20.1020   21.4620   33.8630 C.3   194  PRO194      0.1504
    180  C         20.6570   21.2830   35.2830 C.2   194  PRO194      0.2576
    181  O         19.9600   20.8160   36.1800 O.2   194  PRO194     -0.2718
    182  CB        19.4820   22.8590   33.7110 C.3   194  PRO194      0.0282
    183  CG        18.0090   22.6330   33.8710 C.3   194  PRO194      0.0208
    184  CD        17.7700   21.3290   33.1840 C.3   194  PRO194      0.0893
    185  N         21.9230   21.6390   35.4840 N.am  195  LEU195     -0.1967
    186  CA        22.5300   21.5860   36.8050 C.3   195  LEU195      0.1713
    187  C         23.2720   22.9040   37.0260 C.2   195  LEU195      0.2458
    188  O         23.5480   23.6250   36.0630 O.2   195  LEU195     -0.2730
    189  CB        23.5230   20.4110   36.9070 C.3   195  LEU195      0.0310
    190  CG        22.9220   18.9970   36.7920 C.3   195  LEU195      0.0022
    191  CD1       23.9970   17.9410   36.6070 C.3   195  LEU195      0.0001
    192  CD2       22.0950   18.6810   38.0130 C.3   195  LEU195      0.0001
    193  N         23.6020   23.2300   38.2800 N.am  196  PRO196     -0.2727
    194  CA        24.4640   24.4110   38.4780 C.3   196  PRO196      0.1402
    195  C         25.9330   24.0380   38.3720 C.2   196  PRO196      0.2269
    196  O         26.7990   24.8950   38.5590 O.2   196  PRO196     -0.2865
    197  CB        24.1410   24.8430   39.9100 C.3   196  PRO196      0.0296
    198  CG        23.8650   23.5430   40.6140 C.3   196  PRO196      0.0237
    199  CD        23.2000   22.6270   39.5620 C.3   196  PRO196      0.0939
    200  N         28.9580   21.6770   35.9490 N.3   198  ASP198     -0.1239
    201  CA        29.2110   21.0760   34.6320 C.3   198  ASP198      0.1674
    202  C         28.7980   19.6240   34.6680 C.2   198  ASP198      0.2266
    203  O         28.9940   18.9470   35.6810 O.2   198  ASP198     -0.2867
    204  CB        30.6960   21.0370   34.2640 C.3   198  ASP198      0.1410
    205  CG        31.4040   22.3820   34.3870 C.2   198  ASP198      0.3668
    206  OD1       32.6520   22.3380   34.4240 O.co2 198  ASP198     -0.2456
    207  OD2       30.7530   23.4480   34.4460 O.co2 198  ASP198     -0.2456
@<TRIPOS>BOND
     1    52    51    2
     2    51    50    1
     3    50    49    1
     4    50    53    1
     5    53    54    1
     6    55    54    1
     7    55    56    1
     8    80    79    1
     9    58    57    1
    10    77    76    1
    11    77    78    1
    12    56    57    2
    13    69    67   ar
    14    69    70   ar
    15    76    75    1
    16    79    78    2
    17    79    81    1
    18    57    59    1
    19    67    65   ar
    20    70    68   ar
    21    48    47    2
    22    71    72    1
    23    65    64    1
    24    65    66   ar
    25    75    72    1
    26    72    73    1
    27    68    66   ar
    28    44    41    1
    29    64    61    1
    30    28    26    1
    31    47    46    1
    32   184   178    1
    33   184   183    1
    34   178   179    1
    35    26    27    1
    36    26    25    2
    37    62    61    1
    38    62    63    2
    39   182   179    1
    40   182   183    1
    41    43    42    2
    42    61    60    1
    43    73    74    2
    44    73    82   am
    45   179   180    1
    46    41    42    1
    47    41    40    1
    48    42    45   am
    49    45    46    1
    50   204   205    1
    51   204   201    1
    52   205   206   ar
    53   205   207   ar
    54    25    24    1
    55    82    83    1
    56   201   202    1
    57   201   200    1
    58   202   203    2
    59    40    38   am
    60   162   160   ar
    61   180   185   am
    62   180   181    2
    63   185   186    1
    64    24    23    1
    65    83    86    1
    66    83    84    1
    67   188   187    2
    68    38    39    2
    69    38    37    1
    70   173   172    2
    71   159   160    1
    72   159   156    1
    73   160   161   ar
    74    23    22    1
    75   191   190    1
    76   190   189    1
    77   190   192    1
    78   186   189    1
    79   186   187    1
    80   172   171    1
    81    84    87   am
    82    84    85    2
    83    37    36    1
    84   187   193   am
    85    87    88    1
    86   155   156    1
    87   155   152   am
    88    94    92   ar
    89   156   157    1
    90    15    16    1
    91    15    14    1
    92    17    16    2
    93    16    18   am
    94    22    19    1
    95    89    88    1
    96    89    90    2
    97   154   151    1
    98    18    19    1
    99    19    20    1
   100   158   157    2
   101    91    88    1
   102    91    92    1
   103   174   171    1
   104   174   175    1
   105   151   152    1
   106   151   150    1
   107   193   194    1
   108   193   199    1
   109   171   170    1
   110    92    93   ar
   111    14    12   am
   112   195   194    1
   113   195   196    2
   114   194   197    1
   115   157   163   am
   116   146   145    2
   117   152   153    2
   118   170   165   am
   119     9     8    1
   120     8     7    1
   121    20    21    2
   122    20    29   am
   123   150   145   am
   124   145   144    1
   125   175   177   am
   126   175   176    2
   127   199   198    1
   128    12    13    2
   129    12    11    1
   130   163   169    1
   131   163   164    1
   132   197   198    1
   133   111   109   am
   134   165   164    1
   135   165   166    2
   136   103   101   ar
   137   169   168    1
   138    11    10    1
   139    29    30    1
   140   164   167    1
   141     7     6    1
   142   144   147    1
   143   144   143    1
   144   134   133    2
   145     6     5    1
   146   109   110    2
   147   109   108    1
   148   147   148    1
   149   147   149    1
   150   101   102   ar
   151   101   100    1
   152   168   167    1
   153    31    30    1
   154    31    32    2
   155    30    33    1
   156   133   143   am
   157   133   132    1
   158   129   127    1
   159   108   105    1
   160   100    99    1
   161     5     2    1
   162   130   128    1
   163   117   116    1
   164   135   132    1
   165   135   136    1
   166   131   132    1
   167   131   125   am
   168    33    35    1
   169    33    34    1
   170   128   127    1
   171   118   116    1
   172   127   124    1
   173   104   105    1
   174   104    97   am
   175     2     3    1
   176     2     1    1
   177   124   125    1
   178   124   123    1
   179   105   106    1
   180     3     4    2
   181   116   113    1
   182   125   126    2
   183   136   138   ar
   184   136   137   ar
   185    99    96    1
   186    96    97    1
   187    96    95    1
   188   122   121    2
   189   106   107    2
   190   106   112   am
   191   138   140   ar
   192   112   113    1
   193    97    98    2
   194   123   121   am
   195   137   139   ar
   196   113   114    1
   197   121   120    1
   198   140   141   ar
   199   139   141   ar
   200   141   142    1
   201   114   115    2
   202   120   119    1
