@<TRIPOS>MOLECULE
tmp/4ndzD03.pdb
 222 215 0 0 0
SMALL
GASTEIGER

@<TRIPOS>ATOM
      1  N          4.9510   36.4210   80.4720 N.3   379  ARG379     -0.1245
      2  CA         4.9740   36.3970   79.0150 C.3   379  ARG379      0.1563
      3  C          5.8510   37.4550   78.3530 C.2   379  ARG379      0.2260
      4  O          5.7990   38.6340   78.6910 O.2   379  ARG379     -0.2867
      5  CB         3.5470   36.4870   78.4850 C.3   379  ARG379      0.0307
      6  CG         2.6800   37.4110   79.2870 C.3   379  ARG379      0.0489
      7  CD         1.2320   37.1670   78.9900 C.3   379  ARG379      0.2205
      8  NE         0.8970   37.5550   77.6360 N.pl3 379  ARG379     -0.0865
      9  CZ        -0.3420   37.6140   77.1890 C.cat 379  ARG379      0.5346
     10  NH1       -1.3340   37.3070   78.0040 N.pl3 379  ARG379      0.1354
     11  NH2       -0.5850   37.9790   75.9410 N.pl3 379  ARG379      0.1354
     12  N          6.6380   39.6910   75.1230 N.3   381  PRO381     -0.2102
     13  CA         5.9040   40.3490   74.0400 C.3   381  PRO381      0.1504
     14  C          6.1570   39.7520   72.6610 C.2   381  PRO381      0.2575
     15  O          7.3080   39.5600   72.2750 O.2   381  PRO381     -0.2718
     16  CB         6.4670   41.7690   74.0670 C.3   381  PRO381      0.0282
     17  CG         6.8640   41.9740   75.4480 C.3   381  PRO381      0.0208
     18  CD         7.3580   40.6660   75.9550 C.3   381  PRO381      0.0893
     19  N          5.0800   39.4890   71.9280 N.am  382  LYS382     -0.1980
     20  CA         5.1520   39.0470   70.5390 C.3   382  LYS382      0.1596
     21  C          5.8470   37.7060   70.4070 C.2   382  LYS382      0.2287
     22  O          6.7090   37.5270   69.5590 O.2   382  LYS382     -0.2864
     23  CB         5.8180   40.1020   69.6430 C.3   382  LYS382      0.0298
     24  CG         5.2450   41.5140   69.7870 C.3   382  LYS382      0.0038
     25  CD         3.7110   41.5350   69.7840 C.3   382  LYS382      0.0206
     26  CE         3.1430   41.1800   68.4180 C.3   382  LYS382      0.1093
     27  NZ         1.6540   41.2270   68.3640 N.3   382  LYS382     -0.1314
     28  N         -0.3910   35.4150   73.5000 N.3   386  THR386     -0.1218
     29  CA        -1.8380   35.5960   73.5300 C.3   386  THR386      0.1862
     30  C         -2.5400   34.2900   73.2080 C.2   386  THR386      0.2287
     31  O         -3.5240   33.9290   73.8550 O.2   386  THR386     -0.2866
     32  CB        -2.3090   36.6890   72.5570 C.3   386  THR386      0.1770
     33  OG1       -1.8170   37.9580   72.9970 O.3   386  THR386     -0.2211
     34  CG2       -3.8190   36.7450   72.5120 C.3   386  THR386      0.0375
     35  N         -2.0840   31.8410   76.1820 N.3   389  THR389     -0.1203
     36  CA        -2.7810   32.2720   77.3820 C.3   389  THR389      0.1994
     37  C         -4.2710   31.9940   77.2540 C.2   389  THR389      0.2617
     38  O         -4.9260   31.5990   78.2190 O.2   389  THR389     -0.2717
     39  CB        -2.5340   33.7590   77.6710 C.3   389  THR389      0.1784
     40  OG1       -1.1280   33.9850   77.8180 O.3   389  THR389     -0.2211
     41  CG2       -3.2200   34.1720   78.9490 C.3   389  THR389      0.0376
     42  N         -4.8020   32.1670   76.0520 N.am  390  ASN390     -0.1974
     43  CA        -6.2170   31.9130   75.8360 C.3   390  ASN390      0.1688
     44  C         -6.6030   30.4550   75.9900 C.2   390  ASN390      0.2292
     45  O         -7.7750   30.1350   76.1550 O.2   390  ASN390     -0.2864
     46  CB        -6.6680   32.4410   74.4870 C.3   390  ASN390      0.1181
     47  CG        -7.3420   33.7770   74.6030 C.2   390  ASN390      0.2629
     48  OD1       -8.5590   33.8820   74.4570 O.2   390  ASN390     -0.2716
     49  ND2       -6.5600   34.8130   74.9020 N.am  390  ASN390     -0.0877
     50  N         -7.3040   30.3350   79.5660 N.3   393  TYR393     -0.1241
     51  CA        -8.5930   30.9530   79.8390 C.3   393  TYR393      0.1605
     52  C         -9.7470   30.0360   79.4820 C.2   393  TYR393      0.2264
     53  O        -10.7820   30.0560   80.1390 O.2   393  TYR393     -0.2867
     54  CB        -8.7340   32.2690   79.0850 C.3   393  TYR393      0.0534
     55  CG        -8.1390   33.4550   79.8000 C.ar  393  TYR393     -0.0201
     56  CD1       -6.9830   34.0610   79.3400 C.ar  393  TYR393     -0.0009
     57  CD2       -8.7370   33.9690   80.9360 C.ar  393  TYR393     -0.0009
     58  CE1       -6.4440   35.1450   79.9910 C.ar  393  TYR393      0.0417
     59  CE2       -8.2040   35.0530   81.5910 C.ar  393  TYR393      0.0417
     60  CZ        -7.0600   35.6350   81.1130 C.ar  393  TYR393      0.1957
     61  OH        -6.5280   36.7160   81.7630 O.3   393  TYR393     -0.2866
     62  N         -4.4830   38.2880   85.0250 N.3   405  HIS405     -0.1241
     63  CA        -3.4880   39.0360   84.2630 C.3   405  HIS405      0.1621
     64  C         -2.8480   40.1240   85.1220 C.2   405  HIS405      0.2264
     65  O         -3.5310   40.8530   85.8270 O.2   405  HIS405     -0.2867
     66  CB        -4.1070   39.6410   82.9970 C.3   405  HIS405      0.0745
     67  CG        -3.1570   40.4710   82.1890 C.ar  405  HIS405      0.0817
     68  ND1       -3.2890   41.8350   82.0550 N.ar  405  HIS405     -0.2268
     69  CD2       -2.0660   40.1300   81.4640 C.ar  405  HIS405      0.1154
     70  CE1       -2.3180   42.2990   81.2900 C.ar  405  HIS405      0.1986
     71  NE2       -1.5610   41.2840   80.9180 N.ar  405  HIS405     -0.2212
     72  N         -1.0340   43.5910   85.3960 N.3   407  ASN407     -0.1240
     73  CA        -0.7940   44.8170   84.6500 C.3   407  ASN407      0.1653
     74  C          0.1840   45.7140   85.3960 C.2   407  ASN407      0.2266
     75  O          0.0670   45.8900   86.5950 O.2   407  ASN407     -0.2867
     76  CB        -2.1100   45.5440   84.3830 C.3   407  ASN407      0.1155
     77  CG        -1.9740   46.6590   83.3610 C.2   407  ASN407      0.2627
     78  OD1       -0.9280   47.2970   83.2400 O.2   407  ASN407     -0.2716
     79  ND2       -3.0440   46.9020   82.6210 N.am  407  ASN407     -0.0877
     80  N          2.8670   51.7130   82.7470 N.3   410  LYS410     -0.1231
     81  CA         3.6760   51.9780   81.5510 C.3   410  LYS410      0.1693
     82  C          4.3460   50.7090   81.0420 C.2   410  LYS410      0.2592
     83  O          5.3880   50.7570   80.3960 O.2   410  LYS410     -0.2718
     84  CB         4.7160   53.0790   81.8050 C.3   410  LYS410      0.0285
     85  CG         4.1450   54.4660   82.1460 C.3   410  LYS410      0.0035
     86  CD         3.7450   55.2600   80.9050 C.3   410  LYS410      0.0206
     87  CE         3.2940   56.6830   81.2690 C.3   410  LYS410      0.1093
     88  NZ         2.9050   57.5380   80.0960 N.3   410  LYS410     -0.1314
     89  N          3.7320   49.5750   81.3530 N.am  411  ASN411     -0.1974
     90  CA         4.2310   48.2630   80.9530 C.3   411  ASN411      0.1688
     91  C          5.6610   47.9260   81.4090 C.2   411  ASN411      0.2292
     92  O          6.2510   46.9530   80.9310 O.2   411  ASN411     -0.2864
     93  CB         4.0790   48.0800   79.4430 C.3   411  ASN411      0.1181
     94  CG         3.2000   46.9030   79.0910 C.2   411  ASN411      0.2629
     95  OD1        3.6450   45.9580   78.4450 O.2   411  ASN411     -0.2716
     96  ND2        1.9460   46.9450   79.5280 N.am  411  ASN411     -0.0877
     97  N         -0.3450   35.7530   84.7490 N.3   439  HIS439     -0.1241
     98  CA         0.4440   36.0270   83.5610 C.3   439  HIS439      0.1621
     99  C          0.5790   37.5190   83.3470 C.2   439  HIS439      0.2264
    100  O         -0.2550   38.2850   83.8060 O.2   439  HIS439     -0.2867
    101  CB        -0.1770   35.3580   82.3390 C.3   439  HIS439      0.0745
    102  CG        -1.5510   35.8500   82.0040 C.ar  439  HIS439      0.0817
    103  ND1       -1.7880   36.7910   81.0260 N.ar  439  HIS439     -0.2268
    104  CD2       -2.7630   35.5140   82.5020 C.ar  439  HIS439      0.1154
    105  CE1       -3.0850   37.0220   80.9410 C.ar  439  HIS439      0.1986
    106  NE2       -3.7000   36.2590   81.8250 N.ar  439  HIS439     -0.2212
    107  N          3.5440   40.7820   81.4300 N.3   441  HIS441     -0.1241
    108  CA         4.8850   41.1400   80.9780 C.3   441  HIS441      0.1621
    109  C          5.7360   41.6600   82.1280 C.2   441  HIS441      0.2264
    110  O          6.0820   42.8450   82.1800 O.2   441  HIS441     -0.2867
    111  CB         4.8300   42.1450   79.8210 C.3   441  HIS441      0.0745
    112  CG         4.0060   41.6750   78.6590 C.ar  441  HIS441      0.0817
    113  ND1        4.4940   40.8150   77.6980 N.ar  441  HIS441     -0.2268
    114  CD2        2.7220   41.9360   78.3120 C.ar  441  HIS441      0.1154
    115  CE1        3.5500   40.5740   76.8060 C.ar  441  HIS441      0.1986
    116  NE2        2.4650   41.2420   77.1550 N.ar  441  HIS441     -0.2212
    117  N          7.5000   42.8090   66.6250 N.3   472  TYR472     -0.1241
    118  CA         7.1490   43.8870   67.5440 C.3   472  TYR472      0.1605
    119  C          7.2340   45.2500   66.8730 C.2   472  TYR472      0.2264
    120  O          6.5040   46.1700   67.2310 O.2   472  TYR472     -0.2867
    121  CB         8.0530   43.8550   68.7680 C.3   472  TYR472      0.0534
    122  CG         7.8490   45.0140   69.7090 C.ar  472  TYR472     -0.0201
    123  CD1        6.7470   45.0640   70.5460 C.ar  472  TYR472     -0.0009
    124  CD2        8.7700   46.0500   69.7750 C.ar  472  TYR472     -0.0009
    125  CE1        6.5600   46.1180   71.4170 C.ar  472  TYR472      0.0417
    126  CE2        8.5930   47.1090   70.6440 C.ar  472  TYR472      0.0417
    127  CZ         7.4850   47.1390   71.4640 C.ar  472  TYR472      0.1957
    128  OH         7.3020   48.1930   72.3330 O.3   472  TYR472     -0.2866
    129  N          4.1760   45.6820   64.7980 N.3   475  PHE475     -0.1227
    130  CA         3.0210   45.6520   65.6780 C.3   475  PHE475      0.1736
    131  C          2.6630   47.0480   66.1530 C.2   475  PHE475      0.2595
    132  O          1.4970   47.4240   66.1680 O.2   475  PHE475     -0.2718
    133  CB         3.2910   44.7600   66.8750 C.3   475  PHE475      0.0547
    134  CG         2.2570   44.8700   67.9510 C.ar  475  PHE475     -0.0202
    135  CD1        1.0000   44.3270   67.7770 C.ar  475  PHE475     -0.0042
    136  CD2        2.5480   45.5060   69.1470 C.ar  475  PHE475     -0.0042
    137  CE1        0.0500   44.4200   68.7760 C.ar  475  PHE475     -0.0003
    138  CE2        1.6010   45.6020   70.1480 C.ar  475  PHE475     -0.0003
    139  CZ         0.3510   45.0600   69.9620 C.ar  475  PHE475     -0.0000
    140  N          3.6740   47.8150   66.5440 N.am  476  LEU476     -0.1980
    141  CA         3.4660   49.1760   67.0240 C.3   476  LEU476      0.1596
    142  C          3.0230   50.0930   65.8990 C.2   476  LEU476      0.2287
    143  O          2.4240   51.1400   66.1430 O.2   476  LEU476     -0.2864
    144  CB         4.7530   49.7330   67.6300 C.3   476  LEU476      0.0297
    145  CG         5.2790   49.1410   68.9340 C.3   476  LEU476      0.0022
    146  CD1        6.5750   49.8380   69.3190 C.3   476  LEU476      0.0001
    147  CD2        4.2450   49.2790   70.0330 C.3   476  LEU476      0.0001
    148  N         -6.4510   40.7830   66.8790 N.3   482  TYR482     -0.1227
    149  CA        -7.1390   40.3050   68.0700 C.3   482  TYR482      0.1736
    150  C         -7.9640   41.4430   68.6320 C.2   482  TYR482      0.2595
    151  O         -9.1300   41.2700   68.9750 O.2   482  TYR482     -0.2718
    152  CB        -6.1240   39.8350   69.1060 C.3   482  TYR482      0.0548
    153  CG        -6.7170   39.2720   70.3770 C.ar  482  TYR482     -0.0200
    154  CD1       -7.4030   38.0680   70.3730 C.ar  482  TYR482     -0.0009
    155  CD2       -6.5600   39.9300   71.5860 C.ar  482  TYR482     -0.0009
    156  CE1       -7.9300   37.5450   71.5360 C.ar  482  TYR482      0.0417
    157  CE2       -7.0820   39.4160   72.7530 C.ar  482  TYR482      0.0417
    158  CZ        -7.7650   38.2220   72.7210 C.ar  482  TYR482      0.1957
    159  OH        -8.2900   37.7000   73.8780 O.3   482  TYR482     -0.2866
    160  N         -7.3410   42.6120   68.7240 N.am  483  ARG483     -0.1980
    161  CA        -8.0290   43.8300   69.1260 C.3   483  ARG483      0.1597
    162  C         -7.6230   44.9280   68.1590 C.2   483  ARG483      0.2287
    163  O         -6.6690   45.6650   68.4140 O.2   483  ARG483     -0.2864
    164  CB        -7.6650   44.2150   70.5610 C.3   483  ARG483      0.0334
    165  CG        -8.0470   43.1630   71.5990 C.3   483  ARG483      0.0492
    166  CD        -7.4270   43.4560   72.9590 C.3   483  ARG483      0.2205
    167  NE        -8.1530   44.4950   73.6780 N.pl3 483  ARG483     -0.0865
    168  CZ        -7.6650   45.1600   74.7180 C.cat 483  ARG483      0.5346
    169  NH1       -6.4410   44.9010   75.1550 N.pl3 483  ARG483      0.1354
    170  NH2       -8.3950   46.0910   75.3160 N.pl3 483  ARG483      0.1354
    171  N         -7.6390   49.2170   68.9980 N.3   486  LEU486     -0.1231
    172  CA        -6.6490   50.0280   69.6790 C.3   486  LEU486      0.1693
    173  C         -5.7230   50.7000   68.6780 C.2   486  LEU486      0.2592
    174  O         -5.2070   50.0560   67.7670 O.2   486  LEU486     -0.2718
    175  CB        -5.8350   49.1690   70.6440 C.3   486  LEU486      0.0284
    176  CG        -6.6300   48.1390   71.4480 C.3   486  LEU486      0.0019
    177  CD1       -5.7030   47.2980   72.3160 C.3   486  LEU486      0.0001
    178  CD2       -7.7020   48.8100   72.2880 C.3   486  LEU486      0.0001
    179  N         -5.5260   52.0020   68.8410 N.am  487  ARG487     -0.1966
    180  CA        -4.5090   52.7040   68.0760 C.3   487  ARG487      0.1729
    181  C         -3.1800   52.5490   68.8090 C.2   487  ARG487      0.2616
    182  O         -3.0410   52.9600   69.9610 O.2   487  ARG487     -0.2715
    183  CB        -4.8760   54.1780   67.8890 C.3   487  ARG487      0.0348
    184  CG        -3.8650   54.9730   67.1490 C.3   487  ARG487      0.0492
    185  CD        -4.2430   56.4420   67.0720 C.3   487  ARG487      0.2205
    186  NE        -3.3520   57.1030   66.1250 N.pl3 487  ARG487     -0.0865
    187  CZ        -2.2360   57.7370   66.4510 C.cat 487  ARG487      0.5346
    188  NH1       -1.8490   57.8200   67.7210 N.pl3 487  ARG487      0.1354
    189  NH2       -1.4910   58.2580   65.4870 N.pl3 487  ARG487      0.1354
    190  N         -2.2110   51.9300   68.1440 N.am  488  ARG488     -0.1963
    191  CA        -0.9390   51.6000   68.7780 C.3   488  ARG488      0.1729
    192  C         -0.0380   52.8200   68.9200 C.2   488  ARG488      0.2616
    193  O         -0.2580   53.8480   68.2780 O.2   488  ARG488     -0.2715
    194  CB        -0.2330   50.4720   68.0210 C.3   488  ARG488      0.0348
    195  CG        -1.0640   49.1990   67.9240 C.3   488  ARG488      0.0492
    196  CD        -1.4750   48.7170   69.3030 C.3   488  ARG488      0.2205
    197  NE        -2.3640   47.5570   69.2680 N.pl3 488  ARG488     -0.0865
    198  CZ        -2.7040   46.8460   70.3420 C.cat 488  ARG488      0.5346
    199  NH1       -2.2280   47.1720   71.5370 N.pl3 488  ARG488      0.1354
    200  NH2       -3.5170   45.8060   70.2240 N.pl3 488  ARG488      0.1354
    201  N          0.9780   52.6900   69.7660 N.am  489  ARG489     -0.1977
    202  CA         1.7750   53.8300   70.2130 C.3   489  ARG489      0.1597
    203  C          2.4590   54.5880   69.0730 C.2   489  ARG489      0.2287
    204  O          2.2930   55.8050   68.9380 O.2   489  ARG489     -0.2864
    205  CB         2.8000   53.3760   71.2590 C.3   489  ARG489      0.0334
    206  CG         3.0880   54.4000   72.3480 C.3   489  ARG489      0.0492
    207  CD         3.7890   53.7440   73.5220 C.3   489  ARG489      0.2205
    208  NE         4.9160   52.9300   73.0800 N.pl3 489  ARG489     -0.0865
    209  CZ         6.1810   53.3320   73.1050 C.cat 489  ARG489      0.5346
    210  NH1        6.4820   54.5410   73.5630 N.pl3 489  ARG489      0.1354
    211  NH2        7.1430   52.5250   72.6760 N.pl3 489  ARG489      0.1354
    212  N         -3.7190   37.2340   67.4110 N.3   587  ARG587     -0.1245
    213  CA        -2.9300   38.4650   67.4210 C.3   587  ARG587      0.1563
    214  C         -1.8370   38.5210   66.3570 C.2   587  ARG587      0.2260
    215  O         -0.7060   38.9210   66.6340 O.2   587  ARG587     -0.2867
    216  CB        -2.3470   38.7460   68.8150 C.3   587  ARG587      0.0307
    217  CG        -2.1010   40.2220   69.0870 C.3   587  ARG587      0.0489
    218  CD        -1.4600   40.4750   70.4320 C.3   587  ARG587      0.2205
    219  NE        -2.3740   40.2430   71.5450 N.pl3 587  ARG587     -0.0865
    220  CZ        -3.2510   41.1370   71.9870 C.cat 587  ARG587      0.5346
    221  NH1       -3.3480   42.3210   71.4000 N.pl3 587  ARG587      0.1354
    222  NH2       -4.0340   40.8460   73.0150 N.pl3 587  ARG587      0.1354
@<TRIPOS>BOND
     1   129   130    1
     2   189   187    1
     3   130   131    1
     4   130   133    1
     5   142   143    2
     6   142   141    1
     7   186   187    2
     8   186   185    1
     9   131   132    2
    10   131   140   am
    11   214   215    2
    12   214   213    1
    13   187   188    1
    14   140   141    1
    15   117   118    1
    16   119   120    2
    17   119   118    1
    18   133   134    1
    19   148   149    1
    20   141   144    1
    21   185   184    1
    22   184   183    1
    23   212   213    1
    24   213   216    1
    25   118   121    1
    26   144   145    1
    27   174   173    2
    28   135   134   ar
    29   135   137   ar
    30   183   180    1
    31   195   194    1
    32   195   196    1
    33   134   136   ar
    34   194   191    1
    35   149   150    1
    36   149   152    1
    37   180   181    1
    38   180   179    1
    39   190   191    1
    40   190   181   am
    41   162   163    2
    42   162   161    1
    43   193   192    2
    44    27    26    1
    45    26    25    1
    46   150   160   am
    47   150   151    2
    48   173   179   am
    49   173   172    1
    50   160   161    1
    51   121   122    1
    52   137   139   ar
    53   191   192    1
    54   181   182    2
    55   216   217    1
    56   192   201   am
    57   145   146    1
    58   145   147    1
    59   204   203    2
    60   171   172    1
    61   203   202    1
    62   217   218    1
    63   152   153    1
    64   161   164    1
    65   136   138   ar
    66   197   196    1
    67   197   198    2
    68    22    21    2
    69    23    24    1
    70    23    20    1
    71   172   175    1
    72   122   124   ar
    73   122   123   ar
    74   201   202    1
    75   124   126   ar
    76    25    24    1
    77   139   138   ar
    78   202   205    1
    79   200   198    1
    80   198   199    1
    81   154   153   ar
    82   154   156   ar
    83   153   155   ar
    84    21    20    1
    85   218   219    1
    86    20    19    1
    87   123   125   ar
    88   164   165    1
    89   126   127   ar
    90   175   176    1
    91   205   206    1
    92   221   220    1
    93   125   127   ar
    94   176   178    1
    95   176   177    1
    96   127   128    1
    97   156   158   ar
    98   219   220    2
    99   155   157   ar
   100   165   166    1
   101    19    14   am
   102   220   222    1
   103    15    14    2
   104   206   207    1
   105    34    32    1
   106    32    33    1
   107    32    29    1
   108    14    13    1
   109   211   209    1
   110   158   157   ar
   111   158   159    1
   112   166   167    1
   113   208   209    2
   114   208   207    1
   115   209   210    1
   116    30    29    1
   117    30    31    2
   118    28    29    1
   119   167   168    2
   120    13    16    1
   121    13    12    1
   122    16    17    1
   123    48    47    2
   124    46    47    1
   125    46    43    1
   126    47    49   am
   127   168   169    1
   128   168   170    1
   129    12    18    1
   130    17    18    1
   131    43    44    1
   132    43    42    1
   133    11     9    1
   134    44    45    2
   135    42    37   am
   136    35    36    1
   137   115   116   ar
   138   115   113   ar
   139   116   114   ar
   140     9     8    2
   141     9    10    1
   142    37    36    1
   143    37    38    2
   144    36    39    1
   145     8     7    1
   146    39    40    1
   147    39    41    1
   148   113   112   ar
   149   114   112   ar
   150     3     4    2
   151     3     2    1
   152    95    94    2
   153     5     2    1
   154     5     6    1
   155   112   111    1
   156     7     6    1
   157     2     1    1
   158    54    55    1
   159    54    51    1
   160    94    93    1
   161    94    96   am
   162    56    55   ar
   163    56    58   ar
   164    93    90    1
   165    52    51    1
   166    52    53    2
   167    50    51    1
   168    55    57   ar
   169   111   108    1
   170    58    60   ar
   171    88    87    1
   172    83    82    2
   173    86    87    1
   174    86    85    1
   175    71    70   ar
   176    71    69   ar
   177    92    91    2
   178    57    59   ar
   179   105   103   ar
   180   105   106   ar
   181    90    89    1
   182    90    91    1
   183   108   107    1
   184   108   109    1
   185   103   102   ar
   186    82    89   am
   187    82    81    1
   188    60    59   ar
   189    60    61    1
   190    70    68   ar
   191    69    67   ar
   192    81    84    1
   193    81    80    1
   194    84    85    1
   195   106   104   ar
   196   102   101    1
   197   102   104   ar
   198    68    67   ar
   199   109   110    2
   200    67    66    1
   201   101    98    1
   202    79    77   am
   203    66    63    1
   204    78    77    2
   205    99    98    1
   206    99   100    2
   207    77    76    1
   208    98    97    1
   209    63    62    1
   210    63    64    1
   211    76    73    1
   212    73    72    1
   213    73    74    1
   214    64    65    2
   215    74    75    2
