@<TRIPOS>MOLECULE
tmp/4ne0D00.pdb
 117 107 0 0 0
SMALL
GASTEIGER

@<TRIPOS>ATOM
      1  N          8.0880   -0.1810   -2.7750 N.3   124  ILE124     -0.1245
      2  CA         8.4210   -1.5190   -2.3790 C.3   124  ILE124      0.1561
      3  C          9.4830   -2.1230   -3.3430 C.2   124  ILE124      0.2260
      4  O          9.1990   -2.4520   -4.5070 O.2   124  ILE124     -0.2867
      5  CB         7.2260   -2.4510   -2.4390 C.3   124  ILE124      0.0252
      6  CG1        6.0460   -1.9160   -1.6090 C.3   124  ILE124      0.0019
      7  CG2        7.6620   -3.8280   -1.9800 C.3   124  ILE124      0.0019
      8  CD1        4.8620   -2.8950   -1.6270 C.3   124  ILE124      0.0001
      9  N          8.3730   -4.5780    3.9050 N.3   136  GLY136     -0.1225
     10  CA         8.2000   -4.3310    2.4700 C.3   136  GLY136      0.1811
     11  C          9.4760   -4.4090    1.6430 C.2   136  GLY136      0.2280
     12  O          9.4470   -4.9870    0.5630 O.2   136  GLY136     -0.2866
     13  N          7.6950  -12.8260    3.8710 N.3   143  LEU143     -0.1245
     14  CA         6.9450  -11.7600    4.5180 C.3   143  LEU143      0.1561
     15  C          5.6170  -12.3970    4.9010 C.2   143  LEU143      0.2260
     16  O          4.8110  -12.7020    4.0190 O.2   143  LEU143     -0.2867
     17  CB         6.7350  -10.5630    3.5920 C.3   143  LEU143      0.0270
     18  CG         5.9430   -9.4720    4.3000 C.3   143  LEU143      0.0019
     19  CD1        6.9230   -8.6250    5.1170 C.3   143  LEU143      0.0001
     20  CD2        5.1640   -8.6240    3.2940 C.3   143  LEU143      0.0001
     21  N         -0.5230  -10.8610    6.5720 N.3   146  HIS146     -0.1241
     22  CA        -1.1530  -10.0140    7.5880 C.3   146  HIS146      0.1621
     23  C         -2.1130   -9.0250    6.9960 C.2   146  HIS146      0.2264
     24  O         -1.9930   -8.6640    5.8470 O.2   146  HIS146     -0.2867
     25  CB        -0.0830   -9.2290    8.2990 C.3   146  HIS146      0.0745
     26  CG         0.7250   -8.3900    7.3730 C.ar  146  HIS146      0.0817
     27  ND1        1.6590   -8.9090    6.5780 N.ar  146  HIS146     -0.2268
     28  CD2        0.6550   -7.0330    7.0700 C.ar  146  HIS146      0.1154
     29  CE1        2.2070   -7.9340    5.8350 C.ar  146  HIS146      0.1986
     30  NE2        1.5980   -6.7860    6.1450 N.ar  146  HIS146     -0.2212
     31  N         -3.1070   -5.1750    6.8370 N.3   148  GLU148     -0.1245
     32  CA        -2.1990   -4.0160    6.9580 C.3   148  GLU148      0.1567
     33  C         -2.5730   -3.2500    8.2080 C.2   148  GLU148      0.2260
     34  O         -3.7730   -3.0210    8.4750 O.2   148  GLU148     -0.2867
     35  CB        -2.2410   -3.0840    5.7510 C.3   148  GLU148      0.0388
     36  CG        -1.1380   -2.0040    5.7380 C.3   148  GLU148      0.1160
     37  CD         0.2960   -2.6590    5.7300 C.2   148  GLU148      0.3649
     38  OE1        0.5240   -3.7840    5.1470 O.co2 148  GLU148     -0.2457
     39  OE2        1.2120   -2.0640    6.3550 O.co2 148  GLU148     -0.2457
     40  N         -5.6970   -1.4500   -0.0800 N.3   159  LEU159     -0.1245
     41  CA        -4.3330   -1.1420   -0.4630 C.3   159  LEU159      0.1561
     42  C         -4.2470   -1.2150   -1.9630 C.2   159  LEU159      0.2260
     43  O         -4.8290   -2.1230   -2.5670 O.2   159  LEU159     -0.2867
     44  CB        -3.4010   -2.2290    0.0710 C.3   159  LEU159      0.0270
     45  CG        -2.4550   -2.0500    1.2170 C.3   159  LEU159      0.0019
     46  CD1       -3.1600   -1.4300    2.4030 C.3   159  LEU159      0.0001
     47  CD2       -1.8660   -3.4200    1.5520 C.3   159  LEU159      0.0001
     48  N         -1.4110   -1.6960   -4.8760 N.3   161  LEU161     -0.1245
     49  CA        -0.0660   -2.0390   -5.3390 C.3   161  LEU161      0.1561
     50  C          0.0520   -2.0200   -6.8790 C.2   161  LEU161      0.2260
     51  O         -0.5930   -2.7960   -7.6030 O.2   161  LEU161     -0.2867
     52  CB         0.3580   -3.3890   -4.7810 C.3   161  LEU161      0.0270
     53  CG         0.1450   -3.7280   -3.3050 C.3   161  LEU161      0.0019
     54  CD1        0.3930   -5.2260   -3.1640 C.3   161  LEU161      0.0001
     55  CD2        1.1530   -3.0100   -2.4300 C.3   161  LEU161      0.0001
     56  N          2.7330  -11.9730   -4.7120 N.3   172  THR172     -0.1218
     57  CA         2.1220  -11.3900   -3.5330 C.3   172  THR172      0.1862
     58  C          1.2810  -12.5810   -3.1010 C.2   172  THR172      0.2287
     59  O          0.8360  -13.3380   -3.9510 O.2   172  THR172     -0.2866
     60  CB         1.2610  -10.1650   -3.9520 C.3   172  THR172      0.1770
     61  OG1        2.1210   -9.1910   -4.5510 O.3   172  THR172     -0.2211
     62  CG2        0.5050   -9.5450   -2.7350 C.3   172  THR172      0.0375
     63  N         -2.3960  -10.2370    3.3370 N.3   275  HIS275     -0.1226
     64  CA        -1.4590  -10.2930    2.2550 C.3   275  HIS275      0.1752
     65  C         -0.0300  -10.4150    2.7380 C.2   275  HIS275      0.2597
     66  O          0.3230   -9.9720    3.8380 O.2   275  HIS275     -0.2718
     67  CB        -1.6010   -9.0410    1.4150 C.3   275  HIS275      0.0759
     68  CG        -1.0680   -7.8270    2.1100 C.ar  275  HIS275      0.0818
     69  ND1       -1.7540   -7.2030    3.0790 N.ar  275  HIS275     -0.2268
     70  CD2        0.1740   -7.2130    2.0490 C.ar  275  HIS275      0.1154
     71  CE1       -1.0110   -6.1950    3.5670 C.ar  275  HIS275      0.1986
     72  NE2        0.1650   -6.2080    2.9440 N.ar  275  HIS275     -0.2212
     73  N          0.8120  -11.0060    1.8950 N.am  276  GLY276     -0.1942
     74  CA         2.1740  -11.3300    2.2530 C.3   276  GLY276      0.2014
     75  C          2.9830  -11.2400    0.9880 C.2   276  GLY276      0.2638
     76  O          2.5100  -10.6790   -0.0070 O.2   276  GLY276     -0.2714
     77  N          4.2120  -11.7550    1.0300 N.am  277  ARG277     -0.1977
     78  CA         5.0610  -11.8460   -0.1330 C.3   277  ARG277      0.1597
     79  C          6.0320  -13.0510    0.0630 C.2   277  ARG277      0.2287
     80  O          6.6320  -13.2310    1.1680 O.2   277  ARG277     -0.2864
     81  CB         5.8210  -10.5380   -0.3580 C.3   277  ARG277      0.0334
     82  CG         6.4700  -10.4400   -1.7330 C.3   277  ARG277      0.0492
     83  CD         7.8760   -9.8360   -1.6430 C.3   277  ARG277      0.2205
     84  NE         8.6890  -10.6820   -0.7930 N.pl3 277  ARG277     -0.0865
     85  CZ         9.2330  -10.3400    0.3820 C.cat 277  ARG277      0.5346
     86  NH1        9.1090   -9.1000    0.8950 N.pl3 277  ARG277      0.1354
     87  NH2        9.9130  -11.2750    1.0570 N.pl3 277  ARG277      0.1354
     88  N         12.5440   -6.1880   -8.6540 N.3   289  ARG289     -0.1245
     89  CA        11.0930   -6.0540   -8.5120 C.3   289  ARG289      0.1563
     90  C         10.8560   -4.7000   -7.8760 C.2   289  ARG289      0.2260
     91  O         11.4850   -4.3540   -6.8760 O.2   289  ARG289     -0.2867
     92  CB        10.5290   -7.1700   -7.6150 C.3   289  ARG289      0.0307
     93  CG         9.0220   -7.1550   -7.3270 C.3   289  ARG289      0.0489
     94  CD         8.7270   -8.2860   -6.3340 C.3   289  ARG289      0.2205
     95  NE         7.3180   -8.6650   -6.1570 N.pl3 289  ARG289     -0.0865
     96  CZ         6.5820   -8.3290   -5.0950 C.cat 289  ARG289      0.5346
     97  NH1        7.1240   -7.5790   -4.1290 N.pl3 289  ARG289      0.1354
     98  NH2        5.3140   -8.7300   -5.0010 N.pl3 289  ARG289      0.1354
     99  N          7.5320   -2.2260   -6.8220 N.3   291  LEU291     -0.1245
    100  CA         6.1090   -1.8190   -6.8350 C.3   291  LEU291      0.1561
    101  C          5.9060   -0.4910   -6.1220 C.2   291  LEU291      0.2260
    102  O          6.7590   -0.0160   -5.3650 O.2   291  LEU291     -0.2867
    103  CB         5.1350   -2.8750   -6.2780 C.3   291  LEU291      0.0270
    104  CG         5.3790   -4.3840   -6.3430 C.3   291  LEU291      0.0019
    105  CD1        4.2650   -5.1970   -5.6710 C.3   291  LEU291      0.0001
    106  CD2        5.6870   -4.9130   -7.7320 C.3   291  LEU291      0.0001
    107  N          3.0720    1.6070   -3.7350 N.3   293  ARG293     -0.1245
    108  CA         1.9820    1.3120   -2.8940 C.3   293  ARG293      0.1563
    109  C          1.2940    2.5680   -2.3960 C.2   293  ARG293      0.2260
    110  O          1.9760    3.5380   -2.0260 O.2   293  ARG293     -0.2867
    111  CB         2.4370    0.4600   -1.7380 C.3   293  ARG293      0.0307
    112  CG         1.2520   -0.3410   -1.2730 C.3   293  ARG293      0.0489
    113  CD         1.1010   -0.1520    0.1930 C.3   293  ARG293      0.2205
    114  NE         1.5280   -1.3330    0.9060 N.pl3 293  ARG293     -0.0865
    115  CZ         1.8380   -1.3450    2.1850 C.cat 293  ARG293      0.5346
    116  NH1        1.8410   -0.2150    2.9030 N.pl3 293  ARG293      0.1354
    117  NH2        2.1400   -2.5110    2.7280 N.pl3 293  ARG293      0.1354
@<TRIPOS>BOND
     1    88    89    1
     2    89    90    1
     3    89    92    1
     4    90    91    2
     5   106   104    1
     6    92    93    1
     7    51    50    2
     8    93    94    1
     9    50    49    1
    10   100    99    1
    11   100   103    1
    12   100   101    1
    13   104   103    1
    14   104   105    1
    15    94    95    1
    16    95    96    2
    17   101   102    2
    18    49    48    1
    19    49    52    1
    20    96    98    1
    21    96    97    1
    22    52    53    1
    23    56    57    1
    24    61    60    1
    25     4     3    2
    26    60    57    1
    27    60    62    1
    28    59    58    2
    29   107   108    1
    30    57    58    1
    31     3     2    1
    32    53    54    1
    33    53    55    1
    34   108   109    1
    35   108   111    1
    36     1     2    1
    37    43    42    2
    38     5     2    1
    39     5     7    1
    40     5     6    1
    41   109   110    2
    42    42    41    1
    43   111   112    1
    44    82    83    1
    45    82    81    1
    46    83    84    1
    47     8     6    1
    48   112   113    1
    49    84    85    2
    50    41    40    1
    51    41    44    1
    52    81    78    1
    53    78    79    1
    54    78    77    1
    55    76    75    2
    56    79    80    2
    57    44    45    1
    58   113   114    1
    59    85    86    1
    60    85    87    1
    61    12    11    2
    62   114   115    2
    63    75    77   am
    64    75    74    1
    65    45    47    1
    66    45    46    1
    67    67    68    1
    68    67    64    1
    69    11    10    1
    70    73    74    1
    71    73    65   am
    72    70    68   ar
    73    70    72   ar
    74    68    69   ar
    75   115   117    1
    76   115   116    1
    77    64    65    1
    78    64    63    1
    79    10     9    1
    80    65    66    2
    81    72    71   ar
    82    69    71   ar
    83    20    18    1
    84    17    18    1
    85    17    14    1
    86    13    14    1
    87    16    15    2
    88    18    19    1
    89    14    15    1
    90    38    37   ar
    91    37    36    1
    92    37    39   ar
    93    36    35    1
    94    35    32    1
    95    29    30   ar
    96    29    27   ar
    97    24    23    2
    98    30    28   ar
    99    21    22    1
   100    27    26   ar
   101    31    32    1
   102    32    33    1
   103    23    22    1
   104    28    26   ar
   105    26    25    1
   106    22    25    1
   107    33    34    2
