@<TRIPOS>MOLECULE
tmp/4ne0D01.pdb
 168 166 0 0 0
SMALL
GASTEIGER

@<TRIPOS>ATOM
      1  N          6.3210    5.9350    8.0740 N.3   115  GLN115     -0.1245
      2  CA         6.6330    5.1140    6.9290 C.3   115  GLN115      0.1566
      3  C          7.1560    5.9500    5.7670 C.2   115  GLN115      0.2260
      4  O          6.4240    6.7910    5.2060 O.2   115  GLN115     -0.2867
      5  CB         5.4150    4.3160    6.5060 C.3   115  GLN115      0.0367
      6  CG         5.7650    3.0780    5.7110 C.3   115  GLN115      0.0905
      7  CD         4.8090    1.9350    6.0040 C.2   115  GLN115      0.2608
      8  OE1        4.3180    1.2810    5.0760 O.2   115  GLN115     -0.2717
      9  NE2        4.5250    1.6960    7.3010 N.am  115  GLN115     -0.0878
     10  N         11.1470   -8.7670    8.0370 N.3   134  GLN134     -0.1231
     11  CA         9.7310   -8.8790    7.7200 C.3   134  GLN134      0.1698
     12  C          9.1960   -7.5070    7.3360 C.2   134  GLN134      0.2592
     13  O          8.2360   -7.0160    7.9690 O.2   134  GLN134     -0.2718
     14  CB         8.9810   -9.3060    8.9770 C.3   134  GLN134      0.0381
     15  CG         9.2090  -10.7360    9.3890 C.3   134  GLN134      0.0905
     16  CD         8.3890  -11.6400    8.5380 C.2   134  GLN134      0.2608
     17  OE1        8.9380  -12.3880    7.7240 O.2   134  GLN134     -0.2717
     18  NE2        7.0620  -11.5390    8.6620 N.am  134  GLN134     -0.0878
     19  N          9.8220   -6.8830    6.3310 N.am  135  LEU135     -0.1966
     20  CA         9.3990   -5.5790    5.8340 C.3   135  LEU135      0.1728
     21  C          9.1000   -5.5900    4.3460 C.2   135  LEU135      0.2616
     22  O          9.5430   -6.4890    3.5930 O.2   135  LEU135     -0.2715
     23  CB        10.4540   -4.4980    6.1550 C.3   135  LEU135      0.0311
     24  CG        10.6660   -4.0930    7.6310 C.3   135  LEU135      0.0022
     25  CD1       11.8120   -3.0980    7.8220 C.3   135  LEU135      0.0001
     26  CD2        9.3930   -3.5630    8.2870 C.3   135  LEU135      0.0001
     27  N          8.3730   -4.5780    3.9050 N.am  136  GLY136     -0.1955
     28  CA         8.2000   -4.3310    2.4700 C.3   136  GLY136      0.1869
     29  C          9.4760   -4.4090    1.6430 C.2   136  GLY136      0.2309
     30  O          9.4470   -4.9870    0.5630 O.2   136  GLY136     -0.2863
     31  N          7.6950  -12.8260    3.8710 N.3   143  LEU143     -0.1231
     32  CA         6.9450  -11.7600    4.5180 C.3   143  LEU143      0.1693
     33  C          5.6170  -12.3970    4.9010 C.2   143  LEU143      0.2593
     34  O          4.8110  -12.7020    4.0190 O.2   143  LEU143     -0.2718
     35  CB         6.7350  -10.5630    3.5920 C.3   143  LEU143      0.0284
     36  CG         5.9430   -9.4720    4.3000 C.3   143  LEU143      0.0019
     37  CD1        6.9230   -8.6250    5.1170 C.3   143  LEU143      0.0001
     38  CD2        5.1640   -8.6240    3.2940 C.3   143  LEU143      0.0001
     39  N          5.4130  -12.6440    6.2030 N.am  144  THR144     -0.1939
     40  CA         4.3240  -13.5090    6.5970 C.3   144  THR144      0.2028
     41  C          3.0160  -12.7260    6.4100 C.2   144  THR144      0.2642
     42  O          2.9710  -11.4930    6.5200 O.2   144  THR144     -0.2714
     43  CB         4.4560  -14.0670    8.0440 C.3   144  THR144      0.1808
     44  OG1        4.7010  -12.9970    8.9770 O.3   144  THR144     -0.2208
     45  CG2        5.5680  -15.1760    8.1670 C.3   144  THR144      0.0379
     46  N          1.9330  -13.4410    6.1450 N.am  145  TRP145     -0.1959
     47  CA         0.7480  -12.7180    5.7790 C.3   145  TRP145      0.1771
     48  C          0.1320  -11.9570    6.9150 C.2   145  TRP145      0.2619
     49  O          0.2350  -12.3460    8.0900 O.2   145  TRP145     -0.2715
     50  CB        -0.2490  -13.6280    5.0850 C.3   145  TRP145      0.0590
     51  CG        -0.6240  -14.8790    5.7990 C.ar  145  TRP145      0.0006
     52  CD1       -0.1790  -16.1940    5.5150 C.ar  145  TRP145      0.0946
     53  CD2       -1.6000  -15.0300    6.8890 C.ar  145  TRP145      0.0152
     54  NE1       -0.8360  -17.1040    6.3110 N.ar  145  TRP145     -0.2442
     55  CE2       -1.6910  -16.4800    7.1600 C.ar  145  TRP145      0.0810
     56  CE3       -2.3700  -14.1650    7.6210 C.ar  145  TRP145      0.0012
     57  CZ2       -2.4950  -16.9840    8.1420 C.ar  145  TRP145      0.0191
     58  CZ3       -3.2280  -14.6970    8.5730 C.ar  145  TRP145      0.0001
     59  CH2       -3.2710  -16.0710    8.8430 C.ar  145  TRP145      0.0015
     60  N         -0.5230  -10.8610    6.5720 N.am  146  HIS146     -0.1973
     61  CA        -1.1530  -10.0140    7.5880 C.3   146  HIS146      0.1656
     62  C         -2.1130   -9.0250    6.9960 C.2   146  HIS146      0.2291
     63  O         -1.9930   -8.6640    5.8470 O.2   146  HIS146     -0.2864
     64  CB        -0.0830   -9.2290    8.2990 C.3   146  HIS146      0.0771
     65  CG         0.7250   -8.3900    7.3730 C.ar  146  HIS146      0.0820
     66  ND1        1.6590   -8.9090    6.5780 N.ar  146  HIS146     -0.2267
     67  CD2        0.6550   -7.0330    7.0700 C.ar  146  HIS146      0.1154
     68  CE1        2.2070   -7.9340    5.8350 C.ar  146  HIS146      0.1986
     69  NE2        1.5980   -6.7860    6.1450 N.ar  146  HIS146     -0.2212
     70  N         -3.1070   -5.1750    6.8370 N.3   148  GLU148     -0.1231
     71  CA        -2.1990   -4.0160    6.9580 C.3   148  GLU148      0.1699
     72  C         -2.5730   -3.2500    8.2080 C.2   148  GLU148      0.2592
     73  O         -3.7730   -3.0210    8.4750 O.2   148  GLU148     -0.2718
     74  CB        -2.2410   -3.0840    5.7510 C.3   148  GLU148      0.0402
     75  CG        -1.1380   -2.0040    5.7380 C.3   148  GLU148      0.1161
     76  CD         0.2960   -2.6590    5.7300 C.2   148  GLU148      0.3649
     77  OE1        0.5240   -3.7840    5.1470 O.co2 148  GLU148     -0.2457
     78  OE2        1.2120   -2.0640    6.3550 O.co2 148  GLU148     -0.2457
     79  N         -1.5480   -2.7980    8.9200 N.am  149  ALA149     -0.1980
     80  CA        -1.6800   -2.1350   10.2130 C.3   149  ALA149      0.1597
     81  C         -2.7700   -2.7140   11.1160 C.2   149  ALA149      0.2287
     82  O         -3.6040   -1.9950   11.6850 O.2   149  ALA149     -0.2864
     83  CB        -1.8530   -0.6380   10.0000 C.3   149  ALA149      0.0319
     84  N          3.6930   -3.3940   14.4270 N.3   200  ASP200     -0.1225
     85  CA         5.0200   -3.7720   13.9610 C.3   200  ASP200      0.1805
     86  C          6.0220   -2.6750   14.2270 C.2   200  ASP200      0.2598
     87  O          5.6890   -1.5570   14.6540 O.2   200  ASP200     -0.2718
     88  CB         5.0770   -4.2390   12.4850 C.3   200  ASP200      0.1424
     89  CG         4.2010   -3.4150   11.5520 C.2   200  ASP200      0.3668
     90  OD1        2.9490   -3.3440   11.7580 O.co2 200  ASP200     -0.2456
     91  OD2        4.7850   -2.8590   10.6040 O.co2 200  ASP200     -0.2456
     92  N          7.2610   -3.0940   14.0430 N.am  201  GLU201     -0.1965
     93  CA         8.4660   -2.3110   14.0590 C.3   201  GLU201      0.1733
     94  C          8.4520   -1.2710   12.9310 C.2   201  GLU201      0.2617
     95  O          9.5080   -0.8290   12.4870 O.2   201  GLU201     -0.2715
     96  CB         9.6090   -3.3100   13.8140 C.3   201  GLU201      0.0429
     97  CG         9.2070   -4.3160   12.7200 C.3   201  GLU201      0.1163
     98  CD        10.2560   -5.3610   12.3640 C.2   201  GLU201      0.3649
     99  OE1        9.8990   -6.5690   12.3260 O.co2 201  GLU201     -0.2457
    100  OE2       11.4200   -4.9750   12.0900 O.co2 201  GLU201     -0.2457
    101  N          7.2790   -0.9160   12.4260 N.am  202  SER202     -0.1936
    102  CA         7.2130    0.1180   11.4040 C.3   202  SER202      0.2055
    103  C          6.1500    1.1690   11.7060 C.2   202  SER202      0.2643
    104  O          5.7650    1.9430   10.8210 O.2   202  SER202     -0.2714
    105  CB         7.0930   -0.4820    9.9910 C.3   202  SER202      0.2130
    106  OG         5.7520   -0.6800    9.5810 O.3   202  SER202     -0.2179
    107  N          5.7070    1.1890   12.9680 N.am  203  HIS203     -0.1973
    108  CA         4.8290    2.2250   13.5030 C.3   203  HIS203      0.1656
    109  C          5.2880    2.6140   14.8690 C.2   203  HIS203      0.2291
    110  O          6.1680    1.9720   15.4530 O.2   203  HIS203     -0.2864
    111  CB         3.3700    1.7510   13.5590 C.3   203  HIS203      0.0771
    112  CG         2.7830    1.3630   12.2190 C.ar  203  HIS203      0.0820
    113  ND1        2.9990    0.1520   11.6470 N.ar  203  HIS203     -0.2267
    114  CD2        1.9460    2.0650   11.3430 C.ar  203  HIS203      0.1154
    115  CE1        2.3370    0.0790   10.4630 C.ar  203  HIS203      0.1986
    116  NE2        1.6990    1.2540   10.2720 N.ar  203  HIS203     -0.2212
    117  N         -2.7690  -10.5380   12.2490 N.3   227  ASP227     -0.1239
    118  CA        -1.3190  -10.3210   12.0160 C.3   227  ASP227      0.1674
    119  C         -0.5610  -11.3110   12.9350 C.2   227  ASP227      0.2266
    120  O         -0.2380  -10.9970   14.1120 O.2   227  ASP227     -0.2867
    121  CB        -0.9670   -8.8560   12.3080 C.3   227  ASP227      0.1410
    122  CG         0.4780   -8.4910   11.8890 C.2   227  ASP227      0.3668
    123  OD1        1.2430   -9.3900   11.4120 O.co2 227  ASP227     -0.2456
    124  OD2        0.8510   -7.3030   12.0780 O.co2 227  ASP227     -0.2456
    125  N          2.3470  -12.7050   13.1610 N.3   229  TYR229     -0.1227
    126  CA         3.7000  -12.4290   13.6320 C.3   229  TYR229      0.1736
    127  C          3.6140  -11.5430   14.8770 C.2   229  TYR229      0.2595
    128  O          4.5060  -11.6150   15.7510 O.2   229  TYR229     -0.2718
    129  CB         4.5450  -11.7760   12.5170 C.3   229  TYR229      0.0548
    130  CG         6.0600  -11.8550   12.7440 C.ar  229  TYR229     -0.0200
    131  CD1        6.7070  -13.0930   12.9720 C.ar  229  TYR229     -0.0009
    132  CD2        6.8240  -10.7350   12.7410 C.ar  229  TYR229     -0.0009
    133  CE1        8.0910  -13.1880   13.1790 C.ar  229  TYR229      0.0417
    134  CE2        8.2250  -10.7970   12.9670 C.ar  229  TYR229      0.0417
    135  CZ         8.8440  -12.0300   13.1830 C.ar  229  TYR229      0.1957
    136  OH        10.1990  -12.0960   13.3840 O.3   229  TYR229     -0.2866
    137  N          2.5350  -10.7390   14.9630 N.am  230  PHE230     -0.1976
    138  CA         2.4010   -9.7160   16.0120 C.3   230  PHE230      0.1639
    139  C          1.2330   -9.9900   16.9400 C.2   230  PHE230      0.2290
    140  O          0.6900   -9.1220   17.6320 O.2   230  PHE230     -0.2864
    141  CB         2.4050   -8.3060   15.4470 C.3   230  PHE230      0.0560
    142  CG         3.7470   -7.8970   14.8590 C.ar  230  PHE230     -0.0200
    143  CD1        4.0040   -8.0680   13.5110 C.ar  230  PHE230     -0.0042
    144  CD2        4.7720   -7.3700   15.6940 C.ar  230  PHE230     -0.0042
    145  CE1        5.2600   -7.7310   12.9800 C.ar  230  PHE230     -0.0003
    146  CE2        6.0160   -7.0240   15.1560 C.ar  230  PHE230     -0.0003
    147  CZ         6.2430   -7.1770   13.7890 C.ar  230  PHE230     -0.0000
    148  N         -2.3960  -10.2370    3.3370 N.3   275  HIS275     -0.1241
    149  CA        -1.4590  -10.2930    2.2550 C.3   275  HIS275      0.1621
    150  C         -0.0300  -10.4150    2.7380 C.2   275  HIS275      0.2264
    151  O          0.3230   -9.9720    3.8380 O.2   275  HIS275     -0.2867
    152  CB        -1.6010   -9.0410    1.4150 C.3   275  HIS275      0.0745
    153  CG        -1.0680   -7.8270    2.1100 C.ar  275  HIS275      0.0817
    154  ND1       -1.7540   -7.2030    3.0790 N.ar  275  HIS275     -0.2268
    155  CD2        0.1740   -7.2130    2.0490 C.ar  275  HIS275      0.1154
    156  CE1       -1.0110   -6.1950    3.5670 C.ar  275  HIS275      0.1986
    157  NE2        0.1650   -6.2080    2.9440 N.ar  275  HIS275     -0.2212
    158  N          3.0720    1.6070   -3.7350 N.3   293  ARG293     -0.1245
    159  CA         1.9820    1.3120   -2.8940 C.3   293  ARG293      0.1563
    160  C          1.2940    2.5680   -2.3960 C.2   293  ARG293      0.2260
    161  O          1.9760    3.5380   -2.0260 O.2   293  ARG293     -0.2867
    162  CB         2.4370    0.4600   -1.7380 C.3   293  ARG293      0.0307
    163  CG         1.2520   -0.3410   -1.2730 C.3   293  ARG293      0.0489
    164  CD         1.1010   -0.1520    0.1930 C.3   293  ARG293      0.2205
    165  NE         1.5280   -1.3330    0.9060 N.pl3 293  ARG293     -0.0865
    166  CZ         1.8380   -1.3450    2.1850 C.cat 293  ARG293      0.5346
    167  NH1        1.8410   -0.2150    2.9030 N.pl3 293  ARG293      0.1354
    168  NH2        2.1400   -2.5110    2.7280 N.pl3 293  ARG293      0.1354
@<TRIPOS>BOND
     1   158   159    1
     2   159   160    1
     3   159   162    1
     4   160   161    2
     5   162   163    1
     6   163   164    1
     7   164   165    1
     8    30    29    2
     9   165   166    2
    10   152   153    1
    11   152   149    1
    12    29    28    1
    13   155   153   ar
    14   155   157   ar
    15   153   154   ar
    16   166   168    1
    17   166   167    1
    18   149   150    1
    19   149   148    1
    20    28    27    1
    21   150   151    2
    22   157   156   ar
    23   154   156   ar
    24    38    36    1
    25    35    36    1
    26    35    32    1
    27    22    21    2
    28    31    32    1
    29    27    21   am
    30    34    33    2
    31    36    37    1
    32    21    20    1
    33    32    33    1
    34    33    39   am
    35     8     7    2
    36    50    47    1
    37    50    51    1
    38    77    76   ar
    39     4     3    2
    40    52    51   ar
    41    52    54   ar
    42     6     7    1
    43     6     5    1
    44    76    75    1
    45    76    78   ar
    46    75    74    1
    47    74    71    1
    48     3     2    1
    49    47    46    1
    50    47    48    1
    51    51    53   ar
    52    20    23    1
    53    20    19    1
    54    68    69   ar
    55    68    66   ar
    56    63    62    2
    57     7     9   am
    58    69    67   ar
    59    46    41   am
    60    23    24    1
    61    39    40    1
    62    54    55   ar
    63    19    12   am
    64    41    42    2
    65    41    40    1
    66     5     2    1
    67    60    48   am
    68    60    61    1
    69    66    65   ar
    70    40    43    1
    71    70    71    1
    72    53    55   ar
    73    53    56   ar
    74    48    49    2
    75     2     1    1
    76    71    72    1
    77    62    61    1
    78    67    65   ar
    79    55    57   ar
    80    12    11    1
    81    12    13    2
    82    65    64    1
    83    61    64    1
    84    56    58   ar
    85    24    25    1
    86    24    26    1
    87    11    10    1
    88    11    14    1
    89    17    16    2
    90    43    45    1
    91    43    44    1
    92    57    59   ar
    93    72    73    2
    94    72    79   am
    95    16    18   am
    96    16    15    1
    97    58    59   ar
    98    79    80    1
    99    14    15    1
   100   106   105    1
   101   105   102    1
   102    83    80    1
   103    80    81    1
   104   116   115   ar
   105   116   114   ar
   106   115   113   ar
   107    91    89   ar
   108   104   103    2
   109    81    82    2
   110   114   112   ar
   111   102   103    1
   112   102   101    1
   113   123   122   ar
   114    89    90   ar
   115    89    88    1
   116   113   112   ar
   117   103   107   am
   118   122   124   ar
   119   122   121    1
   120   118   117    1
   121   118   121    1
   122   118   119    1
   123   100    98   ar
   124   112   111    1
   125    99    98   ar
   126    98    97    1
   127   101    94   am
   128    88    85    1
   129    95    94    2
   130   129   130    1
   131   129   126    1
   132    97    96    1
   133   132   130   ar
   134   132   134   ar
   135   130   131   ar
   136    94    93    1
   137   119   120    2
   138   134   135   ar
   139   107   108    1
   140   131   133   ar
   141   145   143   ar
   142   145   147   ar
   143   125   126    1
   144   133   135   ar
   145   135   136    1
   146   108   111    1
   147   108   109    1
   148   143   142   ar
   149   126   127    1
   150   147   146   ar
   151    96    93    1
   152    85    86    1
   153    85    84    1
   154    92    93    1
   155    92    86   am
   156    86    87    2
   157   142   141    1
   158   142   144   ar
   159   109   110    2
   160   127   137   am
   161   127   128    2
   162   137   138    1
   163   146   144   ar
   164   141   138    1
   165   138   139    1
   166   139   140    2
