@<TRIPOS>MOLECULE
tmp/4ne2A01.pdb
 211 203 0 0 0
SMALL
GASTEIGER

@<TRIPOS>ATOM
      1  N        -34.6650  -26.1540   13.5460 N.3    85  VAL85      -0.1245
      2  CA       -34.3070  -24.7520   13.5410 C.3    85  VAL85       0.1561
      3  C        -35.5200  -24.0170   14.1280 C.2    85  VAL85       0.2260
      4  O        -36.6790  -24.3270   13.7920 O.2    85  VAL85      -0.2867
      5  CB       -34.0310  -24.2730   12.0850 C.3    85  VAL85       0.0252
      6  CG1      -33.7600  -22.7770   12.0280 C.3    85  VAL85       0.0019
      7  CG2      -32.8650  -25.0430   11.4700 C.3    85  VAL85       0.0019
      8  N        -33.9180  -24.6710   20.8510 N.3    89  LYS89      -0.1245
      9  CA       -32.8270  -25.4760   21.4000 C.3    89  LYS89       0.1561
     10  C        -31.8920  -24.6110   22.2320 C.2    89  LYS89       0.2260
     11  O        -31.5520  -24.9730   23.3410 O.2    89  LYS89      -0.2867
     12  CB       -32.0170  -26.1740   20.3110 C.3    89  LYS89       0.0271
     13  CG       -32.7710  -27.2360   19.5150 C.3    89  LYS89       0.0035
     14  CD       -31.8390  -27.8430   18.4800 C.3    89  LYS89       0.0206
     15  CE       -31.3440  -26.8100   17.4660 C.3    89  LYS89       0.1093
     16  NZ       -32.4520  -26.1460   16.7130 N.3    89  LYS89      -0.1314
     17  N        -23.4510  -25.5650   15.4760 N.3   115  ASP115     -0.1239
     18  CA       -23.3390  -24.5530   14.4180 C.3   115  ASP115      0.1674
     19  C        -21.8990  -24.3550   14.0000 C.2   115  ASP115      0.2266
     20  O        -21.6020  -24.2290   12.8170 O.2   115  ASP115     -0.2867
     21  CB       -23.8180  -23.1920   14.9440 C.3   115  ASP115      0.1410
     22  CG       -25.3230  -23.1260   15.1530 C.2   115  ASP115      0.3668
     23  OD1      -26.0210  -24.1570   14.9970 O.co2 115  ASP115     -0.2456
     24  OD2      -25.8110  -22.0300   15.4910 O.co2 115  ASP115     -0.2456
     25  N        -20.0920  -26.4330   11.2040 N.3   118  LEU118     -0.1245
     26  CA       -20.3690  -26.2940    9.7690 C.3   118  LEU118      0.1561
     27  C        -19.0570  -26.0540    9.0200 C.2   118  LEU118      0.2260
     28  O        -18.1050  -25.4830    9.5640 O.2   118  LEU118     -0.2867
     29  CB       -21.3480  -25.1440    9.5020 C.3   118  LEU118      0.0270
     30  CG       -22.8000  -25.2780    9.9750 C.3   118  LEU118      0.0019
     31  CD1      -23.4790  -23.9080    9.9960 C.3   118  LEU118      0.0001
     32  CD2      -23.5760  -26.2390    9.0830 C.3   118  LEU118      0.0001
     33  N        -27.0970  -25.1590    4.3570 N.3   133  LYS133     -0.1231
     34  CA       -26.5920  -25.0580    5.7260 C.3   133  LYS133      0.1693
     35  C        -27.5710  -25.7280    6.6790 C.2   133  LYS133      0.2592
     36  O        -28.7970  -25.5340    6.5910 O.2   133  LYS133     -0.2718
     37  CB       -26.3310  -23.6000    6.1330 C.3   133  LYS133      0.0285
     38  CG       -25.1010  -23.0140    5.4510 C.3   133  LYS133      0.0035
     39  CD       -24.9390  -21.5330    5.7350 C.3   133  LYS133      0.0206
     40  CE       -23.5650  -21.0540    5.3060 C.3   133  LYS133      0.1093
     41  NZ       -23.2610  -19.6570    5.7400 N.3   133  LYS133     -0.1314
     42  N        -27.0250  -26.5470    7.5690 N.am  134  GLY134     -0.1957
     43  CA       -27.8430  -27.2790    8.5150 C.3   134  GLY134      0.1869
     44  C        -28.1550  -28.6810    8.0150 C.2   134  GLY134      0.2309
     45  O        -28.6400  -29.4900    8.7830 O.2   134  GLY134     -0.2863
     46  N        -22.0310  -30.1280    7.3400 N.3   139  TYR139     -0.1241
     47  CA       -21.2830  -30.2710    8.6090 C.3   139  TYR139      0.1605
     48  C        -19.9570  -30.9900    8.4590 C.2   139  TYR139      0.2264
     49  O        -19.8470  -31.9710    7.7190 O.2   139  TYR139     -0.2867
     50  CB       -22.1000  -31.0210    9.6690 C.3   139  TYR139      0.0534
     51  CG       -23.2460  -30.2500   10.2520 C.ar  139  TYR139     -0.0201
     52  CD1      -23.0450  -29.3050   11.2690 C.ar  139  TYR139     -0.0009
     53  CD2      -24.5420  -30.4760    9.8140 C.ar  139  TYR139     -0.0009
     54  CE1      -24.1090  -28.6060   11.8110 C.ar  139  TYR139      0.0417
     55  CE2      -25.6120  -29.7840   10.3450 C.ar  139  TYR139      0.0417
     56  CZ       -25.3880  -28.8490   11.3410 C.ar  139  TYR139      0.1957
     57  OH       -26.4530  -28.1680   11.8510 O.3   139  TYR139     -0.2866
     58  N        -19.5290  -20.3320   15.3390 N.3   163  TYR163     -0.1241
     59  CA       -20.2360  -19.7300   14.2100 C.3   163  TYR163      0.1605
     60  C        -20.7020  -18.3160   14.5450 C.2   163  TYR163      0.2264
     61  O        -21.0490  -18.0190   15.6950 O.2   163  TYR163     -0.2867
     62  CB       -21.4510  -20.5820   13.8470 C.3   163  TYR163      0.0534
     63  CG       -21.9020  -20.4450   12.4050 C.ar  163  TYR163     -0.0201
     64  CD1      -21.1760  -21.0500   11.3760 C.ar  163  TYR163     -0.0009
     65  CD2      -23.0640  -19.7500   12.0720 C.ar  163  TYR163     -0.0009
     66  CE1      -21.5790  -20.9550   10.0590 C.ar  163  TYR163      0.0417
     67  CE2      -23.4750  -19.6470   10.7440 C.ar  163  TYR163      0.0417
     68  CZ       -22.7240  -20.2530    9.7480 C.ar  163  TYR163      0.1957
     69  OH       -23.1040  -20.1700    8.4320 O.3   163  TYR163     -0.2866
     70  N        -23.4950  -15.3350   13.4050 N.3   165  HIS165     -0.1241
     71  CA       -24.6410  -14.9020   12.5990 C.3   165  HIS165      0.1621
     72  C        -24.4550  -13.4970   12.0340 C.2   165  HIS165      0.2264
     73  O        -25.2120  -13.0850   11.1570 O.2   165  HIS165     -0.2867
     74  CB       -25.9630  -15.0190   13.3630 C.3   165  HIS165      0.0745
     75  CG       -26.5030  -16.4160   13.4120 C.ar  165  HIS165      0.0817
     76  ND1      -26.7580  -17.1530   12.2740 N.ar  165  HIS165     -0.2268
     77  CD2      -26.8360  -17.2120   14.4570 C.ar  165  HIS165      0.1154
     78  CE1      -27.2210  -18.3410   12.6150 C.ar  165  HIS165      0.1986
     79  NE2      -27.2820  -18.4000   13.9330 N.ar  165  HIS165     -0.2212
     80  N        -22.4290  -14.7690    9.1740 N.3   168  TYR168     -0.1241
     81  CA       -23.0820  -15.9900    8.6490 C.3   168  TYR168      0.1605
     82  C        -22.0300  -16.9790    8.1000 C.2   168  TYR168      0.2264
     83  O        -22.1080  -17.4470    6.9540 O.2   168  TYR168     -0.2867
     84  CB       -24.1910  -15.6330    7.6310 C.3   168  TYR168      0.0534
     85  CG       -25.1790  -16.7490    7.2750 C.ar  168  TYR168     -0.0201
     86  CD1      -25.8800  -17.4380    8.2710 C.ar  168  TYR168     -0.0009
     87  CD2      -25.4450  -17.0800    5.9340 C.ar  168  TYR168     -0.0009
     88  CE1      -26.7850  -18.4530    7.9520 C.ar  168  TYR168      0.0417
     89  CE2      -26.3570  -18.0850    5.6020 C.ar  168  TYR168      0.0417
     90  CZ       -27.0270  -18.7710    6.6130 C.ar  168  TYR168      0.1957
     91  OH       -27.9360  -19.7770    6.3050 O.3   168  TYR168     -0.2866
     92  N        -29.0370  -29.1180   15.6940 N.3   189  LEU189     -0.1245
     93  CA       -30.0830  -29.8730   15.0350 C.3   189  LEU189      0.1561
     94  C        -29.6760  -31.3210   14.7550 C.2   189  LEU189      0.2260
     95  O        -30.5510  -32.1710   14.6360 O.2   189  LEU189     -0.2867
     96  CB       -30.5650  -29.1780   13.7600 C.3   189  LEU189      0.0270
     97  CG       -29.5810  -28.9830   12.6390 C.3   189  LEU189      0.0019
     98  CD1      -29.6380  -30.2420   11.7830 C.3   189  LEU189      0.0001
     99  CD2      -29.9280  -27.7040   11.8410 C.3   189  LEU189      0.0001
    100  N        -39.8310  -19.4140   13.3730 N.3   228  TYR228     -0.1241
    101  CA       -38.7960  -19.1190   12.3680 C.3   228  TYR228      0.1605
    102  C        -38.9480  -17.7190   11.7670 C.2   228  TYR228      0.2264
    103  O        -37.9730  -16.9650   11.7070 O.2   228  TYR228     -0.2867
    104  CB       -38.7460  -20.1720   11.2410 C.3   228  TYR228      0.0534
    105  CG       -37.6950  -19.8370   10.2010 C.ar  228  TYR228     -0.0201
    106  CD1      -36.3510  -20.1270   10.4260 C.ar  228  TYR228     -0.0009
    107  CD2      -38.0420  -19.1880    9.0110 C.ar  228  TYR228     -0.0009
    108  CE1      -35.3850  -19.8000    9.4910 C.ar  228  TYR228      0.0417
    109  CE2      -37.0890  -18.8690    8.0660 C.ar  228  TYR228      0.0417
    110  CZ       -35.7640  -19.1590    8.3110 C.ar  228  TYR228      0.1957
    111  OH       -34.8170  -18.8180    7.3800 O.3   228  TYR228     -0.2866
    112  N        -38.2460  -14.8950   14.3260 N.3   231  ARG231     -0.1231
    113  CA       -36.8100  -14.7250   14.5210 C.3   231  ARG231      0.1694
    114  C        -36.1790  -13.9940   13.3380 C.2   231  ARG231      0.2592
    115  O        -35.4300  -13.0330   13.5160 O.2   231  ARG231     -0.2718
    116  CB       -36.1330  -16.0810   14.7240 C.3   231  ARG231      0.0321
    117  CG       -34.8970  -16.0300   15.6080 C.3   231  ARG231      0.0489
    118  CD       -34.3840  -17.4270   15.9210 C.3   231  ARG231      0.2205
    119  NE       -33.7060  -18.0290   14.7780 N.pl3 231  ARG231     -0.0865
    120  CZ       -33.3630  -19.3110   14.7030 C.cat 231  ARG231      0.5346
    121  NH1      -32.7480  -19.7740   13.6230 N.pl3 231  ARG231      0.1354
    122  NH2      -33.6360  -20.1320   15.7080 N.pl3 231  ARG231      0.1354
    123  N        -36.4880  -14.4580   12.1310 N.am  232  PHE232     -0.1976
    124  CA       -35.9690  -13.8590   10.9090 C.3   232  PHE232      0.1639
    125  C        -36.1910  -12.3540   10.9870 C.2   232  PHE232      0.2290
    126  O        -35.2500  -11.5860   10.7750 O.2   232  PHE232     -0.2864
    127  CB       -36.6790  -14.4590    9.6910 C.3   232  PHE232      0.0560
    128  CG       -36.1310  -14.0000    8.3470 C.ar  232  PHE232     -0.0200
    129  CD1      -36.4790  -12.7600    7.8180 C.ar  232  PHE232     -0.0042
    130  CD2      -35.3120  -14.8400    7.5940 C.ar  232  PHE232     -0.0042
    131  CE1      -35.9990  -12.3550    6.5790 C.ar  232  PHE232     -0.0003
    132  CE2      -34.8310  -14.4470    6.3540 C.ar  232  PHE232     -0.0003
    133  CZ       -35.1700  -13.2000    5.8420 C.ar  232  PHE232     -0.0000
    134  N        -33.9020  -10.7230   13.5090 N.3   235  PHE235     -0.1241
    135  CA       -32.5380  -10.6200   12.9750 C.3   235  PHE235      0.1605
    136  C        -32.4740   -9.4700   11.9640 C.2   235  PHE235      0.2264
    137  O        -31.4880   -8.7180   11.9200 O.2   235  PHE235     -0.2867
    138  CB       -32.0910  -11.9210   12.2780 C.3   235  PHE235      0.0534
    139  CG       -31.6000  -13.0170   13.2130 C.ar  235  PHE235     -0.0203
    140  CD1      -30.6940  -12.7570   14.2440 C.ar  235  PHE235     -0.0042
    141  CD2      -32.0000  -14.3260   13.0100 C.ar  235  PHE235     -0.0042
    142  CE1      -30.2320  -13.7800   15.0710 C.ar  235  PHE235     -0.0003
    143  CE2      -31.5480  -15.3560   13.8360 C.ar  235  PHE235     -0.0003
    144  CZ       -30.6640  -15.0840   14.8720 C.ar  235  PHE235     -0.0000
    145  N        -24.7240   -9.7950    7.7770 N.3   246  TYR246     -0.1227
    146  CA       -25.3870  -10.6040    6.7730 C.3   246  TYR246      0.1736
    147  C        -26.8710  -10.2440    6.6670 C.2   246  TYR246      0.2595
    148  O        -27.3980  -10.1410    5.5620 O.2   246  TYR246     -0.2718
    149  CB       -25.1810  -12.1120    7.0480 C.3   246  TYR246      0.0548
    150  CG       -25.9890  -13.0150    6.1370 C.ar  246  TYR246     -0.0200
    151  CD1      -25.5400  -13.3340    4.8500 C.ar  246  TYR246     -0.0009
    152  CD2      -27.2110  -13.5320    6.5550 C.ar  246  TYR246     -0.0009
    153  CE1      -26.2880  -14.1540    4.0170 C.ar  246  TYR246      0.0417
    154  CE2      -27.9640  -14.3430    5.7320 C.ar  246  TYR246      0.0417
    155  CZ       -27.5030  -14.6560    4.4680 C.ar  246  TYR246      0.1957
    156  OH       -28.2740  -15.4720    3.6740 O.3   246  TYR246     -0.2866
    157  N        -27.5420  -10.0270    7.7980 N.am  247  PHE247     -0.1976
    158  CA       -28.9810   -9.7290    7.7550 C.3   247  PHE247      0.1639
    159  C        -29.3270   -8.3090    7.3160 C.2   247  PHE247      0.2290
    160  O        -30.5020   -8.0020    7.0800 O.2   247  PHE247     -0.2864
    161  CB       -29.6740  -10.0560    9.0720 C.3   247  PHE247      0.0560
    162  CG       -30.2500  -11.4460    9.1100 C.ar  247  PHE247     -0.0200
    163  CD1      -29.4490  -12.5300    9.4500 C.ar  247  PHE247     -0.0042
    164  CD2      -31.5890  -11.6670    8.7970 C.ar  247  PHE247     -0.0042
    165  CE1      -29.9710  -13.8130    9.5030 C.ar  247  PHE247     -0.0003
    166  CE2      -32.1240  -12.9420    8.8510 C.ar  247  PHE247     -0.0003
    167  CZ       -31.3110  -14.0200    9.1990 C.ar  247  PHE247     -0.0000
    168  N        -31.3230   -8.0270    4.2260 N.3   250  TYR250     -0.1241
    169  CA       -32.7830   -8.1040    4.2970 C.3   250  TYR250      0.1605
    170  C        -33.4500   -6.8130    4.7440 C.2   250  TYR250      0.2264
    171  O        -34.6690   -6.6810    4.6040 O.2   250  TYR250     -0.2867
    172  CB       -33.2300   -9.2940    5.1440 C.3   250  TYR250      0.0534
    173  CG       -32.8150  -10.6080    4.5370 C.ar  250  TYR250     -0.0201
    174  CD1      -33.3060  -11.0120    3.2930 C.ar  250  TYR250     -0.0009
    175  CD2      -31.9010  -11.4350    5.1820 C.ar  250  TYR250     -0.0009
    176  CE1      -32.9190  -12.2240    2.7270 C.ar  250  TYR250      0.0417
    177  CE2      -31.5040  -12.6480    4.6230 C.ar  250  TYR250      0.0417
    178  CZ       -32.0230  -13.0420    3.4040 C.ar  250  TYR250      0.1957
    179  OH       -31.6280  -14.2430    2.8550 O.3   250  TYR250     -0.2866
    180  N        -37.6740  -19.5360    2.5280 N.3   265  LEU265     -0.1245
    181  CA       -36.5110  -20.1800    3.1440 C.3   265  LEU265      0.1561
    182  C        -36.9570  -21.2930    4.0810 C.2   265  LEU265      0.2260
    183  O        -36.3290  -22.3600    4.1260 O.2   265  LEU265     -0.2867
    184  CB       -35.6380  -19.1520    3.8920 C.3   265  LEU265      0.0270
    185  CG       -34.9250  -18.1290    3.0010 C.3   265  LEU265      0.0019
    186  CD1      -34.3250  -16.9810    3.8160 C.3   265  LEU265      0.0001
    187  CD2      -33.8680  -18.7830    2.1210 C.3   265  LEU265      0.0001
    188  N        -35.8270  -24.8960    2.5230 N.3   269  ILE269     -0.1231
    189  CA       -34.6110  -25.3340    3.2090 C.3   269  ILE269      0.1692
    190  C        -34.9290  -26.0100    4.5550 C.2   269  ILE269      0.2592
    191  O        -34.6970  -27.2240    4.7450 O.2   269  ILE269     -0.2718
    192  CB       -33.6150  -24.1590    3.4100 C.3   269  ILE269      0.0266
    193  CG1      -33.3410  -23.4440    2.0760 C.3   269  ILE269      0.0019
    194  CG2      -32.3270  -24.6540    4.0620 C.3   269  ILE269      0.0020
    195  CD1      -32.4170  -22.2470    2.1900 C.3   269  ILE269      0.0001
    196  N        -35.4860  -25.2360    5.4820 N.am  270  ASN270     -0.1974
    197  CA       -35.5860  -25.7140    6.8610 C.3   270  ASN270      0.1688
    198  C        -36.6480  -26.7810    7.0910 C.2   270  ASN270      0.2292
    199  O        -36.4010  -27.7160    7.8450 O.2   270  ASN270     -0.2864
    200  CB       -35.7020  -24.5280    7.8380 C.3   270  ASN270      0.1181
    201  CG       -34.4790  -23.6300    7.7820 C.2   270  ASN270      0.2629
    202  OD1      -33.3450  -24.1030    7.8930 O.2   270  ASN270     -0.2716
    203  ND2      -34.6960  -22.3380    7.5760 N.am  270  ASN270     -0.0877
    204  N        -35.2810  -29.9450    5.6810 N.3   273  ASN273     -0.1240
    205  CA       -34.2560  -30.4570    6.5910 C.3   273  ASN273      0.1653
    206  C        -34.8980  -31.1420    7.7870 C.2   273  ASN273      0.2266
    207  O        -34.4610  -32.2090    8.2130 O.2   273  ASN273     -0.2867
    208  CB       -33.3290  -29.3230    7.0630 C.3   273  ASN273      0.1155
    209  CG       -32.0450  -29.8380    7.6900 C.2   273  ASN273      0.2627
    210  OD1      -31.6640  -30.9990    7.4920 O.2   273  ASN273     -0.2716
    211  ND2      -31.3670  -28.9760    8.4570 N.am  273  ASN273     -0.0877
@<TRIPOS>BOND
     1   193   195    1
     2   193   192    1
     3   187   185    1
     4   188   189    1
     5   180   181    1
     6   176   174   ar
     7   176   178   ar
     8   179   178    1
     9   185   186    1
    10   185   184    1
    11   181   184    1
    12   181   182    1
    13   189   192    1
    14   189   190    1
    15   174   173   ar
    16   178   177   ar
    17   192   194    1
    18   156   155    1
    19   153   155   ar
    20   153   151   ar
    21   182   183    2
    22   168   169    1
    23   169   170    1
    24   169   172    1
    25    33    34    1
    26   155   154   ar
    27   173   172    1
    28   173   175   ar
    29   190   191    2
    30   190   196   am
    31   171   170    2
    32   177   175   ar
    33   151   150   ar
    34    40    39    1
    35    40    41    1
    36    38    39    1
    37    38    37    1
    38   196   197    1
    39   148   147    2
    40    89    87   ar
    41    89    90   ar
    42   204   205    1
    43    34    37    1
    44    34    35    1
    45   154   152   ar
    46   133   132   ar
    47   133   131   ar
    48    87    85   ar
    49   150   152   ar
    50   150   149    1
    51    91    90    1
    52   132   130   ar
    53   131   129   ar
    54   205   208    1
    55   205   206    1
    56    36    35    2
    57    90    88   ar
    58   147   146    1
    59   147   157   am
    60    35    42   am
    61   146   149    1
    62   146   145    1
    63   197   198    1
    64   197   200    1
    65    83    82    2
    66   208   209    1
    67   160   159    2
    68   198   199    2
    69    85    84    1
    70    85    86   ar
    71   159   158    1
    72    46    47    1
    73   111   110    1
    74   210   209    2
    75    42    43    1
    76   203   201   am
    77   130   128   ar
    78    84    81    1
    79   209   211   am
    80    49    48    2
    81   158   157    1
    82   158   161    1
    83   201   200    1
    84   201   202    2
    85   206   207    2
    86   129   128   ar
    87    88    86   ar
    88    44    43    1
    89    44    45    2
    90   109   110   ar
    91   109   107   ar
    92    82    81    1
    93   110   108   ar
    94   128   127    1
    95    69    68    1
    96    48    47    1
    97    47    50    1
    98    81    80    1
    99   164   166   ar
   100   164   162   ar
   101   166   167   ar
   102   107   105   ar
   103    27    28    2
   104    27    26    1
   105   161   162    1
   106    32    30    1
   107   162   163   ar
   108   167   165   ar
   109   163   165   ar
   110   108   106   ar
   111    29    26    1
   112    29    30    1
   113    50    51    1
   114   127   124    1
   115    68    66   ar
   116    68    67   ar
   117    26    25    1
   118    53    51   ar
   119    53    55   ar
   120    30    31    1
   121    66    64   ar
   122   105   106   ar
   123   105   104    1
   124    51    52   ar
   125    55    56   ar
   126    67    65   ar
   127   126   125    2
   128   124   125    1
   129   124   123    1
   130    73    72    2
   131   104   101    1
   132    52    54   ar
   133    56    54   ar
   134    56    57    1
   135    64    63   ar
   136     7     5    1
   137   103   102    2
   138   102   101    1
   139    98    97    1
   140    99    97    1
   141   137   136    2
   142   136   135    1
   143     6     5    1
   144    72    71    1
   145    65    63   ar
   146     5     2    1
   147   123   114   am
   148    76    78   ar
   149    76    75   ar
   150   138   135    1
   151   138   139    1
   152   101   100    1
   153    63    62    1
   154    71    74    1
   155    71    70    1
   156    78    79   ar
   157    97    96    1
   158    20    19    2
   159   135   134    1
   160   141   139   ar
   161   141   143   ar
   162   139   140   ar
   163   114   115    2
   164   114   113    1
   165    74    75    1
   166    75    77   ar
   167     2     1    1
   168     2     3    1
   169   121   120    1
   170    96    93    1
   171     4     3    2
   172   143   144   ar
   173    62    59    1
   174    79    77   ar
   175    19    18    1
   176    59    60    1
   177    59    58    1
   178   140   142   ar
   179   112   113    1
   180    18    21    1
   181    18    17    1
   182   113   116    1
   183    60    61    2
   184    95    94    2
   185   120   119    2
   186   120   122    1
   187   116   117    1
   188    94    93    1
   189   119   118    1
   190   144   142   ar
   191    21    22    1
   192    23    22   ar
   193    93    92    1
   194    22    24   ar
   195   117   118    1
   196    16    15    1
   197    15    14    1
   198    14    13    1
   199    13    12    1
   200    12     9    1
   201     8     9    1
   202     9    10    1
   203    10    11    2
