@<TRIPOS>MOLECULE
tmp/4ne4A00.pdb
 116 112 0 0 0
SMALL
GASTEIGER

@<TRIPOS>ATOM
      1  N         24.5680   11.8700   35.2840 N.3     8  LYS8       -0.1245
      2  CA        23.3870   11.7380   34.4440 C.3     8  LYS8        0.1561
      3  C         23.1120   10.2580   34.1860 C.2     8  LYS8        0.2260
      4  O         23.9810    9.3960   34.3770 O.2     8  LYS8       -0.2867
      5  CB        23.5530   12.5050   33.1240 C.3     8  LYS8        0.0271
      6  CG        23.2600   13.9980   33.2520 C.3     8  LYS8        0.0035
      7  CD        24.4690   14.8250   33.6260 C.3     8  LYS8        0.0206
      8  CE        25.2750   15.2460   32.3940 C.3     8  LYS8        0.1093
      9  NZ        24.6560   16.3180   31.5670 N.3     8  LYS8       -0.1314
     10  N         22.6590    8.3960   31.5330 N.3    10  ASP10      -0.1239
     11  CA        23.1660    7.6580   30.3670 C.3    10  ASP10       0.1674
     12  C         24.3900    6.7950   30.7070 C.2    10  ASP10       0.2266
     13  O         24.9460    6.8860   31.8050 O.2    10  ASP10      -0.2867
     14  CB        23.4200    8.5750   29.1530 C.3    10  ASP10       0.1410
     15  CG        24.5400    9.5840   29.3660 C.2    10  ASP10       0.3668
     16  OD1       25.1350    9.6460   30.4550 O.co2  10  ASP10      -0.2456
     17  OD2       24.8310   10.3340   28.4030 O.co2  10  ASP10      -0.2456
     18  N         19.8690   15.5990   32.5900 N.3    40  THR40      -0.1218
     19  CA        20.6100   16.8230   32.9200 C.3    40  THR40       0.1862
     20  C         19.8460   17.8010   33.8310 C.2    40  THR40       0.2287
     21  O         20.3910   18.2430   34.8290 O.2    40  THR40      -0.2866
     22  CB        21.1210   17.5220   31.6480 C.3    40  THR40       0.1770
     23  OG1       22.0280   16.6450   30.9710 O.3    40  THR40      -0.2211
     24  CG2       21.8490   18.8420   31.9850 C.3    40  THR40       0.0375
     25  N         29.2870   18.3340   30.9610 N.3    58  TYR58      -0.1241
     26  CA        29.9730   18.6250   29.6940 C.3    58  TYR58       0.1605
     27  C         30.0320   20.1260   29.4850 C.2    58  TYR58       0.2264
     28  O         29.0400   20.8130   29.6860 O.2    58  TYR58      -0.2867
     29  CB        29.2640   17.9540   28.5170 C.3    58  TYR58       0.0534
     30  CG        29.1770   16.4530   28.7070 C.ar   58  TYR58      -0.0201
     31  CD1       30.1400   15.6120   28.1770 C.ar   58  TYR58      -0.0009
     32  CD2       28.1540   15.8920   29.4590 C.ar   58  TYR58      -0.0009
     33  CE1       30.0820   14.2360   28.3710 C.ar   58  TYR58       0.0417
     34  CE2       28.0810   14.5200   29.6480 C.ar   58  TYR58       0.0417
     35  CZ        29.0440   13.7020   29.1100 C.ar   58  TYR58       0.1957
     36  OH        28.9690   12.3420   29.3290 O.3    58  TYR58      -0.2866
     37  N         27.3250   22.0560   27.5920 N.3    61  ASN61      -0.1240
     38  CA        25.9970   22.1190   28.1970 C.3    61  ASN61       0.1653
     39  C         25.7770   23.4050   28.9720 C.2    61  ASN61       0.2266
     40  O         24.6360   23.8120   29.1830 O.2    61  ASN61      -0.2867
     41  CB        25.7130   20.9260   29.0990 C.3    61  ASN61       0.1155
     42  CG        25.2860   19.6990   28.3280 C.2    61  ASN61       0.2627
     43  OD1       24.7170   19.7920   27.2290 O.2    61  ASN61      -0.2716
     44  ND2       25.5110   18.5390   28.9230 N.am   61  ASN61      -0.0877
     45  N         23.4150   26.0250   27.5570 N.3    64  PHE64      -0.1241
     46  CA        21.9920   25.9550   27.8110 C.3    64  PHE64       0.1605
     47  C         21.6590   26.4380   29.2210 C.2    64  PHE64       0.2264
     48  O         20.6860   27.1890   29.3900 O.2    64  PHE64      -0.2867
     49  CB        21.4770   24.5490   27.5270 C.3    64  PHE64       0.0534
     50  CG        21.8650   24.0580   26.1720 C.ar   64  PHE64      -0.0203
     51  CD1       21.2710   24.5740   25.0330 C.ar   64  PHE64      -0.0042
     52  CD2       22.8690   23.1110   26.0270 C.ar   64  PHE64      -0.0042
     53  CE1       21.6620   24.1400   23.7700 C.ar   64  PHE64      -0.0003
     54  CE2       23.2590   22.6740   24.7750 C.ar   64  PHE64      -0.0003
     55  CZ        22.6610   23.1890   23.6450 C.ar   64  PHE64      -0.0000
     56  N         32.4570   14.8360   23.0720 N.3   104  ASN104     -0.1225
     57  CA        31.2570   14.0040   22.8650 C.3   104  ASN104      0.1785
     58  C         30.1360   14.8160   22.2230 C.2   104  ASN104      0.2598
     59  O         29.1430   15.1540   22.8660 O.2   104  ASN104     -0.2718
     60  CB        30.7840   13.3930   24.1890 C.3   104  ASN104      0.1169
     61  CG        29.6690   12.3770   24.0070 C.2   104  ASN104      0.2627
     62  OD1       29.3710   11.9580   22.8800 O.2   104  ASN104     -0.2716
     63  ND2       29.0670   11.9470   25.1230 N.am  104  ASN104     -0.0877
     64  N         30.3100   15.1060   20.9400 N.am  105  THR105     -0.1939
     65  CA        29.4170   15.9890   20.1990 C.3   105  THR105      0.2028
     66  C         28.9520   15.2790   18.9320 C.2   105  THR105      0.2642
     67  O         29.4650   14.2230   18.5860 O.2   105  THR105     -0.2714
     68  CB        30.1370   17.3200   19.8600 C.3   105  THR105      0.1808
     69  OG1       29.1830   18.3120   19.4570 O.3   105  THR105     -0.2208
     70  CG2       31.1980   17.1350   18.7740 C.3   105  THR105      0.0379
     71  N         27.9830   15.8710   18.2370 N.am  106  TRP106     -0.1973
     72  CA        27.5220   15.3290   16.9620 C.3   106  TRP106      0.1640
     73  C         28.6800   15.2420   15.9770 C.2   106  TRP106      0.2290
     74  O         29.4600   16.1920   15.8240 O.2   106  TRP106     -0.2864
     75  CB        26.4540   16.2440   16.3520 C.3   106  TRP106      0.0576
     76  CG        25.0970   15.6960   16.1750 C.ar  106  TRP106      0.0006
     77  CD1       24.7110   14.3830   16.1680 C.ar  106  TRP106      0.0946
     78  CD2       23.9200   16.4610   15.9040 C.ar  106  TRP106      0.0152
     79  NE1       23.3600   14.2940   15.9450 N.ar  106  TRP106     -0.2442
     80  CE2       22.8510   15.5550   15.7840 C.ar  106  TRP106      0.0810
     81  CE3       23.6600   17.8300   15.7850 C.ar  106  TRP106      0.0012
     82  CZ2       21.5460   15.9740   15.5320 C.ar  106  TRP106      0.0191
     83  CZ3       22.3700   18.2430   15.5350 C.ar  106  TRP106      0.0001
     84  CH2       21.3310   17.3200   15.4050 C.ar  106  TRP106      0.0015
     85  N         27.4290   10.3880   18.1170 N.3   193  TYR193     -0.1241
     86  CA        28.0520   11.2980   19.0700 C.3   193  TYR193      0.1605
     87  C         29.4230   10.7220   19.3760 C.2   193  TYR193      0.2264
     88  O         29.5920    9.4990   19.4340 O.2   193  TYR193     -0.2867
     89  CB        27.1910   11.4530   20.3240 C.3   193  TYR193      0.0534
     90  CG        25.8530   12.0790   20.0180 C.ar  193  TYR193     -0.0201
     91  CD1       24.7010   11.2960   19.8760 C.ar  193  TYR193     -0.0009
     92  CD2       25.7330   13.4580   19.8450 C.ar  193  TYR193     -0.0009
     93  CE1       23.4740   11.8820   19.5790 C.ar  193  TYR193      0.0417
     94  CE2       24.5050   14.0430   19.5590 C.ar  193  TYR193      0.0417
     95  CZ        23.3870   13.2490   19.4150 C.ar  193  TYR193      0.1957
     96  OH        22.1630   13.8220   19.1360 O.3   193  TYR193     -0.2866
     97  N         30.1900    7.6230   21.5990 N.3   196  ASP196     -0.1239
     98  CA        29.2320    6.5070   21.5630 C.3   196  ASP196      0.1674
     99  C         29.9310    5.1500   21.6950 C.2   196  ASP196      0.2266
    100  O         30.8620    4.8400   20.9370 O.2   196  ASP196     -0.2867
    101  CB        28.4150    6.5030   20.2560 C.3   196  ASP196      0.1410
    102  CG        27.2100    7.4290   20.2930 C.2   196  ASP196      0.3668
    103  OD1       26.7640    7.8650   21.3880 O.co2 196  ASP196     -0.2456
    104  OD2       26.7170    7.7450   19.1930 O.co2 196  ASP196     -0.2456
    105  N         31.6740   19.3620   23.6880 N.3   217  TYR217     -0.1241
    106  CA        31.1530   18.7560   24.9110 C.3   217  TYR217      0.1605
    107  C         32.2280   17.8820   25.5620 C.2   217  TYR217      0.2264
    108  O         32.2640   16.6670   25.3710 O.2   217  TYR217     -0.2867
    109  CB        29.8590   17.9670   24.6130 C.3   217  TYR217      0.0534
    110  CG        28.7430   18.8540   24.1160 C.ar  217  TYR217     -0.0201
    111  CD1       27.8640   19.4680   25.0020 C.ar  217  TYR217     -0.0009
    112  CD2       28.5720   19.0980   22.7580 C.ar  217  TYR217     -0.0009
    113  CE1       26.8480   20.3050   24.5420 C.ar  217  TYR217      0.0417
    114  CE2       27.5540   19.9240   22.2980 C.ar  217  TYR217      0.0417
    115  CZ        26.7010   20.5250   23.1880 C.ar  217  TYR217      0.1957
    116  OH        25.6880   21.3610   22.7480 O.3   217  TYR217     -0.2866
@<TRIPOS>BOND
     1    84    82   ar
     2    84    83   ar
     3    82    80   ar
     4    83    81   ar
     5    80    78   ar
     6    80    79   ar
     7    81    78   ar
     8    74    73    2
     9    78    76   ar
    10    79    77   ar
    11    73    72    1
    12    77    76   ar
    13    76    75    1
    14    75    72    1
    15    72    71    1
    16    85    86    1
    17    71    66   am
    18    67    66    2
    19    70    68    1
    20    66    65    1
    21    86    87    1
    22    86    89    1
    23    96    95    1
    24   104   102   ar
    25    87    88    2
    26    95    94   ar
    27    95    93   ar
    28    69    68    1
    29    94    92   ar
    30    93    91   ar
    31    92    90   ar
    32    68    65    1
    33    91    90   ar
    34    90    89    1
    35    65    64    1
    36   101   102    1
    37   101    98    1
    38   102   103   ar
    39   100    99    2
    40    64    58   am
    41    98    97    1
    42    98    99    1
    43    58    57    1
    44    58    59    2
    45   114   112   ar
    46   114   115   ar
    47   116   115    1
    48   112   110   ar
    49    57    56    1
    50    57    60    1
    51    62    61    2
    52   115   113   ar
    53    55    53   ar
    54    55    54   ar
    55   105   106    1
    56    53    51   ar
    57    61    60    1
    58    61    63   am
    59   110   109    1
    60   110   111   ar
    61   113   111   ar
    62   109   106    1
    63    54    52   ar
    64   106   107    1
    65    51    50   ar
    66   108   107    2
    67    52    50   ar
    68    50    49    1
    69    43    42    2
    70    49    46    1
    71    45    46    1
    72    37    38    1
    73    46    47    1
    74    31    33   ar
    75    31    30   ar
    76    38    39    1
    77    38    41    1
    78    42    44   am
    79    42    41    1
    80    33    35   ar
    81    17    15   ar
    82    29    30    1
    83    29    26    1
    84    30    32   ar
    85    39    40    2
    86    35    36    1
    87    35    34   ar
    88    14    15    1
    89    14    11    1
    90    47    48    2
    91    15    16   ar
    92    32    34   ar
    93    27    28    2
    94    27    26    1
    95    26    25    1
    96    11    12    1
    97    11    10    1
    98    12    13    2
    99    23    22    1
   100     9     8    1
   101    22    24    1
   102    22    19    1
   103     8     7    1
   104    18    19    1
   105    19    20    1
   106     5     6    1
   107     5     2    1
   108     6     7    1
   109    20    21    2
   110     3     4    2
   111     3     2    1
   112     2     1    1
