@<TRIPOS>MOLECULE
tmp/4neaA00.pdb
 221 213 0 0 0
SMALL
GASTEIGER

@<TRIPOS>ATOM
      1  N         13.7910    5.5180  -39.5690 N.3   162  ILE162     -0.1231
      2  CA        14.9190    4.8320  -40.1950 C.3   162  ILE162      0.1692
      3  C         14.6860    3.3310  -40.0720 C.2   162  ILE162      0.2593
      4  O         14.4750    2.8240  -38.9650 O.2   162  ILE162     -0.2718
      5  CB        16.2370    5.2720  -39.4970 C.3   162  ILE162      0.0266
      6  CG1       16.4420    6.7850  -39.6540 C.3   162  ILE162      0.0019
      7  CG2       17.4070    4.4780  -40.0440 C.3   162  ILE162      0.0020
      8  CD1       17.4970    7.3230  -38.7020 C.3   162  ILE162      0.0001
      9  N         14.7690    2.6100  -41.1940 N.am  163  THR163     -0.1940
     10  CA        14.3440    1.2210  -41.2530 C.3   163  THR163      0.2013
     11  C         15.4830    0.3380  -41.6940 C.2   163  THR163      0.2484
     12  O         16.4280    0.8300  -42.3030 O.2   163  THR163     -0.2729
     13  CB        13.1810    1.0330  -42.2160 C.3   163  THR163      0.1807
     14  OG1       13.5020    1.6490  -43.4410 O.3   163  THR163     -0.2208
     15  CG2       11.9230    1.6220  -41.6600 C.3   163  THR163      0.0379
     16  N         15.4420   -0.9530  -41.3220 N.am  164  PRO164     -0.2715
     17  CA        16.5500   -1.8860  -41.5980 C.3   164  PRO164      0.1536
     18  C         16.3450   -2.6500  -42.9320 C.2   164  PRO164      0.2599
     19  O         15.3300   -2.5290  -43.5750 O.2   164  PRO164     -0.2715
     20  CB        16.4180   -2.8660  -40.4400 C.3   164  PRO164      0.0310
     21  CG        14.9600   -2.9660  -40.3190 C.3   164  PRO164      0.0237
     22  CD        14.4260   -1.5790  -40.4700 C.3   164  PRO164      0.0939
     23  N         17.3350   -3.4240  -43.3250 N.am  165  TRP165     -0.1960
     24  CA        17.3180   -4.0970  -44.6180 C.3   165  TRP165      0.1771
     25  C         16.6150   -5.4730  -44.6200 C.2   165  TRP165      0.2619
     26  O         16.4350   -6.0710  -45.6940 O.2   165  TRP165     -0.2715
     27  CB        18.7380   -4.2380  -45.1070 C.3   165  TRP165      0.0590
     28  CG        19.7190   -4.7190  -44.0730 C.ar  165  TRP165      0.0006
     29  CD1       20.6610   -3.9760  -43.4280 C.ar  165  TRP165      0.0946
     30  CD2       19.8510   -6.0490  -43.5810 C.ar  165  TRP165      0.0152
     31  NE1       21.3870   -4.7800  -42.5650 N.ar  165  TRP165     -0.2442
     32  CE2       20.8780   -6.0480  -42.6270 C.ar  165  TRP165      0.0810
     33  CE3       19.1930   -7.2570  -43.8720 C.ar  165  TRP165      0.0012
     34  CZ2       21.2810   -7.2070  -41.9660 C.ar  165  TRP165      0.0191
     35  CZ3       19.5640   -8.3860  -43.2160 C.ar  165  TRP165      0.0001
     36  CH2       20.6120   -8.3640  -42.2730 C.ar  165  TRP165      0.0015
     37  N         16.1940   -5.9740  -43.4630 N.am  166  ASN166     -0.1972
     38  CA        15.7100   -7.3490  -43.4230 C.3   166  ASN166      0.1688
     39  C         14.2340   -7.4560  -43.8580 C.2   166  ASN166      0.2292
     40  O         13.8420   -8.3640  -44.6180 O.2   166  ASN166     -0.2864
     41  CB        16.0460   -8.0140  -42.0770 C.3   166  ASN166      0.1181
     42  CG        15.4500   -7.3350  -40.8550 C.2   166  ASN166      0.2629
     43  OD1       15.0610   -6.1650  -40.8540 O.2   166  ASN166     -0.2716
     44  ND2       15.3920   -8.0800  -39.7920 N.am  166  ASN166     -0.0877
     45  N         13.9430    7.1720  -44.1050 N.3   189  LYS189     -0.1245
     46  CA        15.1730    6.7270  -44.7980 C.3   189  LYS189      0.1561
     47  C         15.2900    5.2070  -44.6860 C.2   189  LYS189      0.2260
     48  O         15.6330    4.7020  -43.6070 O.2   189  LYS189     -0.2867
     49  CB        16.4320    7.3780  -44.2570 C.3   189  LYS189      0.0271
     50  CG        17.6530    7.0520  -45.1370 C.3   189  LYS189      0.0035
     51  CD        18.9380    7.1150  -44.3500 C.3   189  LYS189      0.0206
     52  CE        19.2920    5.8530  -43.5940 C.3   189  LYS189      0.1093
     53  NZ        19.7540    4.7650  -44.4440 N.3   189  LYS189     -0.1314
     54  N         17.1530    1.4970  -45.3200 N.3   191  SER191     -0.1202
     55  CA        18.5340    1.0550  -45.4330 C.3   191  SER191      0.2020
     56  C         19.0720    1.3410  -46.8310 C.2   191  SER191      0.2618
     57  O         18.3940    1.1000  -47.8580 O.2   191  SER191     -0.2717
     58  CB        18.6730   -0.4250  -45.1140 C.3   191  SER191      0.2103
     59  OG        19.9360   -0.9480  -45.5650 O.3   191  SER191     -0.2182
     60  N         20.3040    1.8120  -46.8860 N.am  192  GLU192     -0.1979
     61  CA        20.8500    2.2600  -48.1800 C.3   192  GLU192      0.1602
     62  C         21.0120    1.0850  -49.1440 C.2   192  GLU192      0.2287
     63  O         21.0620    1.2670  -50.3570 O.2   192  GLU192     -0.2864
     64  CB        22.1880    2.9480  -48.0210 C.3   192  GLU192      0.0415
     65  CG        23.2390    2.1160  -47.3240 C.3   192  GLU192      0.1163
     66  CD        23.2230    2.1940  -45.7970 C.2   192  GLU192      0.3649
     67  OE1       22.2680    2.6690  -45.1130 O.co2 192  GLU192     -0.2457
     68  OE2       24.2450    1.7650  -45.2710 O.co2 192  GLU192     -0.2457
     69  N         23.5880    6.0300  -43.5470 N.3   222  GLY222     -0.1210
     70  CA        23.5350    6.6380  -42.2190 C.3   222  GLY222      0.1956
     71  C         24.7290    7.5270  -41.9300 C.2   222  GLY222      0.2612
     72  O         24.5980    8.5820  -41.3250 O.2   222  GLY222     -0.2717
     73  N         25.8990    7.1270  -42.4210 N.am  223  SER223     -0.1952
     74  CA        27.1330    7.8480  -42.1720 C.3   223  SER223      0.1924
     75  C         27.0520    9.2250  -42.7400 C.2   223  SER223      0.2314
     76  O         27.7240   10.1040  -42.2460 O.2   223  SER223     -0.2863
     77  CB        28.3290    7.1430  -42.8200 C.3   223  SER223      0.2116
     78  OG        28.2390    7.2240  -44.2380 O.3   223  SER223     -0.2180
     79  N         22.4260   10.4530  -41.4070 N.3   226  GLY226     -0.1210
     80  CA        21.8290    9.8640  -40.2120 C.3   226  GLY226      0.1956
     81  C         21.7910   10.7960  -39.0380 C.2   226  GLY226      0.2611
     82  O         20.7670   10.9080  -38.3700 O.2   226  GLY226     -0.2717
     83  N         22.8920   11.5020  -38.8280 N.am  227  ASP227     -0.1973
     84  CA        22.9780   12.4650  -37.7500 C.3   227  ASP227      0.1709
     85  C         22.0480   13.6460  -37.9610 C.2   227  ASP227      0.2293
     86  O         21.5270   14.1560  -36.9990 O.2   227  ASP227     -0.2864
     87  CB        24.4340   12.9280  -37.5370 C.3   227  ASP227      0.1436
     88  CG        25.2690   11.9080  -36.7110 C.2   227  ASP227      0.3671
     89  OD1       24.8010   10.7760  -36.3250 O.co2 227  ASP227     -0.2456
     90  OD2       26.4220   12.2430  -36.4510 O.co2 227  ASP227     -0.2456
     91  N         18.5600   12.1860  -36.7970 N.3   230  SER230     -0.1217
     92  CA        18.4480   12.0300  -35.3510 C.3   230  SER230      0.1889
     93  C         18.6310   13.3390  -34.5860 C.2   230  SER230      0.2288
     94  O         18.0640   13.5300  -33.5050 O.2   230  SER230     -0.2866
     95  CB        19.4770   10.9620  -34.8740 C.3   230  SER230      0.2089
     96  OG        20.7930   11.4170  -34.9570 O.3   230  SER230     -0.2183
     97  N         13.6750    4.2900  -34.8880 N.3   240  PHE240     -0.1227
     98  CA        14.7390    3.5330  -35.4800 C.3   240  PHE240      0.1736
     99  C         14.5500    2.0560  -35.1850 C.2   240  PHE240      0.2596
    100  O         14.3310    1.6710  -34.0360 O.2   240  PHE240     -0.2718
    101  CB        16.0970    4.0130  -34.9490 C.3   240  PHE240      0.0547
    102  CG        17.2540    3.1230  -35.3220 C.ar  240  PHE240     -0.0202
    103  CD1       17.8620    3.2360  -36.5640 C.ar  240  PHE240     -0.0042
    104  CD2       17.7360    2.1390  -34.4190 C.ar  240  PHE240     -0.0042
    105  CE1       18.9090    2.3960  -36.9180 C.ar  240  PHE240     -0.0003
    106  CE2       18.7980    1.3180  -34.7650 C.ar  240  PHE240     -0.0003
    107  CZ        19.3880    1.4500  -35.9900 C.ar  240  PHE240     -0.0000
    108  N         14.6970    1.2390  -36.2270 N.am  241  THR241     -0.1939
    109  CA        14.8380   -0.1960  -36.0650 C.3   241  THR241      0.2028
    110  C         16.1330   -0.6720  -36.7090 C.2   241  THR241      0.2643
    111  O         16.3980   -0.3830  -37.8650 O.2   241  THR241     -0.2714
    112  CB        13.6560   -0.9580  -36.6770 C.3   241  THR241      0.1808
    113  OG1       12.4500   -0.4970  -36.0580 O.3   241  THR241     -0.2208
    114  CG2       13.7940   -2.4820  -36.4360 C.3   241  THR241      0.0379
    115  N         16.9440   -1.3430  -35.9330 N.am  242  GLY242     -0.1939
    116  CA        18.2160   -1.8340  -36.4090 C.3   242  GLY242      0.2014
    117  C         19.0120   -2.3660  -35.2720 C.2   242  GLY242      0.2639
    118  O         18.4500   -2.9670  -34.3640 O.2   242  GLY242     -0.2714
    119  N         20.3360   -2.2010  -35.3430 N.am  243  GLY243     -0.1954
    120  CA        21.2260   -2.7640  -34.3880 C.3   243  GLY243      0.1869
    121  C         21.5030   -1.8750  -33.1910 C.2   243  GLY243      0.2309
    122  O         21.3460   -0.6660  -33.2550 O.2   243  GLY243     -0.2863
    123  N         24.0860    1.2750  -33.4650 N.3   246  THR246     -0.1218
    124  CA        23.5570    2.4480  -34.1550 C.3   246  THR246      0.1862
    125  C         22.4500    3.0600  -33.3300 C.2   246  THR246      0.2287
    126  O         22.3210    4.2790  -33.2850 O.2   246  THR246     -0.2866
    127  CB        23.0230    2.0790  -35.5360 C.3   246  THR246      0.1770
    128  OG1       24.0720    1.4330  -36.2480 O.3   246  THR246     -0.2211
    129  CG2       22.5700    3.3060  -36.2950 C.3   246  THR246      0.0375
    130  N         23.8980    5.2690  -30.6330 N.3   249  HIS249     -0.1226
    131  CA        24.4410    6.4710  -31.2350 C.3   249  HIS249      0.1752
    132  C         23.3290    7.4730  -31.5280 C.2   249  HIS249      0.2595
    133  O         23.4580    8.6670  -31.2580 O.2   249  HIS249     -0.2718
    134  CB        25.1610    6.1130  -32.5430 C.3   249  HIS249      0.0759
    135  CG        25.6970    7.3070  -33.2710 C.ar  249  HIS249      0.0818
    136  ND1       26.9850    7.7720  -33.0940 N.ar  249  HIS249     -0.2268
    137  CD2       25.0920    8.1790  -34.1150 C.ar  249  HIS249      0.1154
    138  CE1       27.1580    8.8680  -33.8260 C.ar  249  HIS249      0.1986
    139  NE2       26.0260    9.1390  -34.4510 N.ar  249  HIS249     -0.2212
    140  N         22.2280    6.9670  -32.1050 N.am  250  ILE250     -0.1980
    141  CA        21.0380    7.7550  -32.3930 C.3   250  ILE250      0.1595
    142  C         20.4540    8.3910  -31.1180 C.2   250  ILE250      0.2287
    143  O         20.1400    9.5940  -31.1090 O.2   250  ILE250     -0.2864
    144  CB        19.9770    6.8840  -33.1330 C.3   250  ILE250      0.0276
    145  CG1       20.4450    6.6560  -34.5960 C.3   250  ILE250      0.0022
    146  CG2       18.5870    7.4920  -33.0260 C.3   250  ILE250      0.0022
    147  CD1       19.5260    5.7540  -35.3690 C.3   250  ILE250      0.0001
    148  N         13.8170   -0.0960  -31.8170 N.3   264  GLU264     -0.1245
    149  CA        13.7050   -1.5500  -31.7110 C.3   264  GLU264      0.1567
    150  C         15.0080   -2.1710  -32.1960 C.2   264  GLU264      0.2260
    151  O         15.3810   -1.9320  -33.3460 O.2   264  GLU264     -0.2867
    152  CB        12.5180   -2.0960  -32.4450 C.3   264  GLU264      0.0388
    153  CG        12.1970   -3.5440  -31.9750 C.3   264  GLU264      0.1160
    154  CD        12.6590   -4.6330  -32.9590 C.2   264  GLU264      0.3649
    155  OE1       11.9340   -4.8920  -33.9570 O.co2 264  GLU264     -0.2457
    156  OE2       13.7390   -5.2280  -32.7500 O.co2 264  GLU264     -0.2457
    157  N         16.5930   -5.6050  -31.9260 N.3   266  GLY266     -0.1225
    158  CA        16.9640   -7.0400  -32.0920 C.3   266  GLY266      0.1811
    159  C         17.0180   -7.6980  -30.7200 C.2   266  GLY266      0.2280
    160  O         16.5660   -7.1450  -29.7210 O.2   266  GLY266     -0.2866
    161  N         14.7240   -9.9240  -36.2660 N.3   298  CYS298     -0.1235
    162  CA        14.8640   -9.3530  -34.9160 C.3   298  CYS298      0.1677
    163  C         14.5040  -10.3760  -33.8660 C.2   298  CYS298      0.2270
    164  O         15.1350  -10.4200  -32.8150 O.2   298  CYS298     -0.2867
    165  CB        13.9640   -8.1240  -34.7440 C.3   298  CYS298      0.0956
    166  SG        12.2010   -8.4650  -34.9500 S.3   298  CYS298     -0.0801
    167  N         29.3830   -7.5590  -46.4630 N.3   344  GLU344     -0.1231
    168  CA        29.7350   -7.1270  -45.1480 C.3   344  GLU344      0.1699
    169  C         29.0310   -7.9640  -44.0790 C.2   344  GLU344      0.2592
    170  O         29.6480   -8.3700  -43.0930 O.2   344  GLU344     -0.2718
    171  CB        29.3830   -5.6620  -44.9660 C.3   344  GLU344      0.0402
    172  CG        29.7760   -5.1460  -43.5840 C.3   344  GLU344      0.1161
    173  CD        29.5750   -3.6440  -43.4250 C.2   344  GLU344      0.3649
    174  OE1       28.6440   -3.2300  -42.6780 O.co2 344  GLU344     -0.2457
    175  OE2       30.3510   -2.8870  -44.0660 O.co2 344  GLU344     -0.2457
    176  N         27.7580   -8.2790  -44.3050 N.am  345  HIS345     -0.1976
    177  CA        27.0410   -9.0220  -43.3020 C.3   345  HIS345      0.1656
    178  C         27.4790  -10.4800  -43.2660 C.2   345  HIS345      0.2291
    179  O         27.5950  -11.0990  -42.1790 O.2   345  HIS345     -0.2864
    180  CB        25.5220   -8.9280  -43.5030 C.3   345  HIS345      0.0771
    181  CG        24.7510   -9.4510  -42.3390 C.ar  345  HIS345      0.0820
    182  ND1       24.8810   -8.9130  -41.0800 N.ar  345  HIS345     -0.2267
    183  CD2       23.8550  -10.4610  -42.2280 C.ar  345  HIS345      0.1154
    184  CE1       24.1330   -9.5980  -40.2320 C.ar  345  HIS345      0.1986
    185  NE2       23.4780  -10.5150  -40.9120 N.ar  345  HIS345     -0.2212
    186  N         30.5520  -10.7250  -41.2780 N.3   348  LYS348     -0.1245
    187  CA        30.2850  -10.6590  -39.8180 C.3   348  LYS348      0.1561
    188  C         29.8890  -12.0380  -39.2860 C.2   348  LYS348      0.2260
    189  O         30.3690  -12.4810  -38.2520 O.2   348  LYS348     -0.2867
    190  CB        29.1540   -9.7020  -39.4580 C.3   348  LYS348      0.0271
    191  CG        29.4920   -8.2190  -39.5650 C.3   348  LYS348      0.0035
    192  CD        28.4370   -7.3500  -38.8100 C.3   348  LYS348      0.0206
    193  CE        28.2570   -5.9150  -39.3350 C.3   348  LYS348      0.1093
    194  NZ        29.5590   -5.2970  -39.7560 N.3   348  LYS348     -0.1314
    195  N         24.1790  -11.0280  -30.6880 N.3   399  GLU399     -0.1231
    196  CA        23.2600  -11.2270  -31.8020 C.3   399  GLU399      0.1699
    197  C         24.0530  -11.3730  -33.1030 C.2   399  GLU399      0.2592
    198  O         24.6670  -10.4030  -33.5680 O.2   399  GLU399     -0.2718
    199  CB        22.2780  -10.0470  -31.9120 C.3   399  GLU399      0.0402
    200  CG        21.2180  -10.2910  -32.9830 C.3   399  GLU399      0.1161
    201  CD        20.3520   -9.0780  -33.2400 C.2   399  GLU399      0.3649
    202  OE1       20.9130   -7.9720  -33.5140 O.co2 399  GLU399     -0.2457
    203  OE2       19.1280   -9.2780  -33.2000 O.co2 399  GLU399     -0.2457
    204  N         24.0430  -12.5950  -33.6590 N.am  400  VAL400     -0.1966
    205  CA        24.7720  -12.9190  -34.8910 C.3   400  VAL400      0.1727
    206  C         23.9640  -12.5670  -36.1460 C.2   400  VAL400      0.2616
    207  O         24.5170  -12.1460  -37.1280 O.2   400  VAL400     -0.2715
    208  CB        25.1670  -14.4150  -34.9280 C.3   400  VAL400      0.0290
    209  CG1       25.8980  -14.7840  -36.2580 C.3   400  VAL400      0.0023
    210  CG2       26.0280  -14.7670  -33.7340 C.3   400  VAL400      0.0023
    211  N         22.6440  -12.7430  -36.1120 N.am  401  PHE401     -0.1974
    212  CA        21.7980  -12.2820  -37.1810 C.3   401  PHE401      0.1639
    213  C         22.0170  -13.0450  -38.4990 C.2   401  PHE401      0.2290
    214  O         22.0310  -12.4620  -39.5710 O.2   401  PHE401     -0.2864
    215  CB        21.9030  -10.7780  -37.3700 C.3   401  PHE401      0.0560
    216  CG        20.5760  -10.1010  -37.5420 C.ar  401  PHE401     -0.0200
    217  CD1       19.6510  -10.0930  -36.5260 C.ar  401  PHE401     -0.0042
    218  CD2       20.2260   -9.5120  -38.7620 C.ar  401  PHE401     -0.0042
    219  CE1       18.4330   -9.4510  -36.6810 C.ar  401  PHE401     -0.0003
    220  CE2       19.0160   -8.8720  -38.9320 C.ar  401  PHE401     -0.0003
    221  CZ        18.1120   -8.8320  -37.9010 C.ar  401  PHE401     -0.0000
@<TRIPOS>BOND
     1    63    62    2
     2    62    61    1
     3    61    64    1
     4    61    60    1
     5    64    65    1
     6    57    56    2
     7    65    66    1
     8    60    56   am
     9    56    55    1
    10   167   168    1
    11    66    68   ar
    12    66    67   ar
    13    26    25    2
    14    59    58    1
    15    55    54    1
    16    55    58    1
    17   168   171    1
    18   168   169    1
    19    50    51    1
    20    50    49    1
    21    27    24    1
    22    27    28    1
    23   171   172    1
    24    46    47    1
    25    46    49    1
    26    46    45    1
    27    47    48    2
    28    25    24    1
    29    25    37   am
    30    40    39    2
    31    24    23    1
    32    53    52    1
    33    51    52    1
    34   176   169   am
    35   176   177    1
    36    78    77    1
    37   169   170    2
    38    28    30   ar
    39    28    29   ar
    40   175   173   ar
    41    33    30   ar
    42    33    35   ar
    43    39    38    1
    44   172   173    1
    45    30    32   ar
    46    19    18    2
    47    69    70    1
    48   180   177    1
    49   180   181    1
    50    37    38    1
    51    14    13    1
    52    29    31   ar
    53   173   174   ar
    54    38    41    1
    55    23    18   am
    56   177   178    1
    57   178   179    2
    58    35    36   ar
    59    18    17    1
    60    77    74    1
    61    75    76    2
    62    75    74    1
    63    32    31   ar
    64    32    34   ar
    65    73    74    1
    66    73    71   am
    67   181   183   ar
    68   181   182   ar
    69    12    11    2
    70    36    34   ar
    71   183   185   ar
    72    70    71    1
    73    13    15    1
    74    13    10    1
    75    41    42    1
    76    71    72    2
    77    11    16   am
    78    11    10    1
    79    17    16    1
    80    17    20    1
    81    79    80    1
    82    16    22    1
    83   186   187    1
    84    10     9    1
    85     9     3   am
    86   182   184   ar
    87   185   184   ar
    88    42    43    2
    89    42    44   am
    90    22    21    1
    91    20    21    1
    92    80    81    1
    93     2     3    1
    94     2     1    1
    95     2     5    1
    96     3     4    2
    97     7     5    1
    98   187   190    1
    99   187   188    1
   100   194   193    1
   101     6     5    1
   102     6     8    1
   103   214   213    2
   104   191   190    1
   105   191   192    1
   106   193   192    1
   107   188   189    2
   108    81    83   am
   109    81    82    2
   110   220   218   ar
   111   220   221   ar
   112    83    84    1
   113   218   216   ar
   114   213   212    1
   115    85    84    1
   116    85    86    2
   117   221   219   ar
   118   111   110    2
   119    84    87    1
   120   216   215    1
   121   216   217   ar
   122    87    88    1
   123   215   212    1
   124   212   211    1
   125   207   206    2
   126   105   103   ar
   127   105   107   ar
   128    91    92    1
   129    88    90   ar
   130    88    89   ar
   131   110   109    1
   132   110   115   am
   133   219   217   ar
   134   112   114    1
   135   112   109    1
   136   112   113    1
   137   103   102   ar
   138   116   115    1
   139   116   117    1
   140   129   127    1
   141   161   162    1
   142   209   208    1
   143   128   127    1
   144   108   109    1
   145   108    99   am
   146   206   211   am
   147   206   205    1
   148   107   106   ar
   149   127   124    1
   150    98    99    1
   151    98   101    1
   152    98    97    1
   153   147   145    1
   154    92    95    1
   155    92    93    1
   156   119   117   am
   157   119   120    1
   158   102   101    1
   159   102   104   ar
   160   117   118    2
   161    99   100    2
   162    96    95    1
   163   166   165    1
   164   208   205    1
   165   208   210    1
   166   162   165    1
   167   162   163    1
   168   205   204    1
   169   106   104   ar
   170   145   144    1
   171    93    94    2
   172   139   137   ar
   173   139   138   ar
   174   120   121    1
   175   124   123    1
   176   124   125    1
   177   137   135   ar
   178   155   154   ar
   179   163   164    2
   180   138   136   ar
   181   204   197   am
   182   198   197    2
   183   202   201   ar
   184   151   150    2
   185   125   126    2
   186   135   136   ar
   187   135   134    1
   188   122   121    2
   189   201   203   ar
   190   201   200    1
   191   144   146    1
   192   144   141    1
   193   197   196    1
   194   200   199    1
   195   154   156   ar
   196   154   153    1
   197   134   131    1
   198   152   153    1
   199   152   149    1
   200   141   140    1
   201   141   142    1
   202   150   149    1
   203   140   132   am
   204   158   157    1
   205   158   159    1
   206   199   196    1
   207   148   149    1
   208   196   195    1
   209   132   133    2
   210   132   131    1
   211   131   130    1
   212   142   143    2
   213   159   160    2
