@<TRIPOS>MOLECULE
tmp/4necC00.pdb
 172 166 0 0 0
SMALL
GASTEIGER

@<TRIPOS>ATOM
      1  N        -10.9800  107.6410   36.2380 N.3     2  MET2       -0.1245
      2  CA       -10.7150  106.6910   37.3190 C.3     2  MET2        0.1570
      3  C         -9.8220  107.2700   38.4200 C.2     2  MET2        0.2261
      4  O         -9.4180  106.5450   39.3300 O.2     2  MET2       -0.2867
      5  CB       -10.0560  105.4350   36.7380 C.3     2  MET2        0.0387
      6  CG       -10.9150  104.7020   35.7190 C.3     2  MET2        0.0595
      7  SD       -12.3750  103.9540   36.4650 S.3     2  MET2       -0.1393
      8  CE       -11.6300  102.5740   37.3250 C.3     2  MET2        0.0692
      9  N        -11.3920  107.0450   41.8850 N.3     5  VAL5       -0.1231
     10  CA       -11.6700  105.6400   42.1880 C.3     5  VAL5        0.1692
     11  C        -10.4220  105.0020   42.8010 C.2     5  VAL5        0.2592
     12  O        -10.4820  104.4000   43.8730 O.2     5  VAL5       -0.2718
     13  CB       -12.1090  104.8600   40.9240 C.3     5  VAL5        0.0266
     14  CG1      -12.2870  103.3770   41.2350 C.3     5  VAL5        0.0020
     15  CG2      -13.3990  105.4440   40.3500 C.3     5  VAL5        0.0020
     16  N         -9.2900  105.1550   42.1180 N.am    6  PHE6       -0.1976
     17  CA        -8.0110  104.6930   42.6520 C.3     6  PHE6        0.1639
     18  C         -7.4870  105.5600   43.7950 C.2     6  PHE6        0.2290
     19  O         -6.9310  105.0330   44.7500 O.2     6  PHE6       -0.2864
     20  CB        -6.9540  104.5950   41.5470 C.3     6  PHE6        0.0560
     21  CG        -7.1070  103.3830   40.6830 C.ar    6  PHE6       -0.0200
     22  CD1       -6.6150  102.1510   41.0990 C.ar    6  PHE6       -0.0042
     23  CD2       -7.7460  103.4640   39.4570 C.ar    6  PHE6       -0.0042
     24  CE1       -6.7520  101.0260   40.3030 C.ar    6  PHE6       -0.0003
     25  CE2       -7.8860  102.3420   38.6600 C.ar    6  PHE6       -0.0003
     26  CZ        -7.3920  101.1230   39.0830 C.ar    6  PHE6       -0.0000
     27  N         -8.7660  104.6100   47.1230 N.3     9  VAL9       -0.1245
     28  CA        -8.0980  103.4090   47.6240 C.3     9  VAL9        0.1561
     29  C         -6.7610  103.7600   48.2860 C.2     9  VAL9        0.2260
     30  O         -6.4950  103.3450   49.4120 O.2     9  VAL9       -0.2867
     31  CB        -7.8800  102.3530   46.5090 C.3     9  VAL9        0.0252
     32  CG1       -6.9750  101.2250   46.9970 C.3     9  VAL9        0.0019
     33  CG2       -9.2150  101.8070   46.0020 C.3     9  VAL9        0.0019
     34  N        -11.1630  102.8410   51.2410 N.3    14  SER14      -0.1203
     35  CA       -11.8720  101.6970   50.6720 C.3    14  SER14       0.2005
     36  C        -11.8890  100.5140   51.6570 C.2    14  SER14       0.2461
     37  O        -11.2510  100.5800   52.7120 O.2    14  SER14      -0.2732
     38  CB       -11.1910  101.2840   49.3600 C.3    14  SER14       0.2103
     39  OG       -10.2000  100.2900   49.5780 O.3    14  SER14      -0.2182
     40  N        -12.6130   99.4250   51.3160 N.am   15  PRO15      -0.2717
     41  CA       -12.5880   98.1740   52.0950 C.3    15  PRO15       0.1535
     42  C        -11.1950   97.5840   52.3630 C.2    15  PRO15       0.2598
     43  O        -11.0320   96.7890   53.2990 O.2    15  PRO15      -0.2715
     44  CB       -13.3970   97.2090   51.2240 C.3    15  PRO15       0.0310
     45  CG       -14.3460   98.0800   50.4870 C.3    15  PRO15       0.0237
     46  CD       -13.6420   99.3860   50.2600 C.3    15  PRO15       0.0939
     47  N        -10.2090   97.9410   51.5420 N.am   16  PHE16      -0.1974
     48  CA        -8.8430   97.4570   51.7380 C.3    16  PHE16       0.1639
     49  C         -8.1500   98.1160   52.9240 C.2    16  PHE16       0.2290
     50  O         -7.2340   97.5330   53.5040 O.2    16  PHE16      -0.2864
     51  CB        -7.9990   97.6840   50.4870 C.3    16  PHE16       0.0560
     52  CG        -8.5490   97.0400   49.2500 C.ar   16  PHE16      -0.0200
     53  CD1       -9.0410   95.7400   49.2780 C.ar   16  PHE16      -0.0042
     54  CD2       -8.5450   97.7240   48.0450 C.ar   16  PHE16      -0.0042
     55  CE1       -9.5310   95.1460   48.1300 C.ar   16  PHE16      -0.0003
     56  CE2       -9.0340   97.1320   46.8950 C.ar   16  PHE16      -0.0003
     57  CZ        -9.5290   95.8420   46.9400 C.ar   16  PHE16      -0.0000
     58  N         -4.5200   95.4070   47.6380 N.3    21  PRO21      -0.2102
     59  CA        -3.9330   94.0640   47.4630 C.3    21  PRO21       0.1504
     60  C         -2.8140   93.9460   46.4230 C.2    21  PRO21       0.2575
     61  O         -2.2230   92.8780   46.2870 O.2    21  PRO21      -0.2718
     62  CB        -5.1380   93.1910   47.0790 C.3    21  PRO21       0.0282
     63  CG        -6.1430   94.1350   46.5210 C.3    21  PRO21       0.0208
     64  CD        -5.9120   95.4790   47.1480 C.3    21  PRO21       0.0893
     65  N         -2.5270   95.0320   45.7140 N.am   22  TRP22      -0.1977
     66  CA        -1.3600   95.1100   44.8260 C.3    22  TRP22       0.1640
     67  C         -0.1810   95.8580   45.4520 C.2    22  TRP22       0.2290
     68  O          0.9240   95.8490   44.9100 O.2    22  TRP22      -0.2864
     69  CB        -1.7330   95.8140   43.5250 C.3    22  TRP22       0.0576
     70  CG        -2.2990   97.1880   43.6990 C.ar   22  TRP22       0.0006
     71  CD1       -1.6100   98.3610   43.7880 C.ar   22  TRP22       0.0946
     72  CD2       -3.6870   97.5320   43.7810 C.ar   22  TRP22       0.0152
     73  NE1       -2.4770   99.4100   43.9270 N.ar   22  TRP22      -0.2442
     74  CE2       -3.7610   98.9340   43.9250 C.ar   22  TRP22       0.0810
     75  CE3       -4.8740   96.7910   43.7450 C.ar   22  TRP22       0.0012
     76  CZ2       -4.9830   99.6120   44.0350 C.ar   22  TRP22       0.0191
     77  CZ3       -6.0810   97.4630   43.8560 C.ar   22  TRP22       0.0001
     78  CH2       -6.1240   98.8590   44.0000 C.ar   22  TRP22       0.0015
     79  N         -0.0230   95.5590   36.3080 N.3   113  GLY113     -0.1225
     80  CA        -1.4180   95.6650   36.7020 C.3   113  GLY113      0.1811
     81  C         -2.1360   96.9430   36.3150 C.2   113  GLY113      0.2280
     82  O         -3.1900   97.2570   36.8840 O.2   113  GLY113     -0.2866
     83  N         -4.2010   95.3990   32.8070 N.3   116  HIS116     -0.1226
     84  CA        -5.3040   94.4800   33.1010 C.3   116  HIS116      0.1752
     85  C         -6.6030   95.1470   33.5660 C.2   116  HIS116      0.2596
     86  O         -7.6370   94.4830   33.6180 O.2   116  HIS116     -0.2718
     87  CB        -4.8820   93.3090   34.0100 C.3   116  HIS116      0.0759
     88  CG        -4.5230   93.6770   35.4190 C.ar  116  HIS116      0.0818
     89  ND1       -3.7120   92.8760   36.1930 N.ar  116  HIS116     -0.2268
     90  CD2       -4.8730   94.7210   36.2060 C.ar  116  HIS116      0.1154
     91  CE1       -3.5850   93.4030   37.3940 C.ar  116  HIS116      0.1986
     92  NE2       -4.2690   94.5310   37.4250 N.ar  116  HIS116     -0.2212
     93  N         -6.5580   96.4530   33.8480 N.am  117  THR117     -0.1953
     94  CA        -7.7670   97.2280   34.1590 C.3   117  THR117      0.1897
     95  C         -8.5170   97.6520   32.8920 C.2   117  THR117      0.2313
     96  O         -9.7030   97.9680   32.9530 O.2   117  THR117     -0.2863
     97  CB        -7.4720   98.5010   34.9900 C.3   117  THR117      0.1794
     98  OG1       -6.8780   99.5150   34.1690 O.3   117  THR117     -0.2208
     99  CG2       -6.5650   98.1980   36.1750 C.3   117  THR117      0.0378
    100  N         -2.9420   90.0660   35.0830 N.3   145  ILE145     -0.1245
    101  CA        -3.5260   88.9360   35.7500 C.3   145  ILE145      0.1561
    102  C         -4.3010   88.1900   34.6760 C.2   145  ILE145      0.2260
    103  O         -4.7710   88.7850   33.7010 O.2   145  ILE145     -0.2867
    104  CB        -4.4360   89.3780   36.9210 C.3   145  ILE145      0.0252
    105  CG1       -4.6690   88.2200   37.8940 C.3   145  ILE145      0.0019
    106  CG2       -5.7600   89.9460   36.4180 C.3   145  ILE145      0.0019
    107  CD1       -5.2690   88.6540   39.2130 C.3   145  ILE145      0.0001
    108  N         -7.0690   85.7820   38.3860 N.3   150  SER150     -0.1217
    109  CA        -8.1680   86.6070   38.8640 C.3   150  SER150      0.1889
    110  C         -9.1770   85.7880   39.6670 C.2   150  SER150      0.2288
    111  O         -9.7250   86.2840   40.6520 O.2   150  SER150     -0.2866
    112  CB        -8.8670   87.3020   37.6970 C.3   150  SER150      0.2089
    113  OG        -9.7860   88.2660   38.1710 O.3   150  SER150     -0.2183
    114  N         -7.4720   85.3110   43.1860 N.3   153  MET153     -0.1230
    115  CA        -7.4200   86.5620   43.9380 C.3   153  MET153      0.1702
    116  C         -8.8140   86.9960   44.3840 C.2   153  MET153      0.2592
    117  O         -8.9990   87.4290   45.5230 O.2   153  MET153     -0.2718
    118  CB        -6.7570   87.6730   43.1130 C.3   153  MET153      0.0401
    119  CG        -6.6310   89.0130   43.8350 C.3   153  MET153      0.0596
    120  SD        -5.7630   88.9410   45.4170 S.3   153  MET153     -0.1393
    121  CE        -4.1260   88.4650   44.8710 C.3   153  MET153      0.0692
    122  N         -9.7930   86.8660   43.4940 N.am  154  GLN154     -0.1979
    123  CA       -11.1660   87.2390   43.8250 C.3   154  GLN154      0.1601
    124  C        -11.7000   86.4000   44.9910 C.2   154  GLN154      0.2287
    125  O        -12.3150   86.9340   45.9150 O.2   154  GLN154     -0.2864
    126  CB       -12.0760   87.0990   42.5980 C.3   154  GLN154      0.0394
    127  CG       -13.4610   87.6990   42.7690 C.3   154  GLN154      0.0908
    128  CD       -13.4500   89.2140   42.8450 C.2   154  GLN154      0.2608
    129  OE1      -12.6040   89.8740   42.2380 O.2   154  GLN154     -0.2717
    130  NE2      -14.3990   89.7760   43.5890 N.am  154  GLN154     -0.0878
    131  N         -9.8220   87.3320   48.3390 N.3   157  LEU157     -0.1245
    132  CA       -10.2940   88.6360   48.8060 C.3   157  LEU157      0.1561
    133  C        -11.7600   88.5820   49.2470 C.2   157  LEU157      0.2260
    134  O        -12.1700   89.3280   50.1390 O.2   157  LEU157     -0.2867
    135  CB       -10.0870   89.7140   47.7310 C.3   157  LEU157      0.0270
    136  CG        -8.6300   90.0480   47.3910 C.3   157  LEU157      0.0019
    137  CD1       -8.5740   91.0470   46.2460 C.3   157  LEU157      0.0001
    138  CD2       -7.8830   90.5740   48.6100 C.3   157  LEU157      0.0001
    139  N        -16.4900   92.5640   49.3730 N.3   164  ILE164     -0.1231
    140  CA       -16.0340   92.0380   48.0860 C.3   164  ILE164      0.1678
    141  C        -16.8060   90.7630   47.7360 C.2   164  ILE164      0.2434
    142  O        -16.8440   89.8330   48.5350 O.2   164  ILE164     -0.2733
    143  CB       -14.5240   91.7030   48.1090 C.3   164  ILE164      0.0265
    144  CG1      -13.6920   92.8990   48.6060 C.3   164  ILE164      0.0019
    145  CG2      -14.0570   91.2440   46.7340 C.3   164  ILE164      0.0020
    146  CD1      -13.8700   94.1760   47.8110 C.3   164  ILE164      0.0001
    147  N        -17.4220   90.7110   46.5390 N.am  165  PRO165     -0.2729
    148  CA       -18.1610   89.5060   46.1430 C.3   165  PRO165      0.1401
    149  C        -17.2660   88.3640   45.6500 C.2   165  PRO165      0.2269
    150  O        -16.1400   88.5990   45.2030 O.2   165  PRO165     -0.2865
    151  CB       -19.0670   90.0040   45.0150 C.3   165  PRO165      0.0296
    152  CG       -18.3530   91.1750   44.4380 C.3   165  PRO165      0.0237
    153  CD       -17.5610   91.7980   45.5510 C.3   165  PRO165      0.0939
    154  N        -14.7390   91.3540   30.9290 N.3   177  LEU177     -0.1245
    155  CA       -13.9190   90.9770   32.0770 C.3   177  LEU177      0.1561
    156  C        -12.9710   89.8090   31.7890 C.2   177  LEU177      0.2260
    157  O        -12.2600   89.3680   32.6860 O.2   177  LEU177     -0.2867
    158  CB       -14.8140   90.6250   33.2660 C.3   177  LEU177      0.0270
    159  CG       -15.8210   91.6850   33.7180 C.3   177  LEU177      0.0019
    160  CD1      -16.4350   91.2450   35.0330 C.3   177  LEU177      0.0001
    161  CD2      -15.1860   93.0600   33.8620 C.3   177  LEU177      0.0001
    162  N         -9.7140   87.8800   30.5830 N.3   179  ARG179     -0.1245
    163  CA        -8.2910   88.2000   30.5480 C.3   179  ARG179      0.1563
    164  C         -7.4860   86.9970   30.0670 C.2   179  ARG179      0.2260
    165  O         -6.5850   86.5160   30.7560 O.2   179  ARG179     -0.2867
    166  CB        -7.8160   88.6690   31.9290 C.3   179  ARG179      0.0307
    167  CG        -8.4300   89.9860   32.3840 C.3   179  ARG179      0.0489
    168  CD        -7.9390   91.1590   31.5520 C.3   179  ARG179      0.2205
    169  NE        -8.5410   92.4260   31.9660 N.pl3 179  ARG179     -0.0865
    170  CZ        -9.7020   92.9140   31.5230 C.cat 179  ARG179      0.5346
    171  NH1      -10.4400   92.2610   30.6330 N.pl3 179  ARG179      0.1354
    172  NH2      -10.1270   94.0890   31.9770 N.pl3 179  ARG179      0.1354
@<TRIPOS>BOND
     1   164   163    1
     2   164   165    2
     3   163   162    1
     4   163   166    1
     5   171   170    1
     6   154   155    1
     7   170   169    2
     8   170   172    1
     9   168   169    1
    10   168   167    1
    11   156   155    1
    12   156   157    2
    13   166   167    1
    14   155   158    1
    15    83    84    1
    16    95    96    2
    17    95    94    1
    18    84    85    1
    19    84    87    1
    20   158   159    1
    21    85    86    2
    22    85    93   am
    23   103   102    2
    24   159   161    1
    25   159   160    1
    26    93    94    1
    27    87    88    1
    28    94    97    1
    29    98    97    1
    30   102   101    1
    31    97    99    1
    32   100   101    1
    33    88    89   ar
    34    88    90   ar
    35     6     7    1
    36     6     5    1
    37   101   104    1
    38    89    91   ar
    39    90    92   ar
    40     1     2    1
    41    79    80    1
    42    81    80    1
    43    81    82    2
    44   106   104    1
    45     7     8    1
    46     5     2    1
    47   104   105    1
    48     2     3    1
    49    91    92   ar
    50   112   113    1
    51   112   109    1
    52   105   107    1
    53   108   109    1
    54     3     4    2
    55    25    26   ar
    56    25    23   ar
    57   109   110    1
    58    26    24   ar
    59    23    21   ar
    60   110   111    2
    61    24    22   ar
    62    15    13    1
    63    21    22   ar
    64    21    20    1
    65    13    14    1
    66    13    10    1
    67    20    17    1
    68     9    10    1
    69    16    17    1
    70    16    11   am
    71    10    11    1
    72   129   128    2
    73   126   127    1
    74   126   123    1
    75    17    18    1
    76   127   128    1
    77    11    12    2
    78   128   130   am
    79   118   119    1
    80   118   115    1
    81   114   115    1
    82   122   123    1
    83   122   116   am
    84    69    70    1
    85    69    66    1
    86    70    72   ar
    87    70    71   ar
    88    75    72   ar
    89    75    77   ar
    90    72    74   ar
    91    71    73   ar
    92    18    19    2
    93   123   124    1
    94   119   120    1
    95    77    78   ar
    96    74    73   ar
    97    74    76   ar
    98   115   116    1
    99    78    76   ar
   100   116   117    2
   101   152   151    1
   102   152   153    1
   103    66    67    1
   104    66    65    1
   105   121   120    1
   106    68    67    2
   107   124   125    2
   108   151   148    1
   109   150   149    2
   110   153   147    1
   111   149   148    1
   112    65    60   am
   113    33    31    1
   114   148   147    1
   115   137   136    1
   116    61    60    2
   117    60    59    1
   118    31    32    1
   119    31    28    1
   120    63    62    1
   121    63    64    1
   122   147   141   am
   123   145   143    1
   124    56    57   ar
   125    56    54   ar
   126    57    55   ar
   127    62    59    1
   128    27    28    1
   129    64    58    1
   130   136   135    1
   131   136   138    1
   132    59    58    1
   133    28    29    1
   134   135   132    1
   135   141   140    1
   136   141   142    2
   137   146   144    1
   138    54    52   ar
   139   140   143    1
   140   140   139    1
   141   143   144    1
   142    55    53   ar
   143    29    30    2
   144   131   132    1
   145   132   133    1
   146   133   134    2
   147    52    53   ar
   148    52    51    1
   149    38    39    1
   150    38    35    1
   151    46    45    1
   152    46    40    1
   153    45    44    1
   154    51    48    1
   155    35    34    1
   156    35    36    1
   157    44    41    1
   158    40    36   am
   159    40    41    1
   160    47    48    1
   161    47    42   am
   162    36    37    2
   163    48    49    1
   164    41    42    1
   165    42    43    2
   166    49    50    2
