@<TRIPOS>MOLECULE
tmp/4necG03.pdb
 92 91 0 0 0
SMALL
GASTEIGER

@<TRIPOS>ATOM
      1  N         -0.6240   49.2670   51.9710 N.3    43  ALA43      -0.1245
      2  CA        -1.6200   48.5260   52.7560 C.3    43  ALA43       0.1562
      3  C         -2.1080   49.4060   53.8980 C.2    43  ALA43       0.2260
      4  O         -1.3210   49.8360   54.7370 O.2    43  ALA43      -0.2867
      5  CB        -1.0350   47.2370   53.2980 C.3    43  ALA43       0.0290
      6  N         -9.7140   52.1920   45.3450 N.3    62  GLY62      -0.1210
      7  CA        -8.7320   51.1820   44.9370 C.3    62  GLY62       0.1956
      8  C         -7.6770   50.8210   45.9700 C.2    62  GLY62       0.2612
      9  O         -6.7650   50.0420   45.6710 O.2    62  GLY62      -0.2717
     10  N         -7.7870   51.3780   47.1800 N.am   63  TYR63      -0.1962
     11  CA        -6.8280   51.0850   48.2460 C.3    63  TYR63       0.1771
     12  C         -7.0300   49.6770   48.7900 C.2    63  TYR63       0.2619
     13  O         -8.1540   49.1820   48.8490 O.2    63  TYR63      -0.2715
     14  CB        -6.9400   52.1020   49.3910 C.3    63  TYR63       0.0574
     15  CG        -6.4350   53.4780   49.0170 C.ar   63  TYR63      -0.0198
     16  CD1       -7.2750   54.4110   48.4120 C.ar   63  TYR63      -0.0009
     17  CD2       -5.1110   53.8410   49.2480 C.ar   63  TYR63      -0.0009
     18  CE1       -6.8170   55.6670   48.0550 C.ar   63  TYR63       0.0417
     19  CE2       -4.6450   55.0920   48.8900 C.ar   63  TYR63       0.0417
     20  CZ        -5.4970   56.0020   48.2910 C.ar   63  TYR63       0.1957
     21  OH        -5.0290   57.2460   47.9400 O.3    63  TYR63      -0.2866
     22  N         -5.9290   49.0480   49.1830 N.am   64  ALA64      -0.1963
     23  CA        -5.9550   47.7830   49.8970 C.3    64  ALA64       0.1728
     24  C         -6.2080   48.0830   51.3740 C.2    64  ALA64       0.2616
     25  O         -5.3000   48.5200   52.0830 O.2    64  ALA64      -0.2715
     26  CB        -4.6290   47.0590   49.7240 C.3    64  ALA64       0.0334
     27  N         -7.4380   47.8570   51.8310 N.am   65  VAL65      -0.1963
     28  CA        -7.8120   48.2180   53.2010 C.3    65  VAL65       0.1727
     29  C         -8.1890   47.0200   54.0670 C.2    65  VAL65       0.2616
     30  O         -8.8780   46.1030   53.6230 O.2    65  VAL65      -0.2715
     31  CB        -8.9880   49.2250   53.2400 C.3    65  VAL65       0.0290
     32  CG1       -9.1560   49.7900   54.6460 C.3    65  VAL65       0.0023
     33  CG2       -8.7750   50.3510   52.2430 C.3    65  VAL65       0.0023
     34  N         -7.7120   47.0490   55.3100 N.am   66  THR66      -0.1951
     35  CA        -8.1710   46.1500   56.3560 C.3    66  THR66       0.1897
     36  C         -8.7350   46.9970   57.4790 C.2    66  THR66       0.2313
     37  O         -8.0730   47.9150   57.9400 O.2    66  THR66      -0.2863
     38  CB        -7.0120   45.3160   56.9140 C.3    66  THR66       0.1794
     39  OG1       -6.4640   44.5290   55.8600 O.3    66  THR66      -0.2208
     40  CG2       -7.4780   44.4010   58.0480 C.3    66  THR66       0.0378
     41  N        -14.0120   45.3400   47.7380 N.3    88  GLY88      -0.1210
     42  CA       -13.0430   44.4110   48.2850 C.3    88  GLY88       0.1956
     43  C        -12.3310   45.0530   49.4540 C.2    88  GLY88       0.2612
     44  O        -11.6450   46.0610   49.2920 O.2    88  GLY88      -0.2717
     45  N        -12.5300   44.4810   50.6360 N.am   89  ALA89      -0.1965
     46  CA       -11.8060   44.8800   51.8370 C.3    89  ALA89       0.1728
     47  C        -11.9040   43.7490   52.8510 C.2    89  ALA89       0.2616
     48  O        -12.8210   42.9260   52.7920 O.2    89  ALA89      -0.2715
     49  CB       -12.3770   46.1690   52.4100 C.3    89  ALA89       0.0334
     50  N        -10.9490   43.7030   53.7690 N.am   90  VAL90      -0.1977
     51  CA       -10.9580   42.7150   54.8320 C.3    90  VAL90       0.1596
     52  C        -11.4280   43.4330   56.0870 C.2    90  VAL90       0.2287
     53  O        -10.9000   44.4870   56.4310 O.2    90  VAL90      -0.2864
     54  CB        -9.5560   42.1090   55.0570 C.3    90  VAL90       0.0276
     55  CG1       -9.4890   41.3190   56.3570 C.3    90  VAL90       0.0022
     56  CG2       -9.1660   41.2340   53.8730 C.3    90  VAL90       0.0022
     57  N         -0.6840   40.2490   63.0280 N.3   102  TRP102     -0.1241
     58  CA        -0.6700   41.2910   61.9900 C.3   102  TRP102      0.1605
     59  C          0.6830   41.9890   61.8390 C.2   102  TRP102      0.2264
     60  O          0.7330   43.1510   61.4320 O.2   102  TRP102     -0.2867
     61  CB        -1.7180   42.3590   62.3090 C.3   102  TRP102      0.0550
     62  CG        -3.1040   41.8460   62.3710 C.ar  102  TRP102      0.0003
     63  CD1       -3.7850   41.4590   63.4870 C.ar  102  TRP102      0.0946
     64  CD2       -3.9950   41.6660   61.2710 C.ar  102  TRP102      0.0152
     65  NE1       -5.0480   41.0460   63.1490 N.ar  102  TRP102     -0.2442
     66  CE2       -5.2030   41.1580   61.7940 C.ar  102  TRP102      0.0810
     67  CE3       -3.8910   41.8800   59.8920 C.ar  102  TRP102      0.0012
     68  CZ2       -6.3010   40.8660   60.9870 C.ar  102  TRP102      0.0191
     69  CZ3       -4.9820   41.5840   59.0890 C.ar  102  TRP102      0.0001
     70  CH2       -6.1740   41.0830   59.6420 C.ar  102  TRP102      0.0015
     71  N          2.4050   44.4430   58.6610 N.3   105  ARG105     -0.1231
     72  CA         1.4710   44.2940   57.5400 C.3   105  ARG105      0.1694
     73  C          1.0660   45.6120   56.8700 C.2   105  ARG105      0.2592
     74  O          0.6440   45.6000   55.7130 O.2   105  ARG105     -0.2718
     75  CB         0.1990   43.5630   57.9990 C.3   105  ARG105      0.0321
     76  CG         0.4830   42.0920   58.1540 C.3   105  ARG105      0.0489
     77  CD         0.4880   41.3710   56.8260 C.3   105  ARG105      0.2205
     78  NE        -0.7120   41.5870   56.0320 N.pl3 105  ARG105     -0.0865
     79  CZ        -0.7190   42.1400   54.8180 C.cat 105  ARG105      0.5346
     80  NH1        0.4110   42.5680   54.2430 N.pl3 105  ARG105      0.1354
     81  NH2       -1.9030   42.2910   54.1990 N.pl3 105  ARG105      0.1354
     82  N          1.1840   46.7360   57.5780 N.am  106  PHE106     -0.1976
     83  CA         0.6000   48.0000   57.0990 C.3   106  PHE106      0.1639
     84  C          1.5960   49.1320   56.8670 C.2   106  PHE106      0.2290
     85  O          2.5600   49.3030   57.6180 O.2   106  PHE106     -0.2864
     86  CB        -0.4940   48.4570   58.0640 C.3   106  PHE106      0.0560
     87  CG        -1.5140   47.3950   58.3450 C.ar  106  PHE106     -0.0200
     88  CD1       -2.3450   46.9280   57.3370 C.ar  106  PHE106     -0.0042
     89  CD2       -1.6410   46.8600   59.6200 C.ar  106  PHE106     -0.0042
     90  CE1       -3.2700   45.9320   57.5980 C.ar  106  PHE106     -0.0003
     91  CE2       -2.5750   45.8740   59.8870 C.ar  106  PHE106     -0.0003
     92  CZ        -3.3920   45.4160   58.8740 C.ar  106  PHE106     -0.0000
@<TRIPOS>BOND
     1     7     6    1
     2     7     8    1
     3     9     8    2
     4     8    10   am
     5    10    11    1
     6    41    42    1
     7    21    20    1
     8    18    20   ar
     9    18    16   ar
    10    11    12    1
    11    11    14    1
    12    42    43    1
    13    20    19   ar
    14    16    15   ar
    15    12    13    2
    16    12    22   am
    17    19    17   ar
    18    15    17   ar
    19    15    14    1
    20    22    23    1
    21    44    43    2
    22    43    45   am
    23    26    23    1
    24    23    24    1
    25    45    46    1
    26    24    27   am
    27    24    25    2
    28    27    28    1
    29    46    49    1
    30    46    47    1
    31     1     2    1
    32    33    31    1
    33     2     5    1
    34     2     3    1
    35    48    47    2
    36    47    50   am
    37    28    31    1
    38    28    29    1
    39    31    32    1
    40    30    29    2
    41    50    51    1
    42    56    54    1
    43     3     4    2
    44    29    34   am
    45    81    79    1
    46    80    79    1
    47    79    78    2
    48    51    54    1
    49    51    52    1
    50    54    55    1
    51    34    35    1
    52    74    73    2
    53    39    38    1
    54    78    77    1
    55    52    53    2
    56    35    38    1
    57    35    36    1
    58    77    76    1
    59    84    83    1
    60    84    85    2
    61    73    72    1
    62    73    82   am
    63    38    40    1
    64    83    82    1
    65    83    86    1
    66    88    90   ar
    67    88    87   ar
    68    36    37    2
    69    72    75    1
    70    72    71    1
    71    90    92   ar
    72    75    76    1
    73    86    87    1
    74    87    89   ar
    75    92    91   ar
    76    69    70   ar
    77    69    67   ar
    78    89    91   ar
    79    70    68   ar
    80    67    64   ar
    81    68    66   ar
    82    64    66   ar
    83    64    62   ar
    84    60    59    2
    85    66    65   ar
    86    59    58    1
    87    58    61    1
    88    58    57    1
    89    61    62    1
    90    62    63   ar
    91    65    63   ar
