@<TRIPOS>MOLECULE
tmp/4necC01.pdb
 220 213 0 0 0
SMALL
GASTEIGER

@<TRIPOS>ATOM
      1  N        -10.9800  107.6410   36.2380 N.3     2  MET2       -0.1245
      2  CA       -10.7150  106.6910   37.3190 C.3     2  MET2        0.1570
      3  C         -9.8220  107.2700   38.4200 C.2     2  MET2        0.2261
      4  O         -9.4180  106.5450   39.3300 O.2     2  MET2       -0.2867
      5  CB       -10.0560  105.4350   36.7380 C.3     2  MET2        0.0387
      6  CG       -10.9150  104.7020   35.7190 C.3     2  MET2        0.0595
      7  SD       -12.3750  103.9540   36.4650 S.3     2  MET2       -0.1393
      8  CE       -11.6300  102.5740   37.3250 C.3     2  MET2        0.0692
      9  N         -9.2900  105.1550   42.1180 N.3     6  PHE6       -0.1241
     10  CA        -8.0110  104.6930   42.6520 C.3     6  PHE6        0.1605
     11  C         -7.4870  105.5600   43.7950 C.2     6  PHE6        0.2264
     12  O         -6.9310  105.0330   44.7500 O.2     6  PHE6       -0.2867
     13  CB        -6.9540  104.5950   41.5470 C.3     6  PHE6        0.0534
     14  CG        -7.1070  103.3830   40.6830 C.ar    6  PHE6       -0.0203
     15  CD1       -6.6150  102.1510   41.0990 C.ar    6  PHE6       -0.0042
     16  CD2       -7.7460  103.4640   39.4570 C.ar    6  PHE6       -0.0042
     17  CE1       -6.7520  101.0260   40.3030 C.ar    6  PHE6       -0.0003
     18  CE2       -7.8860  102.3420   38.6600 C.ar    6  PHE6       -0.0003
     19  CZ        -7.3920  101.1230   39.0830 C.ar    6  PHE6       -0.0000
     20  N         -5.9260  104.5360   47.5930 N.3    10  TYR10      -0.1241
     21  CA        -4.6140  104.9090   48.1310 C.3    10  TYR10       0.1605
     22  C         -4.7000  105.7610   49.4060 C.2    10  TYR10       0.2264
     23  O         -3.8460  105.6430   50.2820 O.2    10  TYR10      -0.2867
     24  CB        -3.7690  105.6140   47.0670 C.3    10  TYR10       0.0534
     25  CG        -3.2310  104.6820   45.9980 C.ar   10  TYR10      -0.0201
     26  CD1       -2.3190  103.6770   46.3250 C.ar   10  TYR10      -0.0009
     27  CD2       -3.6230  104.8010   44.6600 C.ar   10  TYR10      -0.0009
     28  CE1       -1.8140  102.8210   45.3630 C.ar   10  TYR10       0.0417
     29  CE2       -3.1190  103.9500   43.6890 C.ar   10  TYR10       0.0417
     30  CZ        -2.2100  102.9640   44.0440 C.ar   10  TYR10       0.1957
     31  OH        -1.6850  102.1090   43.0950 O.3    10  TYR10      -0.2866
     32  N         -2.5270   95.0320   45.7140 N.3    22  TRP22      -0.1227
     33  CA        -1.3600   95.1100   44.8260 C.3    22  TRP22       0.1737
     34  C         -0.1810   95.8580   45.4520 C.2    22  TRP22       0.2595
     35  O          0.9240   95.8490   44.9100 O.2    22  TRP22      -0.2718
     36  CB        -1.7330   95.8140   43.5250 C.3    22  TRP22       0.0564
     37  CG        -2.2990   97.1880   43.6990 C.ar   22  TRP22       0.0003
     38  CD1       -1.6100   98.3610   43.7880 C.ar   22  TRP22       0.0946
     39  CD2       -3.6870   97.5320   43.7810 C.ar   22  TRP22       0.0152
     40  NE1       -2.4770   99.4100   43.9270 N.ar   22  TRP22      -0.2442
     41  CE2       -3.7610   98.9340   43.9250 C.ar   22  TRP22       0.0810
     42  CE3       -4.8740   96.7910   43.7450 C.ar   22  TRP22       0.0012
     43  CZ2       -4.9830   99.6120   44.0350 C.ar   22  TRP22       0.0191
     44  CZ3       -6.0810   97.4630   43.8560 C.ar   22  TRP22       0.0001
     45  CH2       -6.1240   98.8590   44.0000 C.ar   22  TRP22       0.0015
     46  N         -0.4170   96.5330   46.5700 N.am   23  ASP23      -0.1960
     47  CA         0.6130   97.3600   47.1690 C.3    23  ASP23       0.1840
     48  C          1.4650   96.4860   48.0960 C.2    23  ASP23       0.2621
     49  O          1.2770   96.4550   49.3110 O.2    23  ASP23      -0.2715
     50  CB        -0.0510   98.5270   47.8980 C.3    23  ASP23       0.1450
     51  CG         0.8750   99.7100   48.0810 C.2    23  ASP23       0.3671
     52  OD1        1.5880  100.0950   47.1240 O.co2  23  ASP23      -0.2456
     53  OD2        0.8720  100.2680   49.1930 O.co2  23  ASP23      -0.2456
     54  N          2.4180   95.7800   47.4960 N.am   24  ILE24      -0.1977
     55  CA         3.1180   94.6820   48.1660 C.3    24  ILE24       0.1596
     56  C          4.4530   95.0740   48.8110 C.2    24  ILE24       0.2287
     57  O          5.1380   94.2200   49.3780 O.2    24  ILE24      -0.2864
     58  CB         3.3530   93.5000   47.2010 C.3    24  ILE24       0.0276
     59  CG1        4.1670   93.9360   45.9770 C.3    24  ILE24       0.0022
     60  CG2        2.0210   92.8910   46.7750 C.3    24  ILE24       0.0022
     61  CD1        4.7590   92.7880   45.1930 C.3    24  ILE24       0.0001
     62  N          7.6960   93.5100   41.9050 N.3    28  GLN28      -0.1245
     63  CA         7.1730   92.2380   41.4320 C.3    28  GLN28       0.1566
     64  C          8.3300   91.3310   41.0500 C.2    28  GLN28       0.2260
     65  O          9.2300   91.7770   40.3460 O.2    28  GLN28      -0.2867
     66  CB         6.2970   92.4730   40.2030 C.3    28  GLN28       0.0367
     67  CG         4.9330   93.0350   40.5420 C.3    28  GLN28       0.0905
     68  CD         4.0450   92.0110   41.2160 C.2    28  GLN28       0.2608
     69  OE1        4.2280   90.8070   41.0460 O.2    28  GLN28      -0.2717
     70  NE2        3.0750   92.4860   41.9860 N.am   28  GLN28      -0.0878
     71  N          7.5890  103.2480   33.9950 N.3    46  ASP46      -0.1239
     72  CA         6.7120  102.3890   34.7680 C.3    46  ASP46       0.1674
     73  C          5.3320  103.0210   34.6610 C.2    46  ASP46       0.2266
     74  O          5.0380  104.0130   35.3220 O.2    46  ASP46      -0.2867
     75  CB         7.1790  102.2630   36.2190 C.3    46  ASP46       0.1410
     76  CG         6.3250  101.2930   37.0320 C.2    46  ASP46       0.3668
     77  OD1        5.2420  100.8720   36.5580 O.co2  46  ASP46      -0.2456
     78  OD2        6.7440  100.9470   38.1560 O.co2  46  ASP46      -0.2456
     79  N          1.4580  103.3890   35.1890 N.3    48  GLY48      -0.1210
     80  CA         0.5820  103.0200   36.2980 C.3    48  GLY48       0.1956
     81  C          1.4090  102.5380   37.4750 C.2    48  GLY48       0.2612
     82  O          1.1520  101.4710   38.0440 O.2    48  GLY48      -0.2717
     83  N          2.4100  103.3380   37.8300 N.am   49  CYS49      -0.1956
     84  CA         3.4690  102.9320   38.7580 C.3    49  CYS49       0.1843
     85  C          3.0360  102.7650   40.2160 C.2    49  CYS49       0.2626
     86  O          3.7920  102.2140   41.0250 O.2    49  CYS49      -0.2714
     87  CB         4.6150  103.9390   38.7000 C.3    49  CYS49       0.0997
     88  SG         4.1770  105.5450   39.3780 S.3    49  CYS49      -0.0797
     89  N          1.8460  103.2530   40.5570 N.am   50  GLY50      -0.1940
     90  CA         1.3790  103.1680   41.9270 C.3    50  GLY50       0.2014
     91  C          2.3720  103.8270   42.8650 C.2    50  GLY50       0.2639
     92  O          2.9510  104.8630   42.5330 O.2    50  GLY50      -0.2714
     93  N          2.5880  103.2070   44.0210 N.am   51  THR51      -0.1950
     94  CA         3.4450  103.7710   45.0620 C.3    51  THR51       0.1897
     95  C          4.9440  103.5600   44.7990 C.2    51  THR51       0.2313
     96  O          5.7650  103.8810   45.6480 O.2    51  THR51      -0.2863
     97  CB         3.0820  103.2100   46.4500 C.3    51  THR51       0.1794
     98  OG1        3.3550  101.8060   46.4930 O.3    51  THR51      -0.2208
     99  CG2        1.6110  103.4680   46.7570 C.3    51  THR51       0.0378
    100  N          8.3040   98.9490   42.0310 N.3    54  ASP54      -0.1239
    101  CA         9.0000   98.4690   40.8270 C.3    54  ASP54       0.1674
    102  C         10.0180   99.5090   40.3590 C.2    54  ASP54       0.2266
    103  O         11.1840   99.1830   40.1390 O.2    54  ASP54      -0.2867
    104  CB         8.0170   98.1510   39.6900 C.3    54  ASP54       0.1410
    105  CG         7.3710   96.7840   39.8270 C.2    54  ASP54       0.3668
    106  OD1        8.0140   95.8590   40.3750 O.co2  54  ASP54      -0.2456
    107  OD2        6.2240   96.6310   39.3490 O.co2  54  ASP54      -0.2456
    108  N          4.6850  106.9990   36.1330 N.3    68  LEU68      -0.1231
    109  CA         3.4940  107.8100   35.9180 C.3    68  LEU68       0.1693
    110  C          2.2750  107.0680   36.4560 C.2    68  LEU68       0.2592
    111  O          2.1380  105.8520   36.2750 O.2    68  LEU68      -0.2718
    112  CB         3.3170  108.1320   34.4290 C.3    68  LEU68       0.0284
    113  CG         4.4910  108.8450   33.7500 C.3    68  LEU68       0.0019
    114  CD1        4.2510  109.0370   32.2580 C.3    68  LEU68       0.0001
    115  CD2        4.7590  110.1850   34.4130 C.3    68  LEU68       0.0001
    116  N          1.3990  107.8040   37.1300 N.am   69  ASP69      -0.1960
    117  CA         0.1690  107.2330   37.6550 C.3    69  ASP69       0.1840
    118  C         -0.8900  108.3170   37.7050 C.2    69  ASP69       0.2622
    119  O         -0.5800  109.4970   37.8470 O.2    69  ASP69      -0.2715
    120  CB         0.3930  106.6490   39.0550 C.3    69  ASP69       0.1450
    121  CG        -0.6680  105.6330   39.4500 C.2    69  ASP69       0.3671
    122  OD1       -1.7910  106.0430   39.8300 O.co2  69  ASP69      -0.2456
    123  OD2       -0.3690  104.4180   39.3990 O.co2  69  ASP69      -0.2456
    124  N         -2.1410  107.8920   37.5920 N.am   70  LEU70      -0.1963
    125  CA        -3.2930  108.7840   37.6400 C.3    70  LEU70       0.1728
    126  C         -3.5070  109.3530   39.0510 C.2    70  LEU70       0.2616
    127  O         -4.0270  110.4510   39.2050 O.2    70  LEU70      -0.2715
    128  CB        -4.5400  108.0040   37.2120 C.3    70  LEU70       0.0311
    129  CG        -5.7550  108.7500   36.6740 C.3    70  LEU70       0.0022
    130  CD1       -5.4510  109.4310   35.3460 C.3    70  LEU70       0.0001
    131  CD2       -6.9070  107.7730   36.5150 C.3    70  LEU70       0.0001
    132  N         -3.1040  108.6030   40.0750 N.am   71  SER71      -0.1950
    133  CA        -3.4150  108.9620   41.4630 C.3    71  SER71       0.1924
    134  C         -2.3630  109.8810   42.0880 C.2    71  SER71       0.2314
    135  O         -1.2240  109.4610   42.2730 O.2    71  SER71      -0.2863
    136  CB        -3.5540  107.6970   42.3230 C.3    71  SER71       0.2116
    137  OG        -3.4690  107.9980   43.7120 O.3    71  SER71      -0.2180
    138  N         -0.1210  111.4840   35.6600 N.3    94  ALA94      -0.1231
    139  CA        -0.4080  111.4660   34.2270 C.3    94  ALA94       0.1694
    140  C         -1.4350  110.3910   33.8960 C.2    94  ALA94       0.2592
    141  O         -1.6100  109.4240   34.6500 O.2    94  ALA94      -0.2718
    142  CB         0.8620  111.2360   33.4220 C.3    94  ALA94       0.0304
    143  N         -2.1110  110.5870   32.7650 N.am   95  ASP95      -0.1960
    144  CA        -3.0580  109.6240   32.2280 C.3    95  ASP95       0.1840
    145  C         -2.3560  108.8160   31.1420 C.2    95  ASP95       0.2622
    146  O         -1.9410  109.3680   30.1210 O.2    95  ASP95      -0.2715
    147  CB        -4.2820  110.3460   31.6490 C.3    95  ASP95       0.1450
    148  CG        -5.4580  109.4050   31.3680 C.2    95  ASP95       0.3671
    149  OD1       -5.2500  108.1770   31.2310 O.co2  95  ASP95      -0.2456
    150  OD2       -6.6010  109.9080   31.2720 O.co2  95  ASP95      -0.2456
    151  N         -2.2540  107.5070   31.3530 N.am   96  ALA96      -0.1963
    152  CA        -1.5710  106.6110   30.4130 C.3    96  ALA96       0.1728
    153  C         -2.3350  106.4160   29.1020 C.2    96  ALA96       0.2616
    154  O         -1.7840  105.8860   28.1370 O.2    96  ALA96      -0.2715
    155  CB        -1.3060  105.2620   31.0640 C.3    96  ALA96       0.0334
    156  N         -3.6000  106.8350   29.0690 N.am   97  LEU97      -0.1977
    157  CA        -4.3840  106.8330   27.8310 C.3    97  LEU97       0.1596
    158  C         -4.0720  108.0300   26.9240 C.2    97  LEU97       0.2287
    159  O         -4.5470  108.0790   25.7890 O.2    97  LEU97      -0.2864
    160  CB        -5.8810  106.8110   28.1460 C.3    97  LEU97       0.0297
    161  CG        -6.4160  105.6010   28.9180 C.3    97  LEU97       0.0022
    162  CD1       -7.8860  105.7960   29.2620 C.3    97  LEU97       0.0001
    163  CD2       -6.2130  104.3130   28.1320 C.3    97  LEU97       0.0001
    164  N          2.8440   96.7600   35.7170 N.3   112  SER112     -0.1202
    165  CA         2.3500   95.7540   36.6340 C.3   112  SER112      0.2020
    166  C          0.9340   96.1170   37.0340 C.2   112  SER112      0.2619
    167  O          0.7050   96.9130   37.9540 O.2   112  SER112     -0.2717
    168  CB         3.2300   95.6260   37.8740 C.3   112  SER112      0.2103
    169  OG         2.6880   94.6380   38.7340 O.3   112  SER112     -0.2182
    170  N         -0.0230   95.5590   36.3080 N.am  113  GLY113     -0.1942
    171  CA        -1.4180   95.6650   36.7020 C.3   113  GLY113      0.2014
    172  C         -2.1360   96.9430   36.3150 C.2   113  GLY113      0.2638
    173  O         -3.1900   97.2570   36.8840 O.2   113  GLY113     -0.2714
    174  N         -1.5950   97.6800   35.3460 N.am  114  LEU114     -0.1977
    175  CA        -2.3500   98.7680   34.7120 C.3   114  LEU114      0.1596
    176  C         -3.1380   98.2070   33.5340 C.2   114  LEU114      0.2287
    177  O         -4.3640   98.2980   33.4980 O.2   114  LEU114     -0.2864
    178  CB        -1.4330   99.9020   34.2510 C.3   114  LEU114      0.0297
    179  CG        -2.0930  101.0000   33.4110 C.3   114  LEU114      0.0022
    180  CD1       -3.2570  101.6450   34.1460 C.3   114  LEU114      0.0001
    181  CD2       -1.0550  102.0400   33.0160 C.3   114  LEU114      0.0001
    182  N         -4.2010   95.3990   32.8070 N.3   116  HIS116     -0.1226
    183  CA        -5.3040   94.4800   33.1010 C.3   116  HIS116      0.1752
    184  C         -6.6030   95.1470   33.5660 C.2   116  HIS116      0.2597
    185  O         -7.6370   94.4830   33.6180 O.2   116  HIS116     -0.2718
    186  CB        -4.8820   93.3090   34.0100 C.3   116  HIS116      0.0759
    187  CG        -4.5230   93.6770   35.4190 C.ar  116  HIS116      0.0818
    188  ND1       -3.7120   92.8760   36.1930 N.ar  116  HIS116     -0.2268
    189  CD2       -4.8730   94.7210   36.2060 C.ar  116  HIS116      0.1154
    190  CE1       -3.5850   93.4030   37.3940 C.ar  116  HIS116      0.1986
    191  NE2       -4.2690   94.5310   37.4250 N.ar  116  HIS116     -0.2212
    192  N         -6.5580   96.4530   33.8480 N.am  117  THR117     -0.1939
    193  CA        -7.7670   97.2280   34.1590 C.3   117  THR117      0.2028
    194  C         -8.5170   97.6520   32.8920 C.2   117  THR117      0.2642
    195  O         -9.7030   97.9680   32.9530 O.2   117  THR117     -0.2714
    196  CB        -7.4720   98.5010   34.9900 C.3   117  THR117      0.1808
    197  OG1       -6.8780   99.5150   34.1690 O.3   117  THR117     -0.2208
    198  CG2       -6.5650   98.1980   36.1750 C.3   117  THR117      0.0379
    199  N         -7.8110   97.6820   31.7620 N.am  118  PHE118     -0.1973
    200  CA        -8.3770   98.1420   30.4990 C.3   118  PHE118      0.1639
    201  C         -8.9710   96.9850   29.7100 C.2   118  PHE118      0.2290
    202  O         -8.5600   95.8350   29.8600 O.2   118  PHE118     -0.2864
    203  CB        -7.3080   98.8450   29.6540 C.3   118  PHE118      0.0560
    204  CG        -6.7670  100.1090   30.2690 C.ar  118  PHE118     -0.0200
    205  CD1       -7.6270  101.0750   30.7750 C.ar  118  PHE118     -0.0042
    206  CD2       -5.3970  100.3520   30.3100 C.ar  118  PHE118     -0.0042
    207  CE1       -7.1400  102.2430   31.3310 C.ar  118  PHE118     -0.0003
    208  CE2       -4.9020  101.5250   30.8590 C.ar  118  PHE118     -0.0003
    209  CZ        -5.7750  102.4710   31.3730 C.ar  118  PHE118     -0.0000
    210  N         -9.9940  100.7120   25.1450 N.3   122  ARG122     -0.1245
    211  CA        -9.1520  101.4350   26.1070 C.3   122  ARG122      0.1563
    212  C         -7.7440  100.8460   26.1620 C.2   122  ARG122      0.2260
    213  O         -6.7660  101.5880   26.2410 O.2   122  ARG122     -0.2867
    214  CB        -9.7970  101.4800   27.5030 C.3   122  ARG122      0.0307
    215  CG       -10.5930  102.7550   27.7610 C.3   122  ARG122      0.0489
    216  CD       -11.7170  102.5670   28.7720 C.3   122  ARG122      0.2205
    217  NE       -11.2380  102.1460   30.0890 N.pl3 122  ARG122     -0.0865
    218  CZ       -10.8060  102.9670   31.0500 C.cat 122  ARG122      0.5346
    219  NH1      -10.7730  104.2870   30.8710 N.pl3 122  ARG122      0.1354
    220  NH2      -10.3970  102.4610   32.2090 N.pl3 122  ARG122      0.1354
@<TRIPOS>BOND
     1   210   211    1
     2   159   158    2
     3   211   212    1
     4   211   214    1
     5   212   213    2
     6   158   157    1
     7   214   215    1
     8   215   216    1
     9   157   160    1
    10   157   156    1
    11   163   161    1
    12   154   153    2
    13   160   161    1
    14   216   217    1
    15   161   162    1
    16   156   153   am
    17   153   152    1
    18   203   204    1
    19   203   200    1
    20   201   202    2
    21   201   200    1
    22   217   218    2
    23   146   145    2
    24   204   206   ar
    25   204   205   ar
    26   206   208   ar
    27   152   155    1
    28   152   151    1
    29   200   199    1
    30   205   207   ar
    31   208   209   ar
    32   219   218    1
    33   218   220    1
    34   145   151   am
    35   145   144    1
    36   149   148   ar
    37   150   148   ar
    38   207   209   ar
    39   148   147    1
    40   147   144    1
    41   199   194   am
    42   144   143    1
    43   114   113    1
    44   143   140   am
    45   182   183    1
    46   194   195    2
    47   194   193    1
    48   181   179    1
    49   183   184    1
    50   183   186    1
    51   179   180    1
    52   179   178    1
    53   142   139    1
    54   177   176    2
    55   176   175    1
    56   184   185    2
    57   184   192   am
    58   113   115    1
    59   113   112    1
    60   192   193    1
    61   140   139    1
    62   140   141    2
    63    71    72    1
    64   186   187    1
    65   193   196    1
    66   197   196    1
    67   139   138    1
    68   178   175    1
    69   112   109    1
    70    73    72    1
    71    73    74    2
    72   175   174    1
    73    72    75    1
    74   196   198    1
    75    79    80    1
    76   130   129    1
    77   174   172   am
    78   187   188   ar
    79   187   189   ar
    80   164   165    1
    81     6     7    1
    82     6     5    1
    83   109   108    1
    84   109   110    1
    85   188   190   ar
    86   189   191   ar
    87    75    76    1
    88     1     2    1
    89   111   110    2
    90    80    81    1
    91   170   171    1
    92   170   166   am
    93   172   171    1
    94   172   173    2
    95   110   116   am
    96     7     8    1
    97   131   129    1
    98    77    76   ar
    99   165   166    1
   100   165   168    1
   101   129   128    1
   102     5     2    1
   103    76    78   ar
   104   166   167    2
   105   116   117    1
   106   128   125    1
   107     2     3    1
   108   190   191   ar
   109    81    83   am
   110    81    82    2
   111   124   125    1
   112   124   118   am
   113   125   126    1
   114   117   118    1
   115   117   120    1
   116   118   119    2
   117    83    84    1
   118   168   169    1
   119     3     4    2
   120    18    19   ar
   121    18    16   ar
   122    87    84    1
   123    87    88    1
   124    84    85    1
   125   126   127    2
   126   126   132   am
   127   120   121    1
   128    19    17   ar
   129   107   105   ar
   130   123   121   ar
   131   121   122   ar
   132    16    14   ar
   133   104   105    1
   134   104   101    1
   135   105   106   ar
   136   132   133    1
   137   103   102    2
   138    66    67    1
   139    66    63    1
   140    85    89   am
   141    85    86    2
   142    17    15   ar
   143    65    64    2
   144   102   101    1
   145    67    68    1
   146    89    90    1
   147    14    15   ar
   148    14    13    1
   149   101   100    1
   150    69    68    2
   151    64    63    1
   152    68    70   am
   153    63    62    1
   154   133   134    1
   155   133   136    1
   156    13    10    1
   157    90    91    1
   158   134   135    2
   159     9    10    1
   160   136   137    1
   161    92    91    2
   162    10    11    1
   163    91    93   am
   164    31    30    1
   165    36    37    1
   166    36    33    1
   167    29    30   ar
   168    29    27   ar
   169    37    39   ar
   170    37    38   ar
   171    42    39   ar
   172    42    44   ar
   173    39    41   ar
   174    38    40   ar
   175    11    12    2
   176    44    45   ar
   177    41    40   ar
   178    41    43   ar
   179    45    43   ar
   180    93    94    1
   181    30    28   ar
   182    27    25   ar
   183    95    94    1
   184    95    96    2
   185    33    34    1
   186    33    32    1
   187    35    34    2
   188    94    97    1
   189    61    59    1
   190    28    26   ar
   191    34    46   am
   192    59    58    1
   193    25    26   ar
   194    25    24    1
   195    97    98    1
   196    97    99    1
   197    46    47    1
   198    60    58    1
   199    24    21    1
   200    52    51   ar
   201    47    50    1
   202    47    48    1
   203    58    55    1
   204    54    48   am
   205    54    55    1
   206    20    21    1
   207    50    51    1
   208    51    53   ar
   209    48    49    2
   210    21    22    1
   211    55    56    1
   212    56    57    2
   213    22    23    2
