@<TRIPOS>MOLECULE
tmp/4nedA03.pdb
 86 82 0 0 0
SMALL
GASTEIGER

@<TRIPOS>ATOM
      1  N         18.5340   -2.3110   27.5300 N.3    37  ASP37      -0.1239
      2  CA        18.2350   -1.9220   28.9030 C.3    37  ASP37       0.1674
      3  C         19.4390   -2.0930   29.8500 C.2    37  ASP37       0.2266
      4  O         19.6940   -1.2180   30.7050 O.2    37  ASP37      -0.2867
      5  CB        17.0520   -2.6930   29.4340 C.3    37  ASP37       0.1410
      6  CG        15.6970   -2.2160   28.8200 C.2    37  ASP37       0.3668
      7  OD1       15.6230   -1.1190   28.2000 O.co2  37  ASP37      -0.2456
      8  OD2       14.6900   -2.9450   28.9700 O.co2  37  ASP37      -0.2456
      9  N         12.8970    5.5890   27.3070 N.3    60  THR60      -0.1218
     10  CA        13.3700    4.9310   28.5190 C.3    60  THR60       0.1862
     11  C         14.6480    5.6030   29.0770 C.2    60  THR60       0.2287
     12  O         14.7370    5.8920   30.2300 O.2    60  THR60      -0.2866
     13  CB        13.7500    3.4670   28.2080 C.3    60  THR60       0.1770
     14  OG1       12.5670    2.7500   27.8040 O.3    60  THR60      -0.2211
     15  CG2       14.3540    2.7890   29.4450 C.3    60  THR60       0.0375
     16  N         10.6420   -5.5980   21.2370 N.3   120  VAL120     -0.1231
     17  CA         9.6880   -4.8580   22.0770 C.3   120  VAL120      0.1692
     18  C         10.3020   -3.4920   22.4520 C.2   120  VAL120      0.2592
     19  O         11.5270   -3.3860   22.6420 O.2   120  VAL120     -0.2718
     20  CB         9.3790   -5.6170   23.3830 C.3   120  VAL120      0.0266
     21  CG1        8.4050   -4.8260   24.1830 C.3   120  VAL120      0.0020
     22  CG2        8.6510   -6.8930   23.0600 C.3   120  VAL120      0.0020
     23  N          9.4680   -2.4560   22.4390 N.am  121  ASP121     -0.1974
     24  CA         9.8530   -1.0320   22.7180 C.3   121  ASP121      0.1709
     25  C         10.6570   -0.2970   21.6870 C.2   121  ASP121      0.2293
     26  O         11.1910    0.8380   21.9660 O.2   121  ASP121     -0.2864
     27  CB        10.7120   -0.9430   23.9780 C.3   121  ASP121      0.1436
     28  CG         9.9620   -1.1890   25.1620 C.2   121  ASP121      0.3671
     29  OD1        8.7620   -0.8800   25.1480 O.co2 121  ASP121     -0.2456
     30  OD2       10.5910   -1.7270   26.1010 O.co2 121  ASP121     -0.2456
     31  N          7.6820   -1.7910   17.1120 N.3   126  TRP126     -0.1241
     32  CA         6.6880   -2.0040   18.2090 C.3   126  TRP126      0.1605
     33  C          5.8290   -0.8110   18.6240 C.2   126  TRP126      0.2264
     34  O          4.5710   -0.8710   18.6700 O.2   126  TRP126     -0.2867
     35  CB         7.5190   -2.4950   19.4270 C.3   126  TRP126      0.0550
     36  CG         6.7040   -2.8470   20.5310 C.ar  126  TRP126      0.0003
     37  CD1        6.3090   -2.0460   21.5300 C.ar  126  TRP126      0.0946
     38  CD2        6.1630   -4.1240   20.7770 C.ar  126  TRP126      0.0152
     39  NE1        5.4920   -2.7330   22.4130 N.ar  126  TRP126     -0.2442
     40  CE2        5.3730   -4.0210   21.9620 C.ar  126  TRP126      0.0810
     41  CE3        6.2360   -5.3520   20.0960 C.ar  126  TRP126      0.0012
     42  CZ2        4.6770   -5.1200   22.5130 C.ar  126  TRP126      0.0191
     43  CZ3        5.5430   -6.4430   20.6210 C.ar  126  TRP126      0.0001
     44  CH2        4.7790   -6.3230   21.8280 C.ar  126  TRP126      0.0015
     45  N         -2.5150   -6.4270   23.5830 N.3   142  PHE142     -0.1241
     46  CA        -1.5890   -6.4830   22.4300 C.3   142  PHE142      0.1605
     47  C         -0.8550   -7.8230   22.2480 C.2   142  PHE142      0.2264
     48  O         -0.3230   -8.1100   21.1830 O.2   142  PHE142     -0.2867
     49  CB        -0.5760   -5.3310   22.4950 C.3   142  PHE142      0.0534
     50  CG         0.4010   -5.4220   23.6440 C.ar  142  PHE142     -0.0203
     51  CD1        0.5850   -4.3360   24.4900 C.ar  142  PHE142     -0.0042
     52  CD2        1.1530   -6.5830   23.8730 C.ar  142  PHE142     -0.0042
     53  CE1        1.4930   -4.4030   25.5520 C.ar  142  PHE142     -0.0003
     54  CE2        2.0490   -6.6670   24.9190 C.ar  142  PHE142     -0.0003
     55  CZ         2.2240   -5.5710   25.7670 C.ar  142  PHE142     -0.0000
     56  N          2.0590    2.8640   27.0700 N.3   332  LYS332     -0.1245
     57  CA         2.5930    2.3350   28.3160 C.3   332  LYS332      0.1561
     58  C          1.5260    2.2370   29.4390 C.2   332  LYS332      0.2260
     59  O          1.7520    1.6160   30.4780 O.2   332  LYS332     -0.2867
     60  CB         3.8450    3.1140   28.7410 C.3   332  LYS332      0.0271
     61  CG         5.1400    2.6270   28.0880 C.3   332  LYS332      0.0035
     62  CD         6.3590    3.0590   28.8920 C.3   332  LYS332      0.0206
     63  CE         7.5850    2.1960   28.5620 C.3   332  LYS332      0.1093
     64  NZ         8.2340    2.5240   27.2450 N.3   332  LYS332     -0.1314
     65  N          0.5860   -1.1410   30.5660 N.3   335  SER335     -0.1217
     66  CA         1.7210   -1.7360   31.2900 C.3   335  SER335      0.1889
     67  C          1.9840   -1.0250   32.6360 C.2   335  SER335      0.2288
     68  O          2.7130   -0.0270   32.7180 O.2   335  SER335     -0.2866
     69  CB         2.9880   -1.7540   30.3990 C.3   335  SER335      0.2089
     70  OG         2.8960   -2.6800   29.3070 O.3   335  SER335     -0.2183
     71  N         12.6420    3.6790   34.9200 N.3   340  ALA340     -0.1231
     72  CA        12.3460    2.2450   35.0640 C.3   340  ALA340      0.1694
     73  C         13.3380    1.4900   35.9630 C.2   340  ALA340      0.2592
     74  O         13.0540    0.3510   36.3930 O.2   340  ALA340     -0.2718
     75  CB        12.2910    1.5920   33.6780 C.3   340  ALA340      0.0304
     76  N         14.4880    2.1260   36.2280 N.am  341  PHE341     -0.1976
     77  CA        15.5890    1.5350   37.0080 C.3   341  PHE341      0.1639
     78  C         15.9280    2.3220   38.2780 C.2   341  PHE341      0.2290
     79  O         15.7400    3.5470   38.3480 O.2   341  PHE341     -0.2864
     80  CB        16.8350    1.3950   36.1270 C.3   341  PHE341      0.0560
     81  CG        16.5520    0.7860   34.7870 C.ar  341  PHE341     -0.0200
     82  CD1       16.2460   -0.5750   34.6730 C.ar  341  PHE341     -0.0042
     83  CD2       16.5610    1.5760   33.6320 C.ar  341  PHE341     -0.0042
     84  CE1       15.9610   -1.1330   33.4310 C.ar  341  PHE341     -0.0003
     85  CE2       16.2860    1.0200   32.3850 C.ar  341  PHE341     -0.0003
     86  CZ        15.9810   -0.3260   32.2840 C.ar  341  PHE341     -0.0000
@<TRIPOS>BOND
     1    31    32    1
     2    32    33    1
     3    32    35    1
     4    33    34    2
     5    35    36    1
     6    41    43   ar
     7    41    38   ar
     8    36    38   ar
     9    36    37   ar
    10    43    44   ar
    11    38    40   ar
    12    48    47    2
    13    16    17    1
    14    37    39   ar
    15    25    26    2
    16    25    24    1
    17    44    42   ar
    18    40    39   ar
    19    40    42   ar
    20    17    18    1
    21    17    20    1
    22    47    46    1
    23    46    49    1
    24    46    45    1
    25    23    18   am
    26    23    24    1
    27    18    19    2
    28    49    50    1
    29    24    27    1
    30    22    20    1
    31    20    21    1
    32    50    52   ar
    33    50    51   ar
    34    52    54   ar
    35    27    28    1
    36    51    53   ar
    37    54    55   ar
    38    29    28   ar
    39    28    30   ar
    40    53    55   ar
    41    56    57    1
    42    64    63    1
    43     9    10    1
    44     1     2    1
    45    14    13    1
    46    61    60    1
    47    61    62    1
    48     7     6   ar
    49    13    10    1
    50    13    15    1
    51    57    60    1
    52    57    58    1
    53    10    11    1
    54    63    62    1
    55     6     8   ar
    56     6     5    1
    57     2     5    1
    58     2     3    1
    59    11    12    2
    60    70    69    1
    61    58    59    2
    62     3     4    2
    63    69    66    1
    64    65    66    1
    65    66    67    1
    66    86    85   ar
    67    86    84   ar
    68    85    83   ar
    69    67    68    2
    70    84    82   ar
    71    83    81   ar
    72    75    72    1
    73    82    81   ar
    74    81    80    1
    75    71    72    1
    76    72    73    1
    77    73    76   am
    78    73    74    2
    79    80    77    1
    80    76    77    1
    81    77    78    1
    82    78    79    2
