@<TRIPOS>MOLECULE
tmp/4neqA00.pdb
 78 73 0 0 0
SMALL
GASTEIGER

@<TRIPOS>ATOM
      1  N         37.5590  -25.8090  -11.5630 N.3     8  THR8       -0.1218
      2  CA        36.4370  -24.8800  -11.4700 C.3     8  THR8        0.1862
      3  C         36.1580  -24.1590  -12.7760 C.2     8  THR8        0.2287
      4  O         36.9710  -24.1870  -13.6820 O.2     8  THR8       -0.2866
      5  CB        36.6670  -23.8180  -10.3930 C.3     8  THR8        0.1770
      6  OG1       37.8180  -23.0210  -10.7210 O.3     8  THR8       -0.2211
      7  CG2       36.8470  -24.4770   -9.0610 C.3     8  THR8        0.0375
      8  N         35.6570  -20.6870  -13.0670 N.3    10  PRO10      -0.2102
      9  CA        36.4580  -19.4890  -13.3000 C.3    10  PRO10       0.1504
     10  C         37.8360  -19.8700  -13.8320 C.2    10  PRO10       0.2575
     11  O         38.4200  -19.1330  -14.6430 O.2    10  PRO10      -0.2718
     12  CB        36.5260  -18.8480  -11.9010 C.3    10  PRO10       0.0282
     13  CG        35.2930  -19.2790  -11.2510 C.3    10  PRO10       0.0208
     14  CD        35.0620  -20.6810  -11.7140 C.3    10  PRO10       0.0893
     15  N         38.3110  -21.0390  -13.4020 N.am   11  GLU11      -0.1980
     16  CA        39.5410  -21.6450  -13.9270 C.3    11  GLU11       0.1602
     17  C         39.4520  -21.9430  -15.4230 C.2    11  GLU11       0.2287
     18  O         40.3170  -21.5300  -16.1970 O.2    11  GLU11      -0.2864
     19  CB        39.9230  -22.9030  -13.1220 C.3    11  GLU11       0.0415
     20  CG        40.8890  -22.5760  -11.9960 C.3    11  GLU11       0.1163
     21  CD        40.9840  -23.6170  -10.8760 C.2    11  GLU11       0.3649
     22  OE1       41.3330  -23.1970   -9.7470 O.co2  11  GLU11      -0.2457
     23  OE2       40.7560  -24.8320  -11.1130 O.co2  11  GLU11      -0.2457
     24  N         39.5200  -18.6260  -17.4330 N.3    14  LYS14      -0.1245
     25  CA        40.8160  -17.9590  -17.5230 C.3    14  LYS14       0.1561
     26  C         41.8440  -18.7890  -18.3070 C.2    14  LYS14       0.2260
     27  O         42.8560  -18.2510  -18.7760 O.2    14  LYS14      -0.2867
     28  CB        41.3380  -17.6290  -16.1300 C.3    14  LYS14       0.0271
     29  CG        40.3490  -16.8720  -15.2960 C.3    14  LYS14       0.0035
     30  CD        41.0350  -15.7280  -14.6430 C.3    14  LYS14       0.0206
     31  CE        40.2900  -15.2470  -13.4370 C.3    14  LYS14       0.1093
     32  NZ        41.2380  -14.4160  -12.7010 N.3    14  LYS14      -0.1314
     33  N         45.7790  -22.6450  -13.0450 N.3    85  GLN85      -0.1231
     34  CA        45.4330  -21.2470  -12.7760 C.3    85  GLN85       0.1698
     35  C         44.6150  -21.1540  -11.5050 C.2    85  GLN85       0.2593
     36  O         43.7480  -21.9850  -11.2690 O.2    85  GLN85      -0.2718
     37  CB        44.6760  -20.5700  -13.9270 C.3    85  GLN85       0.0381
     38  CG        44.3340  -19.1180  -13.6350 C.3    85  GLN85       0.0905
     39  CD        42.9770  -18.9280  -12.9380 C.2    85  GLN85       0.2608
     40  OE1       42.0720  -19.7290  -13.1070 O.2    85  GLN85      -0.2717
     41  NE2       42.8450  -17.8650  -12.1550 N.am   85  GLN85      -0.0878
     42  N         44.9030  -20.1500  -10.6810 N.am   86  GLY86      -0.1942
     43  CA        44.0630  -19.8780   -9.5450 C.3    86  GLY86       0.2014
     44  C         44.5900  -20.4750   -8.2710 C.2    86  GLY86       0.2639
     45  O         45.7970  -20.7010   -8.1340 O.2    86  GLY86      -0.2714
     46  N         43.6750  -20.7360   -7.3420 N.am   87  ASP87      -0.1957
     47  CA        44.0660  -21.0640   -5.9870 C.3    87  ASP87       0.1840
     48  C         43.1260  -22.0130   -5.2350 C.2    87  ASP87       0.2622
     49  O         42.9560  -21.8810   -4.0240 O.2    87  ASP87      -0.2715
     50  CB        44.2900  -19.7720   -5.1920 C.3    87  ASP87       0.1450
     51  CG        43.0650  -18.8840   -5.1520 C.2    87  ASP87       0.3671
     52  OD1       41.9350  -19.3980   -5.0600 O.co2  87  ASP87      -0.2456
     53  OD2       43.2330  -17.6540   -5.2020 O.co2  87  ASP87      -0.2456
     54  N         42.5330  -22.9740   -5.9370 N.am   88  THR88      -0.1951
     55  CA        41.7080  -23.9740   -5.2730 C.3    88  THR88       0.1897
     56  C         42.5820  -25.0920   -4.7540 C.2    88  THR88       0.2313
     57  O         43.7900  -25.0650   -4.9220 O.2    88  THR88      -0.2863
     58  CB        40.6750  -24.5760   -6.2160 C.3    88  THR88       0.1794
     59  OG1       41.3300  -25.0150   -7.4050 O.3    88  THR88      -0.2208
     60  CG2       39.6190  -23.5500   -6.5810 C.3    88  THR88       0.0378
     61  N         48.3490  -16.2930  -13.8590 N.3   109  GLU109     -0.1245
     62  CA        47.8450  -15.1990  -13.0200 C.3   109  GLU109      0.1567
     63  C         48.4740  -15.2970  -11.6350 C.2   109  GLU109      0.2260
     64  O         47.7690  -15.3790  -10.6380 O.2   109  GLU109     -0.2867
     65  CB        46.3070  -15.1790  -12.9440 C.3   109  GLU109      0.0388
     66  CG        45.7210  -13.8910  -12.3840 C.3   109  GLU109      0.1160
     67  CD        44.2400  -13.9900  -12.0310 C.2   109  GLU109      0.3649
     68  OE1       43.7770  -15.0850  -11.6790 O.co2 109  GLU109     -0.2457
     69  OE2       43.5280  -12.9690  -12.1030 O.co2 109  GLU109     -0.2457
     70  N         42.8130  -20.0660    0.6870 N.3   120  GLU120     -0.1245
     71  CA        43.1400  -19.6950   -0.6730 C.3   120  GLU120      0.1567
     72  C         44.3960  -18.8310   -0.7980 C.2   120  GLU120      0.2260
     73  O         45.1800  -19.0270   -1.7220 O.2   120  GLU120     -0.2867
     74  CB        41.9270  -19.0500   -1.3440 C.3   120  GLU120      0.0388
     75  CG        40.8280  -20.0510   -1.7230 C.3   120  GLU120      0.1160
     76  CD        39.4840  -19.3910   -1.8880 C.2   120  GLU120      0.3649
     77  OE1       38.9360  -19.3950   -3.0170 O.co2 120  GLU120     -0.2457
     78  OE2       38.9820  -18.8590   -0.8750 O.co2 120  GLU120     -0.2457
@<TRIPOS>BOND
     1    27    26    2
     2    26    25    1
     3    25    24    1
     4    25    28    1
     5    18    17    2
     6    28    29    1
     7    17    16    1
     8    29    30    1
     9    30    31    1
    10    11    10    2
    11    37    38    1
    12    37    34    1
    13    16    15    1
    14    16    19    1
    15    61    62    1
    16    10    15   am
    17    10     9    1
    18     4     3    2
    19    38    39    1
    20    31    32    1
    21     9     8    1
    22     9    12    1
    23    19    20    1
    24    40    39    2
    25     8    14    1
    26    33    34    1
    27    62    65    1
    28    62    63    1
    29    65    66    1
    30    39    41   am
    31    34    35    1
    32     3     2    1
    33    66    67    1
    34    69    67   ar
    35    67    68   ar
    36    20    21    1
    37    12    13    1
    38    14    13    1
    39    63    64    2
    40     1     2    1
    41    35    36    2
    42    35    42   am
    43     2     5    1
    44    23    21   ar
    45    21    22   ar
    46     6     5    1
    47    42    43    1
    48     5     7    1
    49    43    44    1
    50    44    45    2
    51    44    46   am
    52    59    58    1
    53    46    47    1
    54    60    58    1
    55    58    55    1
    56    47    48    1
    57    47    50    1
    58    54    55    1
    59    54    48   am
    60    55    56    1
    61    48    49    2
    62    53    51   ar
    63    50    51    1
    64    51    52   ar
    65    57    56    2
    66    77    76   ar
    67    76    75    1
    68    76    78   ar
    69    75    74    1
    70    73    72    2
    71    74    71    1
    72    72    71    1
    73    71    70    1
