@<TRIPOS>MOLECULE
tmp/4nesA01.pdb
 208 199 0 0 0
SMALL
GASTEIGER

@<TRIPOS>ATOM
      1  N         43.4390   20.5740   34.8300 N.3     9  ARG9       -0.1231
      2  CA        42.1190   21.1750   35.0340 C.3     9  ARG9        0.1679
      3  C         41.9590   22.6360   34.5560 C.2     9  ARG9        0.2434
      4  O         41.0980   22.9090   33.7220 O.2     9  ARG9       -0.2733
      5  CB        41.6800   21.0320   36.4970 C.3     9  ARG9        0.0321
      6  CG        40.4680   21.8870   36.8440 C.3     9  ARG9        0.0489
      7  CD        39.9670   21.5780   38.2530 C.3     9  ARG9        0.2205
      8  NE        40.8300   22.1240   39.3060 N.pl3   9  ARG9       -0.0865
      9  CZ        40.6540   21.9040   40.6010 C.cat   9  ARG9        0.5346
     10  NH1       39.6750   21.1100   41.0150 N.pl3   9  ARG9        0.1354
     11  NH2       41.4720   22.4620   41.4850 N.pl3   9  ARG9        0.1354
     12  N         42.7670   23.5820   35.0760 N.am   10  PRO10      -0.2729
     13  CA        42.5450   24.9800   34.6620 C.3    10  PRO10       0.1401
     14  C         42.7930   25.2300   33.1820 C.2    10  PRO10       0.2269
     15  O         42.1250   26.0920   32.6010 O.2    10  PRO10      -0.2865
     16  CB        43.5640   25.7620   35.5020 C.3    10  PRO10       0.0296
     17  CG        44.6300   24.7460   35.8550 C.3    10  PRO10       0.0237
     18  CD        43.8780   23.4710   36.0460 C.3    10  PRO10       0.0939
     19  N         39.6490   24.2250   31.1210 N.3    13  ILE13      -0.1231
     20  CA        38.5960   25.2260   31.2550 C.3    13  ILE13       0.1692
     21  C         38.9330   26.4670   30.4220 C.2    13  ILE13       0.2591
     22  O         38.0940   26.9510   29.6490 O.2    13  ILE13      -0.2718
     23  CB        38.3910   25.5810   32.7470 C.3    13  ILE13       0.0266
     24  CG1       37.8430   24.3650   33.5110 C.3    13  ILE13       0.0019
     25  CG2       37.4950   26.8050   32.8970 C.3    13  ILE13       0.0020
     26  CD1       37.9590   24.4980   35.0070 C.3    13  ILE13       0.0001
     27  N         40.1600   26.9640   30.5430 N.am   14  LYS14      -0.1980
     28  CA        40.5350   28.1940   29.8570 C.3    14  LYS14       0.1596
     29  C         40.7580   28.0370   28.3550 C.2    14  LYS14       0.2287
     30  O         40.7190   29.0190   27.6140 O.2    14  LYS14      -0.2864
     31  CB        41.7410   28.8480   30.5490 C.3    14  LYS14       0.0298
     32  CG        41.3110   29.6000   31.7920 C.3    14  LYS14       0.0038
     33  CD        42.4920   30.0890   32.6240 C.3    14  LYS14       0.0206
     34  CE        42.0420   31.0720   33.7000 C.3    14  LYS14       0.1093
     35  NZ        43.1670   31.4800   34.6100 N.3    14  LYS14      -0.1314
     36  N         47.2640   15.8510   34.5730 N.3    37  HIS37      -0.1241
     37  CA        46.1080   15.4890   35.3910 C.3    37  HIS37       0.1621
     38  C         45.3890   14.3170   34.7500 C.2    37  HIS37       0.2264
     39  O         45.2740   14.2580   33.5220 O.2    37  HIS37      -0.2867
     40  CB        45.1630   16.6750   35.5440 C.3    37  HIS37       0.0745
     41  CG        45.6610   17.6980   36.5120 C.ar   37  HIS37       0.0817
     42  ND1       44.9280   18.7930   36.8890 N.ar   37  HIS37      -0.2268
     43  CD2       46.8340   17.7580   37.1850 C.ar   37  HIS37       0.1154
     44  CE1       45.6230   19.4920   37.7760 C.ar   37  HIS37       0.1986
     45  NE2       46.7830   18.8840   37.9660 N.ar   37  HIS37      -0.2212
     46  N         35.7400   17.5940   32.8860 N.3    45  PHE45      -0.1241
     47  CA        35.7610   18.8500   32.1590 C.3    45  PHE45       0.1605
     48  C         35.5730   18.6480   30.6730 C.2    45  PHE45       0.2264
     49  O         34.8860   19.4310   30.0220 O.2    45  PHE45      -0.2867
     50  CB        37.0380   19.6250   32.4930 C.3    45  PHE45       0.0534
     51  CG        37.1320   19.9440   33.9440 C.ar   45  PHE45      -0.0203
     52  CD1       36.3240   20.9380   34.4860 C.ar   45  PHE45      -0.0042
     53  CD2       37.9330   19.1910   34.7900 C.ar   45  PHE45      -0.0042
     54  CE1       36.3570   21.2130   35.8380 C.ar   45  PHE45      -0.0003
     55  CE2       37.9660   19.4600   36.1370 C.ar   45  PHE45      -0.0003
     56  CZ        37.1680   20.4690   36.6640 C.ar   45  PHE45      -0.0000
     57  N         50.4980   28.3870   32.8090 N.3    92  ASP92      -0.1225
     58  CA        51.7800   28.3550   33.5020 C.3    92  ASP92       0.1805
     59  C         52.1430   27.0180   34.1660 C.2    92  ASP92       0.2598
     60  O         52.9590   26.9760   35.0960 O.2    92  ASP92      -0.2718
     61  CB        51.8070   29.4840   34.5340 C.3    92  ASP92       0.1424
     62  CG        50.6390   29.4200   35.4870 C.2    92  ASP92       0.3668
     63  OD1       50.0290   28.3390   35.6200 O.co2  92  ASP92      -0.2456
     64  OD2       50.3150   30.4540   36.1030 O.co2  92  ASP92      -0.2456
     65  N         51.5770   25.9240   33.6880 N.am   93  THR93      -0.1953
     66  CA        51.8820   24.6130   34.2480 C.3    93  THR93       0.1897
     67  C         53.1360   24.0480   33.5930 C.2    93  THR93       0.2313
     68  O         53.6320   24.5950   32.6070 O.2    93  THR93      -0.2863
     69  CB        50.7130   23.6430   34.0310 C.3    93  THR93       0.1794
     70  OG1       50.5700   23.4040   32.6250 O.3    93  THR93      -0.2208
     71  CG2       49.4170   24.2380   34.5740 C.3    93  THR93       0.0378
     72  N         55.2510   28.2350   38.8540 N.3   125  GLU125     -0.1245
     73  CA        54.3710   28.8360   37.8560 C.3   125  GLU125      0.1567
     74  C         54.9760   30.0890   37.2560 C.2   125  GLU125      0.2260
     75  O         54.8420   30.3190   36.0550 O.2   125  GLU125     -0.2867
     76  CB        53.0040   29.1720   38.4580 C.3   125  GLU125      0.0388
     77  CG        52.1330   27.9590   38.7510 C.3   125  GLU125      0.1160
     78  CD        52.4850   27.2570   40.0570 C.2   125  GLU125      0.3649
     79  OE1       53.3730   27.7180   40.8170 O.co2 125  GLU125     -0.2457
     80  OE2       51.8590   26.2080   40.3210 O.co2 125  GLU125     -0.2457
     81  N         38.8620   33.1450   30.5950 N.3   167  ILE167     -0.1245
     82  CA        38.0400   32.7220   31.7160 C.3   167  ILE167      0.1561
     83  C         36.7320   33.5140   31.7650 C.2   167  ILE167      0.2260
     84  O         35.7100   32.9940   32.2350 O.2   167  ILE167     -0.2867
     85  CB        38.7970   32.8120   33.0600 C.3   167  ILE167      0.0252
     86  CG1       38.0920   31.9730   34.1190 C.3   167  ILE167      0.0019
     87  CG2       38.9670   34.2610   33.5070 C.3   167  ILE167      0.0019
     88  CD1       38.0550   30.5060   33.7840 C.3   167  ILE167      0.0001
     89  N         39.3800   26.9460   48.4460 N.3   199  THR199     -0.1218
     90  CA        40.2770   26.0210   47.7480 C.3   199  THR199      0.1862
     91  C         41.7100   26.3960   48.0840 C.2   199  THR199      0.2287
     92  O         42.0060   27.5640   48.2860 O.2   199  THR199     -0.2866
     93  CB        40.0930   25.9830   46.1980 C.3   199  THR199      0.1770
     94  OG1       40.6740   27.1510   45.5950 O.3   199  THR199     -0.2211
     95  CG2       38.6230   25.8220   45.7940 C.3   199  THR199      0.0375
     96  N         45.8080   24.9570   47.0630 N.3   201  HIS201     -0.1226
     97  CA        46.7010   23.9600   46.4620 C.3   201  HIS201      0.1752
     98  C         48.0770   24.4450   45.9940 C.2   201  HIS201      0.2595
     99  O         48.8300   23.6530   45.4300 O.2   201  HIS201     -0.2718
    100  CB        46.0080   23.2160   45.3040 C.3   201  HIS201      0.0759
    101  CG        45.9320   23.9960   44.0240 C.ar  201  HIS201      0.0818
    102  ND1       44.9190   24.8820   43.7430 N.ar  201  HIS201     -0.2268
    103  CD2       46.7530   24.0040   42.9380 C.ar  201  HIS201      0.1154
    104  CE1       45.1130   25.4070   42.5460 C.ar  201  HIS201      0.1986
    105  NE2       46.2190   24.8940   42.0380 N.ar  201  HIS201     -0.2212
    106  N         48.4110   25.7190   46.1850 N.am  202  ARG202     -0.1980
    107  CA        49.7360   26.1990   45.7540 C.3   202  ARG202      0.1597
    108  C         50.8080   25.3710   46.4380 C.2   202  ARG202      0.2287
    109  O         50.7130   25.1030   47.6390 O.2   202  ARG202     -0.2864
    110  CB        49.9550   27.6690   46.1200 C.3   202  ARG202      0.0334
    111  CG        49.0790   28.6760   45.3780 C.3   202  ARG202      0.0492
    112  CD        49.6990   29.1920   44.0830 C.3   202  ARG202      0.2205
    113  NE        49.8380   28.1780   43.0420 N.pl3 202  ARG202     -0.0865
    114  CZ        48.8560   27.7620   42.2540 C.cat 202  ARG202      0.5346
    115  NH1       47.6200   28.2360   42.4000 N.pl3 202  ARG202      0.1354
    116  NH2       49.1100   26.8460   41.3260 N.pl3 202  ARG202      0.1354
    117  N         36.5950   22.5100   48.7160 N.3   233  SER233     -0.1217
    118  CA        36.8860   21.5830   47.6200 C.3   233  SER233      0.1889
    119  C         38.3780   21.2980   47.6580 C.2   233  SER233      0.2288
    120  O         39.1840   22.2070   47.4450 O.2   233  SER233     -0.2866
    121  CB        36.5100   22.1870   46.2680 C.3   233  SER233      0.2089
    122  OG        36.9890   21.3700   45.2120 O.3   233  SER233     -0.2183
    123  N         41.9010   19.7800   46.5900 N.3   235  HIS235     -0.1241
    124  CA        42.7590   19.3230   45.5000 C.3   235  HIS235      0.1621
    125  C         43.5000   18.0710   45.9560 C.2   235  HIS235      0.2264
    126  O         43.8490   17.9640   47.1270 O.2   235  HIS235     -0.2867
    127  CB        43.7570   20.4430   45.2090 C.3   235  HIS235      0.0745
    128  CG        44.5790   20.2490   43.9710 C.ar  235  HIS235      0.0817
    129  ND1       45.5780   19.3040   43.8700 N.ar  235  HIS235     -0.2268
    130  CD2       44.6060   20.9470   42.8050 C.ar  235  HIS235      0.1154
    131  CE1       46.1510   19.3950   42.6860 C.ar  235  HIS235      0.1986
    132  NE2       45.5920   20.3910   42.0240 N.ar  235  HIS235     -0.2212
    133  N         37.0110   17.2910   44.5110 N.3   262  PRO262     -0.2102
    134  CA        36.9180   18.2180   43.3820 C.3   262  PRO262      0.1504
    135  C         35.6660   17.9510   42.5450 C.2   262  PRO262      0.2575
    136  O         35.3320   16.7900   42.2740 O.2   262  PRO262     -0.2718
    137  CB        38.1860   17.9100   42.5840 C.3   262  PRO262      0.0282
    138  CG        39.1730   17.5050   43.6300 C.3   262  PRO262      0.0208
    139  CD        38.3640   16.7100   44.6330 C.3   262  PRO262      0.0893
    140  N         34.9800   19.0210   42.1510 N.am  263  VAL263     -0.1980
    141  CA        33.7470   18.9040   41.3660 C.3   263  VAL263      0.1595
    142  C         33.9080   19.4850   39.9680 C.2   263  VAL263      0.2287
    143  O         34.8990   20.1500   39.6610 O.2   263  VAL263     -0.2864
    144  CB        32.5550   19.5880   42.0730 C.3   263  VAL263      0.0276
    145  CG1       32.3080   18.9520   43.4340 C.3   263  VAL263      0.0022
    146  CG2       32.8050   21.0910   42.2010 C.3   263  VAL263      0.0022
    147  N         33.0420   21.8400   36.5480 N.3   265  TYR265     -0.1241
    148  CA        33.0050   23.2920   36.3930 C.3   265  TYR265      0.1605
    149  C         31.6210   23.8880   36.6560 C.2   265  TYR265      0.2264
    150  O         31.4950   24.9270   37.3000 O.2   265  TYR265     -0.2867
    151  CB        33.4860   23.6720   34.9980 C.3   265  TYR265      0.0534
    152  CG        33.7940   25.1370   34.8290 C.ar  265  TYR265     -0.0201
    153  CD1       34.5820   25.8060   35.7450 C.ar  265  TYR265     -0.0009
    154  CD2       33.3050   25.8450   33.7300 C.ar  265  TYR265     -0.0009
    155  CE1       34.8800   27.1460   35.5860 C.ar  265  TYR265      0.0417
    156  CE2       33.6020   27.1900   33.5630 C.ar  265  TYR265      0.0417
    157  CZ        34.3900   27.8300   34.5040 C.ar  265  TYR265      0.1957
    158  OH        34.6950   29.1650   34.3500 O.3   265  TYR265     -0.2866
    159  N         31.0280   23.8420   40.3170 N.3   268  PHE268     -0.1241
    160  CA        31.8750   24.7870   41.0300 C.3   268  PHE268      0.1605
    161  C         31.4430   26.2340   40.8080 C.2   268  PHE268      0.2264
    162  O         31.4870   27.0440   41.7350 O.2   268  PHE268     -0.2867
    163  CB        33.3560   24.5940   40.6960 C.3   268  PHE268      0.0534
    164  CG        34.2590   25.2050   41.7160 C.ar  268  PHE268     -0.0203
    165  CD1       34.3770   24.6290   42.9690 C.ar  268  PHE268     -0.0042
    166  CD2       34.9490   26.3780   41.4480 C.ar  268  PHE268     -0.0042
    167  CE1       35.1870   25.2000   43.9400 C.ar  268  PHE268     -0.0003
    168  CE2       35.7690   26.9450   42.4170 C.ar  268  PHE268     -0.0003
    169  CZ        35.8750   26.3520   43.6610 C.ar  268  PHE268     -0.0000
    170  N         30.7050   28.9930   43.6300 N.3   271  GLU271     -0.1245
    171  CA        31.3010   30.3260   43.6630 C.3   271  GLU271      0.1567
    172  C         30.2370   31.4130   43.6830 C.2   271  GLU271      0.2260
    173  O         30.2940   32.3390   44.5060 O.2   271  GLU271     -0.2867
    174  CB        32.1980   30.5450   42.4490 C.3   271  GLU271      0.0388
    175  CG        33.4540   29.7040   42.4350 C.3   271  GLU271      0.1160
    176  CD        34.2360   29.8870   41.1600 C.2   271  GLU271      0.3649
    177  OE1       33.6230   29.9140   40.0790 O.co2 271  GLU271     -0.2457
    178  OE2       35.4710   30.0160   41.2340 O.co2 271  GLU271     -0.2457
    179  N         44.0650   29.7760   44.4360 N.3   281  SER281     -0.1202
    180  CA        43.9740   29.4660   43.0140 C.3   281  SER281      0.2020
    181  C         44.0410   30.7130   42.1400 C.2   281  SER281      0.2619
    182  O         43.4800   31.7500   42.5020 O.2   281  SER281     -0.2717
    183  CB        42.6320   28.7820   42.7580 C.3   281  SER281      0.2103
    184  OG        42.3540   28.7400   41.3700 O.3   281  SER281     -0.2182
    185  N         44.6850   30.6120   40.9770 N.am  282  GLY282     -0.1942
    186  CA        44.6960   31.7260   40.0400 C.3   282  GLY282      0.2014
    187  C         43.3430   31.9420   39.3940 C.2   282  GLY282      0.2639
    188  O         42.8070   33.0550   39.3800 O.2   282  GLY282     -0.2714
    189  N         42.7820   30.8760   38.8390 N.am  283  GLY283     -0.1939
    190  CA        41.4940   30.9690   38.1810 C.3   283  GLY283      0.2014
    191  C         40.3650   31.3850   39.1090 C.2   283  GLY283      0.2638
    192  O         39.4800   32.1320   38.6950 O.2   283  GLY283     -0.2714
    193  N         40.3880   30.9200   40.3560 N.am  284  VAL284     -0.1977
    194  CA        39.3080   31.2640   41.2790 C.3   284  VAL284      0.1596
    195  C         39.3420   32.7590   41.6210 C.2   284  VAL284      0.2287
    196  O         38.2930   33.3770   41.7640 O.2   284  VAL284     -0.2864
    197  CB        39.3180   30.3800   42.5300 C.3   284  VAL284      0.0276
    198  CG1       38.2740   30.8330   43.5340 C.3   284  VAL284      0.0022
    199  CG2       39.0780   28.9270   42.1440 C.3   284  VAL284      0.0022
    200  N         37.5170   34.2930   38.6880 N.3   287  GLU287     -0.1245
    201  CA        36.0900   34.0000   38.7330 C.3   287  GLU287      0.1567
    202  C         35.3660   34.7420   39.8450 C.2   287  GLU287      0.2260
    203  O         34.2580   35.2270   39.6390 O.2   287  GLU287     -0.2867
    204  CB        35.8610   32.4920   38.8240 C.3   287  GLU287      0.0388
    205  CG        36.2940   31.8170   37.5350 C.3   287  GLU287      0.1160
    206  CD        36.4390   30.3250   37.6410 C.2   287  GLU287      0.3649
    207  OE1       36.5250   29.7890   38.7700 O.co2 287  GLU287     -0.2457
    208  OE2       36.4940   29.6790   36.5780 O.co2 287  GLU287     -0.2457
@<TRIPOS>BOND
     1    30    29    2
     2    29    28    1
     3    22    21    2
     4    28    27    1
     5    28    31    1
     6    49    48    2
     7    21    27   am
     8    21    20    1
     9    31    32    1
    10    81    82    1
    11    48    47    1
    12    19    20    1
    13    20    23    1
    14    82    83    1
    15    82    85    1
    16    83    84    2
    17    32    33    1
    18    47    50    1
    19    47    46    1
    20    50    51    1
    21    15    14    2
    22    68    67    2
    23    33    34    1
    24    70    69    1
    25    23    25    1
    26    23    24    1
    27    57    58    1
    28    85    87    1
    29    85    86    1
    30    14    13    1
    31    58    59    1
    32    58    61    1
    33    24    26    1
    34    39    38    2
    35   156   154   ar
    36   156   157   ar
    37    67    66    1
    38    65    59   am
    39    65    66    1
    40    34    35    1
    41     4     3    2
    42   154   152   ar
    43    88    86    1
    44    51    52   ar
    45    51    53   ar
    46    69    66    1
    47    69    71    1
    48    59    60    2
    49   158   157    1
    50    52    54   ar
    51   157   155   ar
    52    61    62    1
    53     3     2    1
    54     3    12   am
    55    36    37    1
    56    13    12    1
    57    13    16    1
    58    38    37    1
    59    53    55   ar
    60   152   151    1
    61   152   153   ar
    62     1     2    1
    63   151   148    1
    64     2     5    1
    65    12    18    1
    66    37    40    1
    67    62    63   ar
    68    62    64   ar
    69    16    17    1
    70    40    41    1
    71   155   153   ar
    72    54    56   ar
    73    17    18    1
    74    75    74    2
    75    55    56   ar
    76   148   147    1
    77   148   149    1
    78     5     6    1
    79    41    42   ar
    80    41    43   ar
    81   208   206   ar
    82   149   150    2
    83     6     7    1
    84    42    44   ar
    85    43    45   ar
    86    74    73    1
    87   205   206    1
    88   205   204    1
    89   206   207   ar
    90    44    45   ar
    91    73    76    1
    92    73    72    1
    93   190   189    1
    94   190   191    1
    95     7     8    1
    96    76    77    1
    97   200   201    1
    98   192   191    2
    99   201   204    1
   100   201   202    1
   101    77    78    1
   102   189   187   am
   103   191   193   am
   104     8     9    2
   105   188   187    2
   106   187   186    1
   107   203   202    2
   108   143   142    2
   109   142   141    1
   110   186   185    1
   111    78    80   ar
   112    78    79   ar
   113   177   176   ar
   114   159   160    1
   115   193   194    1
   116     9    10    1
   117     9    11    1
   118   163   160    1
   119   163   164    1
   120   161   160    1
   121   161   162    2
   122   185   181   am
   123   176   178   ar
   124   176   175    1
   125   194   195    1
   126   194   197    1
   127   116   114    1
   128   141   144    1
   129   141   140    1
   130   184   183    1
   131   166   164   ar
   132   166   168   ar
   133   195   196    2
   134   164   165   ar
   135   132   131   ar
   136   132   130   ar
   137   105   104   ar
   138   105   103   ar
   139   144   146    1
   140   144   145    1
   141   181   182    2
   142   181   180    1
   143   199   197    1
   144   140   135   am
   145   114   115    1
   146   114   113    2
   147   136   135    2
   148   168   169   ar
   149   175   174    1
   150   174   171    1
   151   197   198    1
   152   135   134    1
   153   104   102   ar
   154   137   134    1
   155   137   138    1
   156   131   129   ar
   157   183   180    1
   158   130   128   ar
   159   103   101   ar
   160   165   167   ar
   161   180   179    1
   162   113   112    1
   163   134   133    1
   164   138   139    1
   165   170   171    1
   166   169   167   ar
   167   171   172    1
   168   172   173    2
   169   102   101   ar
   170   129   128   ar
   171   128   127    1
   172   101   100    1
   173   112   111    1
   174   133   139    1
   175   127   124    1
   176   122   121    1
   177   100    97    1
   178   111   110    1
   179    99    98    2
   180   124   125    1
   181   124   123    1
   182    94    93    1
   183   107   110    1
   184   107   106    1
   185   107   108    1
   186    95    93    1
   187   125   126    2
   188    98   106   am
   189    98    97    1
   190    93    90    1
   191   121   118    1
   192   108   109    2
   193    97    96    1
   194   120   119    2
   195   118   119    1
   196   118   117    1
   197    90    91    1
   198    90    89    1
   199    91    92    2
