@<TRIPOS>MOLECULE
tmp/4nesA00.pdb
 196 193 0 0 0
SMALL
GASTEIGER

@<TRIPOS>ATOM
      1  N         46.1300   19.9860   32.3940 N.3     8  THR8       -0.1203
      2  CA        45.5490   20.1350   33.7400 C.3     8  THR8        0.1994
      3  C         44.1630   20.7640   33.7280 C.2     8  THR8        0.2618
      4  O         43.7760   21.4210   32.7610 O.2     8  THR8       -0.2717
      5  CB        46.4360   21.0080   34.6620 C.3     8  THR8        0.1784
      6  OG1       46.4520   22.3560   34.1710 O.3     8  THR8       -0.2211
      7  CG2       47.8520   20.4510   34.7510 C.3     8  THR8        0.0376
      8  N         43.4390   20.5740   34.8300 N.am    9  ARG9       -0.1965
      9  CA        42.1190   21.1750   35.0340 C.3     9  ARG9        0.1714
     10  C         41.9590   22.6360   34.5560 C.2     9  ARG9        0.2458
     11  O         41.0980   22.9090   33.7220 O.2     9  ARG9       -0.2730
     12  CB        41.6800   21.0320   36.4970 C.3     9  ARG9        0.0347
     13  CG        40.4680   21.8870   36.8440 C.3     9  ARG9        0.0492
     14  CD        39.9670   21.5780   38.2530 C.3     9  ARG9        0.2205
     15  NE        40.8300   22.1240   39.3060 N.pl3   9  ARG9       -0.0865
     16  CZ        40.6540   21.9040   40.6010 C.cat   9  ARG9        0.5346
     17  NH1       39.6750   21.1100   41.0150 N.pl3   9  ARG9        0.1354
     18  NH2       41.4720   22.4620   41.4850 N.pl3   9  ARG9        0.1354
     19  N         42.7670   23.5820   35.0760 N.am   10  PRO10      -0.2727
     20  CA        42.5450   24.9800   34.6620 C.3    10  PRO10       0.1402
     21  C         42.7930   25.2300   33.1820 C.2    10  PRO10       0.2269
     22  O         42.1250   26.0920   32.6010 O.2    10  PRO10      -0.2865
     23  CB        43.5640   25.7620   35.5020 C.3    10  PRO10       0.0296
     24  CG        44.6300   24.7460   35.8550 C.3    10  PRO10       0.0237
     25  CD        43.8780   23.4710   36.0460 C.3    10  PRO10       0.0939
     26  N         48.9700   15.2050   32.4890 N.3    36  GLN36      -0.1231
     27  CA        49.5320   15.6570   33.7540 C.3    36  GLN36       0.1698
     28  C         48.5020   15.4400   34.8540 C.2    36  GLN36       0.2592
     29  O         48.8160   14.9130   35.9210 O.2    36  GLN36      -0.2718
     30  CB        49.9470   17.1330   33.6810 C.3    36  GLN36       0.0381
     31  CG        50.5760   17.5950   34.9870 C.3    36  GLN36       0.0905
     32  CD        51.0960   19.0250   34.9640 C.2    36  GLN36       0.2608
     33  OE1       51.3520   19.6130   33.9070 O.2    36  GLN36      -0.2717
     34  NE2       51.2410   19.5940   36.1450 N.am   36  GLN36      -0.0878
     35  N         47.2640   15.8510   34.5730 N.am   37  HIS37      -0.1962
     36  CA        46.1080   15.4890   35.3910 C.3    37  HIS37       0.1787
     37  C         45.3890   14.3170   34.7500 C.2    37  HIS37       0.2620
     38  O         45.2740   14.2580   33.5220 O.2    37  HIS37      -0.2715
     39  CB        45.1630   16.6750   35.5440 C.3    37  HIS37       0.0785
     40  CG        45.6610   17.6980   36.5120 C.ar   37  HIS37       0.0821
     41  ND1       44.9280   18.7930   36.8890 N.ar   37  HIS37      -0.2267
     42  CD2       46.8340   17.7580   37.1850 C.ar   37  HIS37       0.1154
     43  CE1       45.6230   19.4920   37.7760 C.ar   37  HIS37       0.1986
     44  NE2       46.7830   18.8840   37.9660 N.ar   37  HIS37      -0.2212
     45  N         44.9050   13.3950   35.5830 N.am   38  TYR38      -0.1960
     46  CA        44.4040   12.1010   35.1150 C.3    38  TYR38       0.1771
     47  C         43.2070   11.6230   35.9310 C.2    38  TYR38       0.2620
     48  O         42.3880   10.8460   35.4280 O.2    38  TYR38      -0.2715
     49  CB        45.5200   11.0460   35.1650 C.3    38  TYR38       0.0574
     50  CG        46.3360   11.1370   36.4240 C.ar   38  TYR38      -0.0198
     51  CD1       45.9610   10.4640   37.5720 C.ar   38  TYR38      -0.0009
     52  CD2       47.4740   11.9290   36.4690 C.ar   38  TYR38      -0.0009
     53  CE1       46.6970   10.5670   38.7340 C.ar   38  TYR38       0.0417
     54  CE2       48.2190   12.0460   37.6270 C.ar   38  TYR38       0.0417
     55  CZ        47.8320   11.3560   38.7540 C.ar   38  TYR38       0.1957
     56  OH        48.5620   11.4710   39.9090 O.3    38  TYR38      -0.2866
     57  N         43.1040   12.0580   37.1850 N.am   39  SER39      -0.1950
     58  CA        41.9470   11.6930   38.0010 C.3    39  SER39       0.1924
     59  C         40.6960   12.2110   37.3030 C.2    39  SER39       0.2314
     60  O         40.7120   13.3050   36.7420 O.2    39  SER39      -0.2863
     61  CB        42.0510   12.2890   39.4090 C.3    39  SER39       0.2116
     62  OG        43.1640   11.7600   40.1070 O.3    39  SER39      -0.2180
     63  N         52.1000   12.2730   37.2220 N.3    62  SER62      -0.1202
     64  CA        52.7760   12.9710   38.3010 C.3    62  SER62       0.2020
     65  C         54.2570   12.6460   38.3980 C.2    62  SER62       0.2619
     66  O         54.7220   11.6100   37.9170 O.2    62  SER62      -0.2717
     67  CB        52.0950   12.6570   39.6290 C.3    62  SER62       0.2103
     68  OG        50.7250   13.0240   39.5620 O.3    62  SER62      -0.2182
     69  N         54.9880   13.5450   39.0430 N.am   63  GLY63      -0.1956
     70  CA        56.3970   13.3350   39.3020 C.3    63  GLY63       0.1869
     71  C         57.0220   14.6330   39.7400 C.2    63  GLY63       0.2309
     72  O         56.3550   15.6710   39.8110 O.2    63  GLY63      -0.2863
     73  N         59.6100   17.8580   39.1880 N.3    65  HIS65      -0.1241
     74  CA        59.6140   18.7670   38.0430 C.3    65  HIS65       0.1621
     75  C         60.4940   18.2980   36.9000 C.2    65  HIS65       0.2264
     76  O         60.0950   18.3450   35.7490 O.2    65  HIS65      -0.2867
     77  CB        60.0570   20.1710   38.4560 C.3    65  HIS65       0.0745
     78  CG        59.0730   20.8770   39.3280 C.ar   65  HIS65       0.0817
     79  ND1       57.9010   21.4140   38.8390 N.ar   65  HIS65      -0.2268
     80  CD2       59.0870   21.1410   40.6530 C.ar   65  HIS65       0.1154
     81  CE1       57.2290   21.9650   39.8300 C.ar   65  HIS65       0.1986
     82  NE2       57.9250   21.8170   40.9450 N.ar   65  HIS65      -0.2212
     83  N         58.9710   14.9770   35.3550 N.3    68  GLN68      -0.1245
     84  CA        57.7290   15.2180   34.6390 C.3    68  GLN68       0.1566
     85  C         57.9700   16.0560   33.3850 C.2    68  GLN68       0.2260
     86  O         57.5210   15.6980   32.2940 O.2    68  GLN68      -0.2867
     87  CB        56.7630   15.9270   35.5820 C.3    68  GLN68       0.0367
     88  CG        55.3700   16.1310   35.0450 C.3    68  GLN68       0.0905
     89  CD        54.5280   16.9300   36.0140 C.2    68  GLN68       0.2608
     90  OE1       54.7990   18.1050   36.2520 O.2    68  GLN68      -0.2717
     91  NE2       53.5170   16.2940   36.5980 N.am   68  GLN68      -0.0878
     92  N         50.4980   28.3870   32.8090 N.3    92  ASP92      -0.1225
     93  CA        51.7800   28.3550   33.5020 C.3    92  ASP92       0.1805
     94  C         52.1430   27.0180   34.1660 C.2    92  ASP92       0.2598
     95  O         52.9590   26.9760   35.0960 O.2    92  ASP92      -0.2718
     96  CB        51.8070   29.4840   34.5340 C.3    92  ASP92       0.1424
     97  CG        50.6390   29.4200   35.4870 C.2    92  ASP92       0.3668
     98  OD1       50.0290   28.3390   35.6200 O.co2  92  ASP92      -0.2456
     99  OD2       50.3150   30.4540   36.1030 O.co2  92  ASP92      -0.2456
    100  N         51.5770   25.9240   33.6880 N.am   93  THR93      -0.1939
    101  CA        51.8820   24.6130   34.2480 C.3    93  THR93       0.2028
    102  C         53.1360   24.0480   33.5930 C.2    93  THR93       0.2642
    103  O         53.6320   24.5950   32.6070 O.2    93  THR93      -0.2714
    104  CB        50.7130   23.6430   34.0310 C.3    93  THR93       0.1808
    105  OG1       50.5700   23.4040   32.6250 O.3    93  THR93      -0.2208
    106  CG2       49.4170   24.2380   34.5740 C.3    93  THR93       0.0379
    107  N         53.6450   22.9420   34.1270 N.am   94  ASN94      -0.1971
    108  CA        54.7870   22.2840   33.4920 C.3    94  ASN94       0.1688
    109  C         54.4790   21.8470   32.0580 C.2    94  ASN94       0.2292
    110  O         55.3600   21.8600   31.2040 O.2    94  ASN94      -0.2864
    111  CB        55.2860   21.0980   34.3170 C.3    94  ASN94       0.1181
    112  CG        56.0450   21.5260   35.5520 C.2    94  ASN94       0.2629
    113  OD1       56.3650   22.7030   35.7320 O.2    94  ASN94      -0.2716
    114  ND2       56.3520   20.5610   36.4140 N.am   94  ASN94      -0.0877
    115  N         57.1310   27.8340   40.9010 N.3   124  PRO124     -0.2102
    116  CA        57.3160   27.1640   39.6060 C.3   124  PRO124      0.1504
    117  C         56.4340   27.7500   38.5000 C.2   124  PRO124      0.2575
    118  O         56.8470   27.7760   37.3340 O.2   124  PRO124     -0.2718
    119  CB        56.9380   25.7020   39.8890 C.3   124  PRO124      0.0282
    120  CG        56.1380   25.7360   41.1610 C.3   124  PRO124      0.0208
    121  CD        56.6230   26.9170   41.9400 C.3   124  PRO124      0.0893
    122  N         55.2510   28.2350   38.8540 N.am  125  GLU125     -0.1980
    123  CA        54.3710   28.8360   37.8560 C.3   125  GLU125      0.1602
    124  C         54.9760   30.0890   37.2560 C.2   125  GLU125      0.2287
    125  O         54.8420   30.3190   36.0550 O.2   125  GLU125     -0.2864
    126  CB        53.0040   29.1720   38.4580 C.3   125  GLU125      0.0415
    127  CG        52.1330   27.9590   38.7510 C.3   125  GLU125      0.1163
    128  CD        52.4850   27.2570   40.0570 C.2   125  GLU125      0.3649
    129  OE1       53.3730   27.7180   40.8170 O.co2 125  GLU125     -0.2457
    130  OE2       51.8590   26.2080   40.3210 O.co2 125  GLU125     -0.2457
    131  N         57.6390   29.0330   34.8350 N.3   128  ASN128     -0.1240
    132  CA        57.0370   28.4960   33.6220 C.3   128  ASN128      0.1653
    133  C         56.5170   29.5980   32.7160 C.2   128  ASN128      0.2266
    134  O         56.7150   29.5770   31.5000 O.2   128  ASN128     -0.2867
    135  CB        55.8970   27.5380   33.9600 C.3   128  ASN128      0.1155
    136  CG        56.3850   26.2280   34.5400 C.2   128  ASN128      0.2627
    137  OD1       57.5500   25.8580   34.3670 O.2   128  ASN128     -0.2716
    138  ND2       55.4960   25.5150   35.2410 N.am  128  ASN128     -0.0877
    139  N         45.8080   24.9570   47.0630 N.3   201  HIS201     -0.1226
    140  CA        46.7010   23.9600   46.4620 C.3   201  HIS201      0.1752
    141  C         48.0770   24.4450   45.9940 C.2   201  HIS201      0.2595
    142  O         48.8300   23.6530   45.4300 O.2   201  HIS201     -0.2718
    143  CB        46.0080   23.2160   45.3040 C.3   201  HIS201      0.0759
    144  CG        45.9320   23.9960   44.0240 C.ar  201  HIS201      0.0818
    145  ND1       44.9190   24.8820   43.7430 N.ar  201  HIS201     -0.2268
    146  CD2       46.7530   24.0040   42.9380 C.ar  201  HIS201      0.1154
    147  CE1       45.1130   25.4070   42.5460 C.ar  201  HIS201      0.1986
    148  NE2       46.2190   24.8940   42.0380 N.ar  201  HIS201     -0.2212
    149  N         48.4110   25.7190   46.1850 N.am  202  ARG202     -0.1980
    150  CA        49.7360   26.1990   45.7540 C.3   202  ARG202      0.1597
    151  C         50.8080   25.3710   46.4380 C.2   202  ARG202      0.2287
    152  O         50.7130   25.1030   47.6390 O.2   202  ARG202     -0.2864
    153  CB        49.9550   27.6690   46.1200 C.3   202  ARG202      0.0334
    154  CG        49.0790   28.6760   45.3780 C.3   202  ARG202      0.0492
    155  CD        49.6990   29.1920   44.0830 C.3   202  ARG202      0.2205
    156  NE        49.8380   28.1780   43.0420 N.pl3 202  ARG202     -0.0865
    157  CZ        48.8560   27.7620   42.2540 C.cat 202  ARG202      0.5346
    158  NH1       47.6200   28.2360   42.4000 N.pl3 202  ARG202      0.1354
    159  NH2       49.1100   26.8460   41.3260 N.pl3 202  ARG202      0.1354
    160  N         41.9010   19.7800   46.5900 N.3   235  HIS235     -0.1227
    161  CA        42.7590   19.3230   45.5000 C.3   235  HIS235      0.1737
    162  C         43.5000   18.0710   45.9560 C.2   235  HIS235      0.2438
    163  O         43.8490   17.9640   47.1270 O.2   235  HIS235     -0.2733
    164  CB        43.7570   20.4430   45.2090 C.3   235  HIS235      0.0758
    165  CG        44.5790   20.2490   43.9710 C.ar  235  HIS235      0.0818
    166  ND1       45.5780   19.3040   43.8700 N.ar  235  HIS235     -0.2268
    167  CD2       44.6060   20.9470   42.8050 C.ar  235  HIS235      0.1154
    168  CE1       46.1510   19.3950   42.6860 C.ar  235  HIS235      0.1986
    169  NE2       45.5920   20.3910   42.0240 N.ar  235  HIS235     -0.2212
    170  N         43.7310   17.1150   45.0460 N.am  236  PRO236     -0.2718
    171  CA        44.3960   15.8790   45.4870 C.3   236  PRO236      0.1535
    172  C         45.8130   16.0820   46.0430 C.2   236  PRO236      0.2598
    173  O         46.2140   15.3220   46.9230 O.2   236  PRO236     -0.2715
    174  CB        44.4130   15.0120   44.2270 C.3   236  PRO236      0.0310
    175  CG        44.2210   15.9800   43.0800 C.3   236  PRO236      0.0237
    176  CD        43.3000   17.0410   43.6400 C.3   236  PRO236      0.0939
    177  N         46.5560   17.0690   45.5530 N.am  237  ARG237     -0.1978
    178  CA        47.8520   17.3810   46.1570 C.3   237  ARG237      0.1597
    179  C         47.6590   17.7370   47.6250 C.2   237  ARG237      0.2287
    180  O         48.3790   17.2600   48.5090 O.2   237  ARG237     -0.2864
    181  CB        48.4920   18.5670   45.4410 C.3   237  ARG237      0.0334
    182  CG        49.9270   18.8340   45.8520 C.3   237  ARG237      0.0492
    183  CD        50.3670   20.2380   45.4600 C.3   237  ARG237      0.2205
    184  NE        51.8170   20.3770   45.5750 N.pl3 237  ARG237     -0.0865
    185  CZ        52.6600   20.2800   44.5560 C.cat 237  ARG237      0.5346
    186  NH1       52.2150   20.0680   43.3190 N.pl3 237  ARG237      0.1354
    187  NH2       53.9620   20.4050   44.7730 N.pl3 237  ARG237      0.1354
    188  N         46.7560   14.9000   49.9720 N.3   240  LYS240     -0.1245
    189  CA        47.9310   14.0690   50.2200 C.3   240  LYS240      0.1561
    190  C         48.8220   14.7280   51.2600 C.2   240  LYS240      0.2260
    191  O         49.3070   14.0670   52.1870 O.2   240  LYS240     -0.2867
    192  CB        48.6970   13.8290   48.9160 C.3   240  LYS240      0.0271
    193  CG        50.0270   13.1100   49.1010 C.3   240  LYS240      0.0035
    194  CD        50.6880   12.8400   47.7600 C.3   240  LYS240      0.0206
    195  CE        51.1830   14.1220   47.1220 C.3   240  LYS240      0.1093
    196  NZ        51.8570   13.8280   45.8310 N.3   240  LYS240     -0.1314
@<TRIPOS>BOND
     1   110   109    2
     2   134   133    2
     3   109   108    1
     4    86    85    2
     5     1     2    1
     6    26    27    1
     7    22    21    2
     8   103   102    2
     9   105   104    1
    10   133   132    1
    11     4     3    2
    12    92    93    1
    13    21    20    1
    14    85    84    1
    15   108   107    1
    16   108   111    1
    17    93    94    1
    18    93    96    1
    19    38    37    2
    20   102   107   am
    21   102   101    1
    22   132   135    1
    23   132   131    1
    24    30    27    1
    25    30    31    1
    26   100    94   am
    27   100   101    1
    28    11    10    2
    29     3     2    1
    30     3     8   am
    31     2     5    1
    32    27    28    1
    33    33    32    2
    34   135   136    1
    35   104   101    1
    36   104   106    1
    37    94    95    2
    38     6     5    1
    39   111   112    1
    40   137   136    2
    41    96    97    1
    42   136   138   am
    43    10     9    1
    44    10    19   am
    45    35    28   am
    46    35    36    1
    47    84    83    1
    48    84    87    1
    49     5     7    1
    50    20    19    1
    51    20    23    1
    52    37    36    1
    53    37    45   am
    54     8     9    1
    55    28    29    2
    56    32    31    1
    57    32    34   am
    58     9    12    1
    59    88    87    1
    60    88    89    1
    61    19    25    1
    62    46    49    1
    63    46    45    1
    64    46    47    1
    65    49    50    1
    66    36    39    1
    67    48    47    2
    68    97    98   ar
    69    97    99   ar
    70    23    24    1
    71    39    40    1
    72   112   113    2
    73   112   114   am
    74    76    75    2
    75    24    25    1
    76    47    57   am
    77    89    90    2
    78    89    91   am
    79   125   124    2
    80    50    52   ar
    81    50    51   ar
    82    52    54   ar
    83    12    13    1
    84    40    41   ar
    85    40    42   ar
    86    60    59    2
    87    13    14    1
    88    41    43   ar
    89    75    74    1
    90    57    58    1
    91    42    44   ar
    92    63    64    1
    93   124   123    1
    94    59    58    1
    95   118   117    2
    96    51    53   ar
    97    54    55   ar
    98    43    44   ar
    99   123   126    1
   100   123   122    1
   101    66    65    2
   102    58    61    1
   103    74    77    1
   104    74    73    1
   105    14    15    1
   106    64    65    1
   107    64    67    1
   108    65    69   am
   109    77    78    1
   110   126   127    1
   111   117   122   am
   112   117   116    1
   113    53    55   ar
   114   127   128    1
   115    55    56    1
   116    79    78   ar
   117    79    81   ar
   118    69    70    1
   119    70    71    1
   120    15    16    2
   121    78    80   ar
   122    61    62    1
   123    68    67    1
   124   116   119    1
   125   116   115    1
   126    71    72    2
   127    81    82   ar
   128   119   120    1
   129   128   130   ar
   130   128   129   ar
   131    16    17    1
   132    16    18    1
   133    80    82   ar
   134   115   121    1
   135   120   121    1
   136   159   157    1
   137   169   168   ar
   138   169   167   ar
   139   148   147   ar
   140   148   146   ar
   141   157   158    1
   142   157   156    2
   143   147   145   ar
   144   168   166   ar
   145   167   165   ar
   146   146   144   ar
   147   156   155    1
   148   175   176    1
   149   175   174    1
   150   186   185    1
   151   176   170    1
   152   145   144   ar
   153   166   165   ar
   154   165   164    1
   155   144   143    1
   156   155   154    1
   157   174   171    1
   158   185   187    1
   159   185   184    2
   160   170   171    1
   161   170   162   am
   162   164   161    1
   163   143   140    1
   164   154   153    1
   165   142   141    2
   166   181   182    1
   167   181   178    1
   168   183   184    1
   169   183   182    1
   170   171   172    1
   171   161   162    1
   172   161   160    1
   173   177   172   am
   174   177   178    1
   175   150   153    1
   176   150   149    1
   177   150   151    1
   178   196   195    1
   179   162   163    2
   180   141   149   am
   181   141   140    1
   182   172   173    2
   183   178   179    1
   184   151   152    2
   185   140   139    1
   186   195   194    1
   187   179   180    2
   188   194   193    1
   189   192   193    1
   190   192   189    1
   191   188   189    1
   192   189   190    1
   193   190   191    2
