@<TRIPOS>MOLECULE
tmp/4neuA00.pdb
 209 195 0 0 0
SMALL
GASTEIGER

@<TRIPOS>ATOM
      1  N         29.9500   58.6180   63.3480 N.3    18  LEU18      -0.1231
      2  CA        30.4910   59.9040   62.9610 C.3    18  LEU18       0.1693
      3  C         29.3470   60.9210   62.9910 C.2    18  LEU18       0.2592
      4  O         28.1660   60.5380   62.9520 O.2    18  LEU18      -0.2718
      5  CB        31.1070   59.7820   61.5610 C.3    18  LEU18       0.0284
      6  CG        32.1300   58.6380   61.4220 C.3    18  LEU18       0.0019
      7  CD1       32.5760   58.4730   59.9780 C.3    18  LEU18       0.0001
      8  CD2       33.3300   58.8680   62.3360 C.3    18  LEU18       0.0001
      9  N         29.6780   62.2070   63.0800 N.am   19  ASP19      -0.1960
     10  CA        28.6430   63.2400   63.0170 C.3    19  ASP19       0.1840
     11  C         28.0820   63.3610   61.5840 C.2    19  ASP19       0.2622
     12  O         28.8230   63.5120   60.5980 O.2    19  ASP19      -0.2715
     13  CB        29.1450   64.5710   63.5830 C.3    19  ASP19       0.1450
     14  CG        29.0930   64.6120   65.1210 C.2    19  ASP19       0.3671
     15  OD1       29.0430   63.5400   65.7730 O.co2  19  ASP19      -0.2456
     16  OD2       29.0980   65.7280   65.6870 O.co2  19  ASP19      -0.2456
     17  N         26.7560   63.2720   61.4980 N.am   20  SER20      -0.1950
     18  CA        26.0540   62.9270   60.2630 C.3    20  SER20       0.1924
     19  C         25.4070   64.1100   59.5470 C.2    20  SER20       0.2314
     20  O         24.5930   63.9140   58.6350 O.2    20  SER20      -0.2863
     21  CB        24.9570   61.9180   60.6080 C.3    20  SER20       0.2116
     22  OG        24.0450   62.4580   61.5610 O.3    20  SER20      -0.2180
     23  N         25.4070   58.1060   60.5740 N.3    26  VAL26      -0.1245
     24  CA        26.5430   57.8160   59.7180 C.3    26  VAL26       0.1561
     25  C         27.5240   56.9950   60.5310 C.2    26  VAL26       0.2260
     26  O         27.8670   57.3680   61.6400 O.2    26  VAL26      -0.2867
     27  CB        27.2070   59.0930   59.1690 C.3    26  VAL26       0.0252
     28  CG1       28.3820   58.7480   58.2610 C.3    26  VAL26       0.0019
     29  CG2       26.1970   59.9110   58.3780 C.3    26  VAL26       0.0019
     30  N         31.3360   53.3240   54.6180 N.3    38  ILE38      -0.1245
     31  CA        30.4910   54.2680   55.3460 C.3    38  ILE38       0.1561
     32  C         29.0420   53.9000   55.0770 C.2    38  ILE38       0.2260
     33  O         28.6460   53.6380   53.9430 O.2    38  ILE38      -0.2867
     34  CB        30.7540   55.7310   54.8910 C.3    38  ILE38       0.0252
     35  CG1       32.1530   56.1980   55.3340 C.3    38  ILE38       0.0019
     36  CG2       29.6700   56.6850   55.3960 C.3    38  ILE38       0.0019
     37  CD1       32.2380   56.6900   56.7610 C.3    38  ILE38       0.0001
     38  N         24.9910   55.1610   55.8140 N.3    40  LYS40      -0.1245
     39  CA        24.0640   56.1250   56.3550 C.3    40  LYS40       0.1561
     40  C         22.7700   55.3880   56.5200 C.2    40  LYS40       0.2260
     41  O         22.3270   54.6610   55.6280 O.2    40  LYS40      -0.2867
     42  CB        23.8910   57.3530   55.4540 C.3    40  LYS40       0.0271
     43  CG        23.2530   58.5500   56.1670 C.3    40  LYS40       0.0035
     44  CD        23.0860   59.7500   55.2410 C.3    40  LYS40       0.0206
     45  CE        22.1690   60.7950   55.8450 C.3    40  LYS40       0.1093
     46  NZ        21.9990   61.9790   54.9710 N.3    40  LYS40      -0.1314
     47  N         18.1010   60.6600   48.6450 N.3    58  GLU58      -0.1245
     48  CA        19.5390   60.8880   48.7340 C.3    58  GLU58       0.1567
     49  C         20.2540   59.8700   47.8510 C.2    58  GLU58       0.2260
     50  O         21.0850   60.2420   47.0480 O.2    58  GLU58      -0.2867
     51  CB        20.0560   60.8200   50.1790 C.3    58  GLU58       0.0388
     52  CG        21.5050   61.2520   50.3080 C.3    58  GLU58       0.1160
     53  CD        21.9810   61.3200   51.7350 C.2    58  GLU58       0.3649
     54  OE1       21.2530   60.8400   52.6200 O.co2  58  GLU58      -0.2457
     55  OE2       23.0990   61.8400   51.9720 O.co2  58  GLU58      -0.2457
     56  N         19.8540   60.6510   44.0590 N.3    61  MET61      -0.1230
     57  CA        20.6270   61.8190   43.7230 C.3    61  MET61       0.1702
     58  C         22.1070   61.4570   43.5870 C.2    61  MET61       0.2592
     59  O         22.7400   61.7800   42.5950 O.2    61  MET61      -0.2718
     60  CB        20.4190   62.8450   44.8190 C.3    61  MET61       0.0401
     61  CG        21.0880   64.1750   44.5870 C.3    61  MET61       0.0596
     62  SD        20.0170   65.2950   43.6900 S.3    61  MET61      -0.1393
     63  CE        20.3180   66.7950   44.6340 C.3    61  MET61       0.0692
     64  N         22.6550   60.7590   44.5680 N.am   62  MET62      -0.1979
     65  CA        24.0520   60.3410   44.5040 C.3    62  MET62       0.1605
     66  C         24.3200   59.4240   43.3230 C.2    62  MET62       0.2287
     67  O         25.4200   59.4350   42.7560 O.2    62  MET62      -0.2864
     68  CB        24.4710   59.6370   45.7850 C.3    62  MET62       0.0413
     69  CG        24.5120   60.5690   46.9740 C.3    62  MET62       0.0598
     70  SD        24.9730   59.7130   48.4740 S.3    62  MET62      -0.1393
     71  CE        26.7390   59.9970   48.5370 C.3    62  MET62       0.0692
     72  N         24.2370   61.3660   39.9720 N.3    65  LEU65      -0.1245
     73  CA        25.4060   62.2470   39.9110 C.3    65  LEU65       0.1561
     74  C         26.7400   61.5440   40.1790 C.2    65  LEU65       0.2260
     75  O         27.6770   62.1720   40.6490 O.2    65  LEU65      -0.2867
     76  CB        25.2440   63.4200   40.8730 C.3    65  LEU65       0.0270
     77  CG        24.0480   64.3220   40.6310 C.3    65  LEU65       0.0019
     78  CD1       23.9360   65.2540   41.8190 C.3    65  LEU65       0.0001
     79  CD2       24.1860   65.1110   39.3390 C.3    65  LEU65       0.0001
     80  N         32.4590   63.4410   43.0370 N.3    70  VAL70      -0.1231
     81  CA        31.3160   63.3490   43.9390 C.3    70  VAL70       0.1692
     82  C         31.4480   62.0820   44.7610 C.2    70  VAL70       0.2591
     83  O         31.8570   61.0380   44.2360 O.2    70  VAL70      -0.2718
     84  CB        30.0130   63.3070   43.1480 C.3    70  VAL70       0.0266
     85  CG1       28.8250   63.0360   44.0420 C.3    70  VAL70       0.0020
     86  CG2       29.8400   64.6060   42.3770 C.3    70  VAL70       0.0020
     87  N         31.1150   62.1730   46.0520 N.am   71  VAL71      -0.1980
     88  CA        31.2250   61.0180   46.9540 C.3    71  VAL71       0.1595
     89  C         30.5240   59.8090   46.3420 C.2    71  VAL71       0.2287
     90  O         29.4770   59.9350   45.7220 O.2    71  VAL71      -0.2864
     91  CB        30.7200   61.3180   48.4040 C.3    71  VAL71       0.0276
     92  CG1       29.3480   61.9950   48.3920 C.3    71  VAL71       0.0022
     93  CG2       30.6890   60.0440   49.2420 C.3    71  VAL71       0.0022
     94  N         28.6570   53.6710   51.1270 N.3    87  MET87      -0.1230
     95  CA        29.5240   54.5980   50.3940 C.3    87  MET87       0.1702
     96  C         30.9760   54.2790   50.5650 C.2    87  MET87       0.2592
     97  O         31.3820   53.7230   51.5750 O.2    87  MET87      -0.2718
     98  CB        29.3070   56.0080   50.8840 C.3    87  MET87       0.0401
     99  CG        27.8680   56.4120   50.7770 C.3    87  MET87       0.0596
    100  SD        27.6110   57.9770   51.5650 S.3    87  MET87      -0.1393
    101  CE        25.8230   57.9250   51.6930 C.3    87  MET87       0.0692
    102  N         31.7680   54.6600   49.5780 N.am   88  GLU88      -0.1966
    103  CA        33.1810   54.3500   49.5820 C.3    88  GLU88       0.1733
    104  C         33.8640   55.3110   50.5210 C.2    88  GLU88       0.2616
    105  O         33.6330   56.5200   50.4700 O.2    88  GLU88      -0.2715
    106  CB        33.7590   54.4410   48.1840 C.3    88  GLU88       0.0429
    107  CG        35.1890   53.9420   48.0670 C.3    88  GLU88       0.1163
    108  CD        35.5900   53.6980   46.6170 C.2    88  GLU88       0.3649
    109  OE1       35.7680   54.6820   45.8600 O.co2  88  GLU88      -0.2457
    110  OE2       35.7120   52.5110   46.2280 O.co2  88  GLU88      -0.2457
    111  N         34.6910   54.7530   51.3920 N.am   89  TYR89      -0.1960
    112  CA        35.2490   55.4730   52.5110 C.3    89  TYR89       0.1771
    113  C         36.4040   56.2950   52.0260 C.2    89  TYR89       0.2619
    114  O         37.3160   55.7480   51.4210 O.2    89  TYR89      -0.2715
    115  CB        35.7190   54.4530   53.5530 C.3    89  TYR89       0.0574
    116  CG        36.4670   54.9930   54.7360 C.ar   89  TYR89      -0.0198
    117  CD1       36.0670   56.1550   55.3760 C.ar   89  TYR89      -0.0009
    118  CD2       37.5530   54.2990   55.2600 C.ar   89  TYR89      -0.0009
    119  CE1       36.7530   56.6350   56.4720 C.ar   89  TYR89       0.0417
    120  CE2       38.2430   54.7610   56.3710 C.ar   89  TYR89       0.0417
    121  CZ        37.8420   55.9300   56.9720 C.ar   89  TYR89       0.1957
    122  OH        38.5240   56.3910   58.0810 O.3    89  TYR89      -0.2866
    123  N         36.3660   57.6020   52.2670 N.am   90  MET90      -0.1977
    124  CA        37.4970   58.4870   51.9430 C.3    90  MET90       0.1605
    125  C         38.3750   58.5700   53.1750 C.2    90  MET90       0.2287
    126  O         38.0060   59.1930   54.1800 O.2    90  MET90      -0.2864
    127  CB        37.0030   59.8580   51.5620 C.3    90  MET90       0.0413
    128  CG        36.0290   59.8210   50.4030 C.3    90  MET90       0.0598
    129  SD        36.8500   59.6140   48.8150 S.3    90  MET90      -0.1393
    130  CE        37.6190   61.2450   48.6860 C.3    90  MET90       0.0692
    131  N         39.4430   61.6430   55.7290 N.3    93  GLY93      -0.1225
    132  CA        38.4200   62.4650   56.3570 C.3    93  GLY93       0.1811
    133  C         38.1600   63.7240   55.5690 C.2    93  GLY93       0.2280
    134  O         38.4470   63.7740   54.3880 O.2    93  GLY93      -0.2866
    135  N         28.4120   69.6020   38.9770 N.3   124  LEU124     -0.1245
    136  CA        27.1210   69.7670   39.6680 C.3   124  LEU124      0.1561
    137  C         26.3040   70.8910   39.0110 C.2   124  LEU124      0.2260
    138  O         25.1390   70.7140   38.6680 O.2   124  LEU124     -0.2867
    139  CB        27.3110   70.0140   41.1780 C.3   124  LEU124      0.0270
    140  CG        27.8990   68.8780   42.0510 C.3   124  LEU124      0.0019
    141  CD1       28.0970   69.3000   43.5040 C.3   124  LEU124      0.0001
    142  CD2       27.0100   67.6600   42.0260 C.3   124  LEU124      0.0001
    143  N         22.4880   71.3100   39.5450 N.3   129  VAL129     -0.1245
    144  CA        22.4370   71.1410   40.9930 C.3   129  VAL129      0.1561
    145  C         23.1840   72.2450   41.7160 C.2   129  VAL129      0.2260
    146  O         24.3980   72.2840   41.6570 O.2   129  VAL129     -0.2867
    147  CB        23.0200   69.7860   41.4410 C.3   129  VAL129      0.0252
    148  CG1       23.0530   69.6880   42.9750 C.3   129  VAL129      0.0019
    149  CG2       22.2060   68.6440   40.8490 C.3   129  VAL129      0.0019
    150  N         24.6750   73.3740   45.1240 N.3   131  HIS131     -0.1241
    151  CA        25.1170   72.6380   46.3090 C.3   131  HIS131      0.1621
    152  C         24.5020   73.1950   47.5690 C.2   131  HIS131      0.2264
    153  O         23.9600   72.4540   48.3730 O.2   131  HIS131     -0.2867
    154  CB        26.6420   72.6450   46.4190 C.3   131  HIS131      0.0745
    155  CG        27.1870   71.7240   47.4890 C.ar  131  HIS131      0.0817
    156  ND1       26.9670   71.9310   48.8200 N.ar  131  HIS131     -0.2268
    157  CD2       27.9710   70.5800   47.3930 C.ar  131  HIS131      0.1154
    158  CE1       27.5780   70.9550   49.5290 C.ar  131  HIS131      0.1986
    159  NE2       28.1910   70.1280   48.6580 N.ar  131  HIS131     -0.2212
    160  N         35.7280   65.7390   51.1050 N.3   140  LEU140     -0.1245
    161  CA        36.3400   64.5460   51.6610 C.3   140  LEU140      0.1561
    162  C         37.6000   64.2150   50.9060 C.2   140  LEU140      0.2260
    163  O         37.7310   64.5470   49.7180 O.2   140  LEU140     -0.2867
    164  CB        35.3640   63.3860   51.5970 C.3   140  LEU140      0.0270
    165  CG        34.1290   63.6120   52.4810 C.3   140  LEU140      0.0019
    166  CD1       33.2670   62.3670   52.4610 C.3   140  LEU140      0.0001
    167  CD2       34.5080   63.9940   53.9160 C.3   140  LEU140      0.0001
    168  N         33.4500   65.8000   46.5520 N.3   149  ILE149     -0.1231
    169  CA        32.4650   66.6510   47.1990 C.3   149  ILE149      0.1692
    170  C         31.2990   65.8290   47.7740 C.2   149  ILE149      0.2592
    171  O         30.7180   64.9970   47.0680 O.2   149  ILE149     -0.2718
    172  CB        31.9150   67.6770   46.1960 C.3   149  ILE149      0.0266
    173  CG1       33.0780   68.5220   45.6320 C.3   149  ILE149      0.0019
    174  CG2       30.8330   68.5360   46.8500 C.3   149  ILE149      0.0020
    175  CD1       32.6500   69.5440   44.6030 C.3   149  ILE149      0.0001
    176  N         30.9750   66.0730   49.0430 N.am  150  ALA150     -0.1966
    177  CA        29.8000   65.4950   49.7090 C.3   150  ALA150      0.1728
    178  C         28.8000   66.5970   50.0230 C.2   150  ALA150      0.2616
    179  O         29.0710   67.7780   49.8320 O.2   150  ALA150     -0.2715
    180  CB        30.2030   64.7950   51.0090 C.3   150  ALA150      0.0334
    181  N         27.6450   66.2070   50.5260 N.am  151  ASP151     -0.1957
    182  CA        26.6610   67.1750   50.9520 C.3   151  ASP151      0.1840
    183  C         25.8910   66.6450   52.1350 C.2   151  ASP151      0.2621
    184  O         24.7080   66.3550   52.0350 O.2   151  ASP151     -0.2715
    185  CB        25.7110   67.4960   49.8070 C.3   151  ASP151      0.1450
    186  CG        25.0040   68.8230   50.0030 C.2   151  ASP151      0.3671
    187  OD1       24.8680   69.2640   51.1700 O.co2 151  ASP151     -0.2456
    188  OD2       24.5770   69.4220   48.9920 O.co2 151  ASP151     -0.2456
    189  N         26.5770   66.5470   53.2630 N.am  152  LEU152     -0.1977
    190  CA        26.0890   65.7770   54.4070 C.3   152  LEU152      0.1596
    191  C         24.6680   66.1610   54.8520 C.2   152  LEU152      0.2287
    192  O         23.8720   65.2900   55.2170 O.2   152  LEU152     -0.2864
    193  CB        27.0850   65.8770   55.5740 C.3   152  LEU152      0.0297
    194  CG        28.3150   64.9550   55.5090 C.3   152  LEU152      0.0022
    195  CD1       28.8650   64.7780   54.0990 C.3   152  LEU152      0.0001
    196  CD2       29.4190   65.4680   56.4230 C.3   152  LEU152      0.0001
    197  N         22.3530   67.9250   52.8340 N.3   154  LEU154     -0.1231
    198  CA        21.4040   68.2910   51.7660 C.3   154  LEU154      0.1693
    199  C         20.1860   67.3920   51.7210 C.2   154  LEU154      0.2591
    200  O         19.1460   67.8250   51.2460 O.2   154  LEU154     -0.2718
    201  CB        22.0630   68.3520   50.3840 C.3   154  LEU154      0.0284
    202  CG        21.2190   68.7920   49.1670 C.3   154  LEU154      0.0019
    203  CD1       20.7360   70.2450   49.2950 C.3   154  LEU154      0.0001
    204  CD2       22.0090   68.6030   47.8770 C.3   154  LEU154      0.0001
    205  N         20.3010   66.1570   52.2060 N.am  155  ALA155     -0.1980
    206  CA        19.1290   65.2900   52.3410 C.3   155  ALA155      0.1597
    207  C         18.1980   65.7960   53.4650 C.2   155  ALA155      0.2287
    208  O         16.9680   65.6300   53.3990 O.2   155  ALA155     -0.2864
    209  CB        19.5550   63.8540   52.5920 C.3   155  ALA155      0.0319
@<TRIPOS>BOND
     1   138   137    2
     2   135   136    1
     3   137   136    1
     4    79    77    1
     5   143   144    1
     6   136   139    1
     7    73    72    1
     8    73    74    1
     9    73    76    1
    10    74    75    2
    11    77    76    1
    12    77    78    1
    13   149   147    1
    14   144   147    1
    15   144   145    1
    16   139   140    1
    17   147   148    1
    18   146   145    2
    19   142   140    1
    20   140   141    1
    21    86    84    1
    22    59    58    2
    23    67    66    2
    24    80    81    1
    25    84    81    1
    26    84    85    1
    27    66    65    1
    28    58    57    1
    29    58    64   am
    30    62    61    1
    31    62    63    1
    32    57    56    1
    33    57    60    1
    34    81    82    1
    35    83    82    2
    36    65    64    1
    37    65    68    1
    38    61    60    1
    39   175   173    1
    40    82    87   am
    41   150   151    1
    42   173   172    1
    43    90    89    2
    44    68    69    1
    45   109   108   ar
    46    87    88    1
    47   172   174    1
    48   172   169    1
    49   110   108   ar
    50   151   154    1
    51   151   152    1
    52    89    88    1
    53   154   155    1
    54   168   169    1
    55   108   107    1
    56    88    91    1
    57    69    70    1
    58    50    49    2
    59   171   170    2
    60   169   170    1
    61   157   155   ar
    62   157   159   ar
    63   155   156   ar
    64   152   153    2
    65   170   176   am
    66    49    48    1
    67   204   202    1
    68   107   106    1
    69   106   103    1
    70    92    91    1
    71    91    93    1
    72    70    71    1
    73    47    48    1
    74   159   158   ar
    75   130   129    1
    76    48    51    1
    77   129   128    1
    78   156   158   ar
    79   188   186   ar
    80   176   177    1
    81   202   203    1
    82   202   201    1
    83   102   103    1
    84   102    96   am
    85   103   104    1
    86   177   178    1
    87   177   180    1
    88   163   162    2
    89   185   186    1
    90   185   182    1
    91   179   178    2
    92   186   187   ar
    93   178   181   am
    94    51    52    1
    95    52    53    1
    96   201   198    1
    97    95    96    1
    98    95    98    1
    99    95    94    1
   100   128   127    1
   101   105   104    2
   102   104   111   am
   103   181   182    1
   104    96    97    2
   105    99    98    1
   106    99   100    1
   107   162   161    1
   108   182   183    1
   109   160   161    1
   110   200   199    2
   111   111   112    1
   112   114   113    2
   113   127   124    1
   114   100   101    1
   115   164   161    1
   116   164   165    1
   117   199   198    1
   118   199   205   am
   119    53    55   ar
   120    53    54   ar
   121   198   197    1
   122   124   123    1
   123   124   125    1
   124   113   123   am
   125   113   112    1
   126   184   183    2
   127   183   189   am
   128   205   206    1
   129   206   209    1
   130   206   207    1
   131   166   165    1
   132   165   167    1
   133   112   115    1
   134   125   126    2
   135   189   190    1
   136   208   207    2
   137   115   116    1
   138    33    32    2
   139   195   194    1
   140   134   133    2
   141   190   191    1
   142   190   193    1
   143    30    31    1
   144   116   118   ar
   145   116   117   ar
   146   191   192    2
   147    34    35    1
   148    34    31    1
   149    34    36    1
   150    46    45    1
   151    32    31    1
   152    44    45    1
   153    44    43    1
   154   118   120   ar
   155    35    37    1
   156   117   119   ar
   157    42    43    1
   158    42    39    1
   159   194   193    1
   160   194   196    1
   161   133   132    1
   162    41    40    2
   163   131   132    1
   164    38    39    1
   165    39    40    1
   166   120   121   ar
   167   119   121   ar
   168   121   122    1
   169    28    27    1
   170    29    27    1
   171    20    19    2
   172    27    24    1
   173    19    18    1
   174    24    25    1
   175    24    23    1
   176     7     6    1
   177    18    21    1
   178    18    17    1
   179    25    26    2
   180    12    11    2
   181    21    22    1
   182     6     5    1
   183     6     8    1
   184    17    11   am
   185     5     2    1
   186    11    10    1
   187     4     3    2
   188     2     3    1
   189     2     1    1
   190     3     9   am
   191    10     9    1
   192    10    13    1
   193    13    14    1
   194    14    16   ar
   195    14    15   ar
