@<TRIPOS>MOLECULE
tmp/4nevB02.pdb
 93 93 0 0 0
SMALL
GASTEIGER

@<TRIPOS>ATOM
      1  N         14.8740   19.3090    5.9780 N.3    41  PRO41      -0.2102
      2  CA        15.7020   20.0780    6.9140 C.3    41  PRO41       0.1504
      3  C         16.1480   19.3710    8.2050 C.2    41  PRO41       0.2575
      4  O         17.0380   19.8800    8.8810 O.2    41  PRO41      -0.2718
      5  CB        14.8120   21.2800    7.2580 C.3    41  PRO41       0.0282
      6  CG        13.4190   20.7950    7.0400 C.3    41  PRO41       0.0208
      7  CD        13.5050   19.8490    5.8810 C.3    41  PRO41       0.0893
      8  N         15.5660   18.2240    8.5490 N.am   42  PHE42      -0.1977
      9  CA        15.8620   17.5860    9.8470 C.3    42  PHE42       0.1639
     10  C         16.6590   16.2800    9.7750 C.2    42  PHE42       0.2290
     11  O         16.9870   15.7030   10.8140 O.2    42  PHE42      -0.2864
     12  CB        14.5710   17.3540   10.6370 C.3    42  PHE42       0.0560
     13  CG        13.6800   18.5580   10.7060 C.ar   42  PHE42      -0.0200
     14  CD1       14.1930   19.8020   11.0490 C.ar   42  PHE42      -0.0042
     15  CD2       12.3230   18.4520   10.4240 C.ar   42  PHE42      -0.0042
     16  CE1       13.3690   20.9150   11.1070 C.ar   42  PHE42      -0.0003
     17  CE2       11.4980   19.5590   10.4790 C.ar   42  PHE42      -0.0003
     18  CZ        12.0200   20.7920   10.8200 C.ar   42  PHE42      -0.0000
     19  N          7.0900   17.7430   16.9610 N.3   124  TRP124     -0.1241
     20  CA         8.1620   17.7600   17.9470 C.3   124  TRP124      0.1605
     21  C          7.6170   17.4890   19.3370 C.2   124  TRP124      0.2264
     22  O          6.8780   18.2950   19.8960 O.2   124  TRP124     -0.2867
     23  CB         8.8940   19.1000   17.9100 C.3   124  TRP124      0.0550
     24  CG         9.5680   19.3480   16.5950 C.ar  124  TRP124      0.0003
     25  CD1        8.9750   19.7630   15.4390 C.ar  124  TRP124      0.0946
     26  CD2       10.9560   19.1620   16.2910 C.ar  124  TRP124      0.0152
     27  NE1        9.9090   19.8670   14.4370 N.ar  124  TRP124     -0.2442
     28  CE2       11.1340   19.5030   14.9340 C.ar  124  TRP124      0.0810
     29  CE3       12.0670   18.7430   17.0340 C.ar  124  TRP124      0.0012
     30  CZ2       12.3780   19.4370   14.3020 C.ar  124  TRP124      0.0191
     31  CZ3       13.3020   18.6810   16.4070 C.ar  124  TRP124      0.0001
     32  CH2       13.4470   19.0280   15.0540 C.ar  124  TRP124      0.0015
     33  N          7.0980   23.0010   15.7050 N.3   138  THR138     -0.1203
     34  CA         8.5540   23.1000   15.6170 C.3   138  THR138      0.1994
     35  C          9.1970   22.7400   16.9490 C.2   138  THR138      0.2618
     36  O          8.5080   22.4640   17.9310 O.2   138  THR138     -0.2717
     37  CB         9.0210   24.5120   15.2060 C.3   138  THR138      0.1784
     38  OG1        9.0090   25.3790   16.3500 O.3   138  THR138     -0.2211
     39  CG2        8.1390   25.0830   14.0970 C.3   138  THR138      0.0376
     40  N         10.5270   22.7510   16.9680 N.am  139  ALA139     -0.1965
     41  CA        11.2970   22.4460   18.1670 C.3   139  ALA139      0.1728
     42  C         11.1950   23.5580   19.2050 C.2   139  ALA139      0.2616
     43  O         11.5940   23.3780   20.3560 O.2   139  ALA139     -0.2715
     44  CB        12.7490   22.2190   17.7940 C.3   139  ALA139      0.0334
     45  N         10.6760   24.7070   18.7810 N.am  140  ASP140     -0.1971
     46  CA        10.5440   25.8850   19.6320 C.3   140  ASP140      0.1709
     47  C          9.3010   25.7630   20.5200 C.2   140  ASP140      0.2293
     48  O          8.2160   25.4860   20.0150 O.2   140  ASP140     -0.2864
     49  CB        10.4350   27.1300   18.7410 C.3   140  ASP140      0.1436
     50  CG        10.6710   28.4200   19.4970 C.2   140  ASP140      0.3671
     51  OD1       10.0360   28.6270   20.5570 O.co2 140  ASP140     -0.2456
     52  OD2       11.4730   29.2450   19.0080 O.co2 140  ASP140     -0.2456
     53  N         23.1450   14.0720   18.3240 N.3   161  TRP161     -0.1241
     54  CA        23.3040   15.0800   17.2890 C.3   161  TRP161      0.1605
     55  C         24.7920   15.3750   17.0960 C.2   161  TRP161      0.2264
     56  O         25.5600   15.3220   18.0590 O.2   161  TRP161     -0.2867
     57  CB        22.5390   16.3510   17.6820 C.3   161  TRP161      0.0550
     58  CG        22.2150   17.2300   16.5270 C.ar  161  TRP161      0.0003
     59  CD1       22.7050   18.4810   16.2880 C.ar  161  TRP161      0.0946
     60  CD2       21.3540   16.9170   15.4230 C.ar  161  TRP161      0.0152
     61  NE1       22.2020   18.9690   15.1050 N.ar  161  TRP161     -0.2442
     62  CE2       21.3680   18.0300   14.5550 C.ar  161  TRP161      0.0810
     63  CE3       20.5760   15.8060   15.0830 C.ar  161  TRP161      0.0012
     64  CZ2       20.6210   18.0700   13.3760 C.ar  161  TRP161      0.0191
     65  CZ3       19.8360   15.8450   13.9100 C.ar  161  TRP161      0.0001
     66  CH2       19.8680   16.9700   13.0700 C.ar  161  TRP161      0.0015
     67  N         20.7260   14.1390   22.3770 N.3   288  ARG288     -0.1245
     68  CA        19.7980   15.1520   21.8940 C.3   288  ARG288      0.1563
     69  C         18.7420   15.4640   22.9530 C.2   288  ARG288      0.2260
     70  O         17.6220   14.9520   22.9080 O.2   288  ARG288     -0.2867
     71  CB        19.1480   14.6810   20.5940 C.3   288  ARG288      0.0307
     72  CG        18.4700   15.7870   19.8120 C.3   288  ARG288      0.0489
     73  CD        18.2520   15.3760   18.3680 C.3   288  ARG288      0.2205
     74  NE        17.6720   16.4590   17.5820 N.pl3 288  ARG288     -0.0865
     75  CZ        17.2570   16.3320   16.3250 C.cat 288  ARG288      0.5346
     76  NH1       17.3380   15.1610   15.7030 N.pl3 288  ARG288      0.1354
     77  NH2       16.7380   17.3750   15.6890 N.pl3 288  ARG288      0.1354
     78  N         18.1590   18.7790   23.9050 N.3   290  ASN290     -0.1225
     79  CA        17.9170   20.2210   23.7840 C.3   290  ASN290      0.1785
     80  C         16.4380   20.5970   23.8490 C.2   290  ASN290      0.2597
     81  O         16.0600   21.5500   24.5300 O.2   290  ASN290     -0.2718
     82  CB        18.4840   20.7570   22.4570 C.3   290  ASN290      0.1169
     83  CG        19.8990   20.2710   22.1700 C.2   290  ASN290      0.2627
     84  OD1       20.1370   19.0720   21.9950 O.2   290  ASN290     -0.2716
     85  ND2       20.8390   21.2080   22.0760 N.am  290  ASN290     -0.0877
     86  N         15.6110   19.8470   23.1250 N.am  291  ASP291     -0.1974
     87  CA        14.2610   20.2900   22.7810 C.3   291  ASP291      0.1709
     88  C         13.1670   19.5620   23.5660 C.2   291  ASP291      0.2293
     89  O         11.9840   19.8030   23.3510 O.2   291  ASP291     -0.2864
     90  CB        14.0340   20.0870   21.2820 C.3   291  ASP291      0.1436
     91  CG        15.1690   20.6430   20.4390 C.2   291  ASP291      0.3671
     92  OD1       15.5830   21.7980   20.6710 O.co2 291  ASP291     -0.2456
     93  OD2       15.6470   19.9270   19.5380 O.co2 291  ASP291     -0.2456
@<TRIPOS>BOND
     1     7     1    1
     2     7     6    1
     3     1     2    1
     4     2     5    1
     5     2     3    1
     6     6     5    1
     7     3     8   am
     8     3     4    2
     9     8     9    1
    10    10     9    1
    11    10    11    2
    12     9    12    1
    13    15    17   ar
    14    15    13   ar
    15    17    18   ar
    16    12    13    1
    17    13    14   ar
    18    18    16   ar
    19    14    16   ar
    20    66    64   ar
    21    66    65   ar
    22    64    62   ar
    23    65    63   ar
    24    39    37    1
    25    30    28   ar
    26    30    32   ar
    27    27    28   ar
    28    27    25   ar
    29    62    61   ar
    30    62    60   ar
    31    28    26   ar
    32    32    31   ar
    33    63    60   ar
    34    61    59   ar
    35    37    34    1
    36    37    38    1
    37    60    58   ar
    38    25    24   ar
    39    34    33    1
    40    34    35    1
    41    77    75    1
    42    76    75    1
    43    59    58   ar
    44    26    24   ar
    45    26    29   ar
    46    75    74    2
    47    31    29   ar
    48    58    57    1
    49    24    23    1
    50    35    40   am
    51    35    36    2
    52    19    20    1
    53    40    41    1
    54    55    54    1
    55    55    56    2
    56    54    57    1
    57    54    53    1
    58    74    73    1
    59    44    41    1
    60    23    20    1
    61    20    21    1
    62    41    42    1
    63    73    72    1
    64    49    50    1
    65    49    46    1
    66    45    42   am
    67    45    46    1
    68    52    50   ar
    69    42    43    2
    70    21    22    2
    71    50    51   ar
    72    93    91   ar
    73    46    47    1
    74    72    71    1
    75    48    47    2
    76    91    92   ar
    77    91    90    1
    78    71    68    1
    79    90    87    1
    80    68    67    1
    81    68    69    1
    82    84    83    2
    83    85    83   am
    84    83    82    1
    85    82    79    1
    86    87    86    1
    87    87    88    1
    88    70    69    2
    89    86    80   am
    90    89    88    2
    91    79    80    1
    92    79    78    1
    93    80    81    2
