@<TRIPOS>MOLECULE
tmp/4nevB01.pdb
 99 96 0 0 0
SMALL
GASTEIGER

@<TRIPOS>ATOM
      1  N         15.6360    3.7130   15.8540 N.3    12  SER12      -0.1217
      2  CA        16.0440    2.3440   16.1420 C.3    12  SER12       0.1889
      3  C         15.4120    1.8150   17.4240 C.2    12  SER12       0.2288
      4  O         14.6880    0.8210   17.4020 O.2    12  SER12      -0.2866
      5  CB        17.5660    2.2610   16.2490 C.3    12  SER12       0.2089
      6  OG        18.1750    2.4350   14.9800 O.3    12  SER12      -0.2183
      7  N         11.1490    2.7820   17.7960 N.3    15  LEU15      -0.1231
      8  CA        10.2540    1.9650   16.9760 C.3    15  LEU15       0.1693
      9  C         10.1380    0.5440   17.5130 C.2    15  LEU15       0.2591
     10  O          9.0370    0.0060   17.6290 O.2    15  LEU15      -0.2718
     11  CB        10.7310    1.9180   15.5210 C.3    15  LEU15       0.0284
     12  CG        10.3190    3.0800   14.6200 C.3    15  LEU15       0.0019
     13  CD1       11.0020    2.9520   13.2680 C.3    15  LEU15       0.0001
     14  CD2        8.8070    3.1290   14.4550 C.3    15  LEU15       0.0001
     15  N         11.2770   -0.0650   17.8300 N.am   16  GLU16      -0.1979
     16  CA        11.2910   -1.4280   18.3580 C.3    16  GLU16       0.1602
     17  C         10.4350   -1.5240   19.6150 C.2    16  GLU16       0.2287
     18  O          9.7010   -2.4860   19.8000 O.2    16  GLU16      -0.2864
     19  CB        12.7230   -1.8740   18.6640 C.3    16  GLU16       0.0415
     20  CG        12.8310   -3.2680   19.2720 C.3    16  GLU16       0.1163
     21  CD        12.6960   -4.3910   18.2540 C.2    16  GLU16       0.3649
     22  OE1       12.4130   -4.1230   17.0670 O.co2  16  GLU16      -0.2457
     23  OE2       12.8840   -5.5580   18.6500 O.co2  16  GLU16      -0.2457
     24  N          6.6300   -1.0000   18.4730 N.3    19  TRP19      -0.1241
     25  CA         6.1690   -2.1720   17.7420 C.3    19  TRP19       0.1605
     26  C          5.9460   -3.3540   18.6850 C.2    19  TRP19       0.2264
     27  O          4.9150   -4.0190   18.6160 O.2    19  TRP19      -0.2867
     28  CB         7.1690   -2.5420   16.6450 C.3    19  TRP19       0.0550
     29  CG         6.9460   -3.8970   16.0530 C.ar   19  TRP19       0.0003
     30  CD1        7.5900   -5.0520   16.3900 C.ar   19  TRP19       0.0946
     31  CD2        6.0290   -4.2380   15.0100 C.ar   19  TRP19       0.0152
     32  NE1        7.1260   -6.0930   15.6270 N.ar   19  TRP19      -0.2442
     33  CE2        6.1680   -5.6220   14.7690 C.ar   19  TRP19       0.0810
     34  CE3        5.1040   -3.5100   14.2540 C.ar   19  TRP19       0.0012
     35  CZ2        5.4130   -6.2930   13.8070 C.ar   19  TRP19       0.0191
     36  CZ3        4.3520   -4.1790   13.2980 C.ar   19  TRP19       0.0001
     37  CH2        4.5110   -5.5560   13.0850 C.ar   19  TRP19       0.0015
     38  N          8.1240    1.8730    3.9300 N.3   107  SER107     -0.1202
     39  CA         7.7640    0.6000    4.5340 C.3   107  SER107      0.2020
     40  C          7.3090    0.7870    5.9780 C.2   107  SER107      0.2619
     41  O          6.3970    0.1040    6.4360 O.2   107  SER107     -0.2717
     42  CB         8.9530   -0.3580    4.4760 C.3   107  SER107      0.2103
     43  OG         8.7840   -1.4350    5.3730 O.3   107  SER107     -0.2182
     44  N          7.9500    1.7110    6.6890 N.am  108  TYR108     -0.1961
     45  CA         7.6050    1.9880    8.0840 C.3   108  TYR108      0.1771
     46  C          6.2490    2.6680    8.2100 C.2   108  TYR108      0.2619
     47  O          5.4840    2.3780    9.1260 O.2   108  TYR108     -0.2715
     48  CB         8.6840    2.8440    8.7550 C.3   108  TYR108      0.0574
     49  CG         9.9210    2.0770    9.1600 C.ar  108  TYR108     -0.0198
     50  CD1        9.8470    0.7420    9.5440 C.ar  108  TYR108     -0.0009
     51  CD2       11.1610    2.6980    9.1980 C.ar  108  TYR108     -0.0009
     52  CE1       10.9760    0.0440    9.9290 C.ar  108  TYR108      0.0417
     53  CE2       12.2960    2.0090    9.5880 C.ar  108  TYR108      0.0417
     54  CZ        12.1990    0.6800    9.9500 C.ar  108  TYR108      0.1957
     55  OH        13.3190   -0.0190   10.3380 O.3   108  TYR108     -0.2866
     56  N          5.9620    3.5910    7.3030 N.am  109  GLU109     -0.1963
     57  CA         4.5900    4.0140    7.0840 C.3   109  GLU109      0.1733
     58  C          3.9320    2.8340    6.3940 C.2   109  GLU109      0.2617
     59  O          4.5590    2.1610    5.5840 O.2   109  GLU109     -0.2715
     60  CB         4.5430    5.2620    6.1990 C.3   109  GLU109      0.0429
     61  CG         3.3860    6.1990    6.5010 C.3   109  GLU109      0.1163
     62  CD         3.2740    7.3240    5.4910 C.2   109  GLU109      0.3649
     63  OE1        3.2410    7.0300    4.2730 O.co2 109  GLU109     -0.2457
     64  OE2        3.2180    8.5010    5.9130 O.co2 109  GLU109     -0.2457
     65  N          2.6920    2.5360    6.7430 N.am  110  GLY110     -0.1940
     66  CA         2.0890    1.2840    6.2990 C.3   110  GLY110      0.2014
     67  C          2.2140    0.2170    7.3670 C.2   110  GLY110      0.2638
     68  O          1.3130   -0.6000    7.5320 O.2   110  GLY110     -0.2714
     69  N          3.3380    0.2090    8.0830 N.am  111  MET111     -0.1976
     70  CA         3.4350   -0.5450    9.3300 C.3   111  MET111      0.1605
     71  C          2.5010    0.0950   10.3440 C.2   111  MET111      0.2287
     72  O          1.6950   -0.5860   10.9750 O.2   111  MET111     -0.2864
     73  CB         4.8700   -0.5560    9.8740 C.3   111  MET111      0.0413
     74  CG         5.0000   -1.1430   11.2770 C.3   111  MET111      0.0598
     75  SD         6.6590   -1.0380   11.9850 S.3   111  MET111     -0.1393
     76  CE         6.8240    0.7260   12.2390 C.3   111  MET111      0.0692
     77  N         -1.2630   -0.1890    9.1460 N.3   114  ASP114     -0.1225
     78  CA        -1.8870   -1.5150    9.1950 C.3   114  ASP114      0.1805
     79  C         -1.8940   -2.1610   10.5810 C.2   114  ASP114      0.2598
     80  O         -2.5420   -3.1870   10.7710 O.2   114  ASP114     -0.2718
     81  CB        -1.2020   -2.4600    8.2040 C.3   114  ASP114      0.1424
     82  CG        -1.3310   -1.9950    6.7620 C.2   114  ASP114      0.3668
     83  OD1       -1.9920   -0.9640    6.5120 O.co2 114  ASP114     -0.2456
     84  OD2       -0.7640   -2.6630    5.8740 O.co2 114  ASP114     -0.2456
     85  N         -1.1780   -1.5810   11.5410 N.am  115  THR115     -0.1953
     86  CA        -1.0930   -2.1550   12.8860 C.3   115  THR115      0.1897
     87  C         -1.9110   -1.3190   13.8620 C.2   115  THR115      0.2313
     88  O         -1.5930   -0.1550   14.1060 O.2   115  THR115     -0.2863
     89  CB         0.3660   -2.2250   13.3880 C.3   115  THR115      0.1794
     90  OG1        1.2170   -2.7190   12.3460 O.3   115  THR115     -0.2208
     91  CG2        0.4800   -3.1420   14.5990 C.3   115  THR115      0.0378
     92  N         18.0400   -0.9610   20.0700 N.3   337  ILE337     -0.1245
     93  CA        16.9780   -1.9180   19.7790 C.3   337  ILE337      0.1561
     94  C         16.8050   -2.8970   20.9370 C.2   337  ILE337      0.2260
     95  O         15.6850   -3.1550   21.3770 O.2   337  ILE337     -0.2867
     96  CB        17.2550   -2.6900   18.4700 C.3   337  ILE337      0.0252
     97  CG1       17.0190   -1.7780   17.2600 C.3   337  ILE337      0.0019
     98  CG2       16.3640   -3.9210   18.3620 C.3   337  ILE337      0.0019
     99  CD1       17.5220   -2.3430   15.9470 C.3   337  ILE337      0.0001
@<TRIPOS>BOND
     1    38    39    1
     2    63    62   ar
     3    42    39    1
     4    42    43    1
     5    39    40    1
     6    62    64   ar
     7    62    61    1
     8    59    58    2
     9    84    82   ar
    10    40    41    2
    11    40    44   am
    12    60    61    1
    13    60    57    1
    14    66    65    1
    15    66    67    1
    16    58    65   am
    17    58    57    1
    18    83    82   ar
    19    44    45    1
    20    82    81    1
    21    57    56    1
    22    56    46   am
    23    67    68    2
    24    67    69   am
    25    69    70    1
    26    45    46    1
    27    45    48    1
    28    81    78    1
    29    46    47    2
    30    48    49    1
    31    77    78    1
    32    49    51   ar
    33    49    50   ar
    34    78    79    1
    35    51    53   ar
    36    70    73    1
    37    70    71    1
    38    50    52   ar
    39    53    54   ar
    40    73    74    1
    41    52    54   ar
    42    54    55    1
    43    71    72    2
    44    79    80    2
    45    79    85   am
    46    74    75    1
    47    85    86    1
    48    75    76    1
    49    90    89    1
    50    86    89    1
    51    86    87    1
    52    37    36   ar
    53    37    35   ar
    54    13    12    1
    55    36    34   ar
    56    89    91    1
    57    35    33   ar
    58    87    88    2
    59    34    31   ar
    60    14    12    1
    61    12    11    1
    62    33    31   ar
    63    33    32   ar
    64     6     5    1
    65    31    29   ar
    66    11     8    1
    67    32    30   ar
    68     1     2    1
    69    99    97    1
    70    29    30   ar
    71    29    28    1
    72     2     5    1
    73     2     3    1
    74    28    25    1
    75     8     9    1
    76     8     7    1
    77    22    21   ar
    78    97    96    1
    79     4     3    2
    80     9    10    2
    81     9    15   am
    82    25    24    1
    83    25    26    1
    84    15    16    1
    85    21    23   ar
    86    21    20    1
    87    16    19    1
    88    16    17    1
    89    98    96    1
    90    96    93    1
    91    27    26    2
    92    19    20    1
    93    17    18    2
    94    93    92    1
    95    93    94    1
    96    94    95    2
