@<TRIPOS>MOLECULE
tmp/4nexA00.pdb
 161 161 0 0 0
SMALL
GASTEIGER

@<TRIPOS>ATOM
      1  N        -12.6560   12.1550  -22.6840 N.3    34  PHE34      -0.1241
      2  CA       -11.2430   12.5340  -22.5750 C.3    34  PHE34       0.1605
      3  C        -10.9970   14.0120  -22.2870 C.2    34  PHE34       0.2264
      4  O         -9.8810   14.3860  -21.8990 O.2    34  PHE34      -0.2867
      5  CB       -10.4800   12.1470  -23.8600 C.3    34  PHE34       0.0534
      6  CG       -10.2660   10.6650  -24.0280 C.ar   34  PHE34      -0.0203
      7  CD1       -9.2300   10.0180  -23.3650 C.ar   34  PHE34      -0.0042
      8  CD2      -11.0920    9.9200  -24.8570 C.ar   34  PHE34      -0.0042
      9  CE1       -9.0290    8.6460  -23.5180 C.ar   34  PHE34      -0.0003
     10  CE2      -10.8960    8.5450  -25.0210 C.ar   34  PHE34      -0.0003
     11  CZ        -9.8640    7.9110  -24.3450 C.ar   34  PHE34      -0.0000
     12  N        -10.7150   16.1270  -24.4820 N.3    36  ARG36      -0.1245
     13  CA        -9.8030   16.5130  -25.5520 C.3    36  ARG36       0.1563
     14  C        -10.5120   16.4680  -26.8950 C.2    36  ARG36       0.2260
     15  O        -11.6500   16.0060  -26.9940 O.2    36  ARG36      -0.2867
     16  CB        -8.5750   15.6130  -25.5630 C.3    36  ARG36       0.0307
     17  CG        -7.7970   15.6510  -24.2530 C.3    36  ARG36       0.0489
     18  CD        -6.4120   15.0780  -24.4220 C.3    36  ARG36       0.2205
     19  NE        -5.5300   16.0480  -25.0610 N.pl3  36  ARG36      -0.0865
     20  CZ        -4.2680   15.8080  -25.4010 C.cat  36  ARG36       0.5346
     21  NH1       -3.7380   14.6220  -25.1640 N.pl3  36  ARG36       0.1354
     22  NH2       -3.5430   16.7620  -25.9720 N.pl3  36  ARG36       0.1354
     23  N         -5.3100   -3.3530  -32.3400 N.3    71  TYR71      -0.1227
     24  CA        -4.8480   -2.2060  -31.5850 C.3    71  TYR71       0.1736
     25  C         -6.0410   -1.5310  -30.9260 C.2    71  TYR71       0.2595
     26  O         -7.0220   -1.1870  -31.5970 O.2    71  TYR71      -0.2718
     27  CB        -4.1670   -1.2480  -32.5460 C.3    71  TYR71       0.0548
     28  CG        -3.7440    0.0670  -31.9170 C.ar   71  TYR71      -0.0200
     29  CD1       -2.7920    0.1080  -30.9180 C.ar   71  TYR71      -0.0009
     30  CD2       -4.2560    1.2660  -32.3870 C.ar   71  TYR71      -0.0009
     31  CE1       -2.3810    1.3260  -30.3650 C.ar   71  TYR71       0.0417
     32  CE2       -3.8510    2.4800  -31.8520 C.ar   71  TYR71       0.0417
     33  CZ        -2.9160    2.5000  -30.8430 C.ar   71  TYR71       0.1957
     34  OH        -2.4990    3.7080  -30.3210 O.3    71  TYR71      -0.2866
     35  N         -5.9850   -1.3630  -29.6100 N.am   72  LEU72      -0.1966
     36  CA        -7.0540   -0.6580  -28.9050 C.3    72  LEU72       0.1728
     37  C         -6.7790    0.8340  -29.0240 C.2    72  LEU72       0.2616
     38  O         -5.8740    1.3590  -28.3800 O.2    72  LEU72      -0.2715
     39  CB        -7.1390   -1.0670  -27.4290 C.3    72  LEU72       0.0311
     40  CG        -8.5020   -0.7300  -26.8110 C.3    72  LEU72       0.0022
     41  CD1       -8.9500   -1.8220  -25.8710 C.3    72  LEU72       0.0001
     42  CD2       -8.4460    0.5690  -26.0720 C.3    72  LEU72       0.0001
     43  N         -7.5470    1.5000  -29.8800 N.am   73  ASP73      -0.1957
     44  CA        -7.3050    2.8980  -30.1920 C.3    73  ASP73       0.1840
     45  C         -7.9710    3.8290  -29.1890 C.2    73  ASP73       0.2622
     46  O         -7.4470    4.9020  -28.9190 O.2    73  ASP73      -0.2715
     47  CB        -7.8080    3.2070  -31.5930 C.3    73  ASP73       0.1450
     48  CG        -7.3980    4.5750  -32.0620 C.2    73  ASP73       0.3671
     49  OD1       -6.2430    4.7320  -32.5020 O.co2  73  ASP73      -0.2456
     50  OD2       -8.2260    5.5040  -31.9940 O.co2  73  ASP73      -0.2456
     51  N         -9.1350    3.4440  -28.6680 N.am   74  LYS74      -0.1963
     52  CA        -9.8480    4.2900  -27.7030 C.3    74  LYS74       0.1728
     53  C        -10.6010    3.4430  -26.6950 C.2    74  LYS74       0.2616
     54  O        -11.2830    2.4870  -27.0740 O.2    74  LYS74      -0.2715
     55  CB       -10.8690    5.2170  -28.3950 C.3    74  LYS74       0.0311
     56  CG       -10.3050    6.1800  -29.4520 C.3    74  LYS74       0.0038
     57  CD        -9.6390    7.4030  -28.8190 C.3    74  LYS74       0.0206
     58  CE        -8.9370    8.2470  -29.8840 C.3    74  LYS74       0.1093
     59  NZ        -7.7060    7.5700  -30.4320 N.3    74  LYS74      -0.1314
     60  N        -10.4640    3.7980  -25.4180 N.am   75  PHE75      -0.1974
     61  CA       -11.3300    3.2680  -24.3740 C.3    75  PHE75       0.1639
     62  C        -11.9440    4.4820  -23.7170 C.2    75  PHE75       0.2290
     63  O        -11.2730    5.1780  -22.9550 O.2    75  PHE75      -0.2864
     64  CB       -10.5050    2.4920  -23.3480 C.3    75  PHE75       0.0560
     65  CG       -11.3140    1.8920  -22.2340 C.ar   75  PHE75      -0.0200
     66  CD1      -12.6170    1.4340  -22.4340 C.ar   75  PHE75      -0.0042
     67  CD2      -10.7540    1.7580  -20.9720 C.ar   75  PHE75      -0.0042
     68  CE1      -13.3410    0.8610  -21.3860 C.ar   75  PHE75      -0.0003
     69  CE2      -11.4710    1.1840  -19.9380 C.ar   75  PHE75      -0.0003
     70  CZ       -12.7600    0.7320  -20.1480 C.ar   75  PHE75      -0.0000
     71  N         -2.0020   -1.5990  -26.8250 N.3   103  TRP103     -0.1227
     72  CA        -2.4840   -0.2270  -26.7530 C.3   103  TRP103      0.1737
     73  C         -1.4660    0.6790  -26.0760 C.2   103  TRP103      0.2595
     74  O         -0.4450    0.2110  -25.5810 O.2   103  TRP103     -0.2718
     75  CB        -3.8460   -0.1680  -26.0460 C.3   103  TRP103      0.0564
     76  CG        -3.8830   -0.4380  -24.5450 C.ar  103  TRP103      0.0003
     77  CD1       -3.9310    0.4920  -23.5490 C.ar  103  TRP103      0.0946
     78  CD2       -3.9840   -1.7200  -23.9010 C.ar  103  TRP103      0.0152
     79  NE1       -4.0170   -0.1290  -22.3220 N.ar  103  TRP103     -0.2442
     80  CE2       -4.0520   -1.4870  -22.5120 C.ar  103  TRP103      0.0810
     81  CE3       -3.9960   -3.0370  -24.3720 C.ar  103  TRP103      0.0012
     82  CZ2       -4.1300   -2.5270  -21.5780 C.ar  103  TRP103      0.0191
     83  CZ3       -4.0730   -4.0740  -23.4450 C.ar  103  TRP103      0.0001
     84  CH2       -4.1450   -3.8120  -22.0660 C.ar  103  TRP103      0.0015
     85  N         -1.7270    1.9820  -26.0690 N.am  104  ARG104     -0.1966
     86  CA        -0.8170    2.9130  -25.4100 C.3   104  ARG104      0.1729
     87  C         -1.6250    3.8510  -24.5140 C.2   104  ARG104      0.2617
     88  O         -2.8420    4.0000  -24.6830 O.2   104  ARG104     -0.2715
     89  CB         0.0300    3.6990  -26.4180 C.3   104  ARG104      0.0348
     90  CG        -0.7840    4.6240  -27.3130 C.3   104  ARG104      0.0492
     91  CD         0.0670    5.3320  -28.3100 C.3   104  ARG104      0.2205
     92  NE        -0.7420    6.3110  -29.0540 N.pl3 104  ARG104     -0.0865
     93  CZ        -0.3630    6.8910  -30.1850 C.cat 104  ARG104      0.5346
     94  NH1        0.8240    6.6290  -30.7110 N.pl3 104  ARG104      0.1354
     95  NH2       -1.1770    7.7500  -30.7810 N.pl3 104  ARG104      0.1354
     96  N         -0.9420    4.4540  -23.5460 N.am  105  SER105     -0.1936
     97  CA        -1.5880    5.3490  -22.6000 C.3   105  SER105      0.2055
     98  C         -0.5990    6.3940  -22.1430 C.2   105  SER105      0.2642
     99  O          0.5770    6.0990  -21.9150 O.2   105  SER105     -0.2714
    100  CB        -2.0890    4.5520  -21.3820 C.3   105  SER105      0.2130
    101  OG        -2.9540    5.3420  -20.5980 O.3   105  SER105     -0.2179
    102  N         -1.0520    7.6360  -22.0080 N.am  106  ARG106     -0.1977
    103  CA        -0.1840    8.6480  -21.4430 C.3   106  ARG106      0.1597
    104  C          0.0570    8.3390  -19.9630 C.2   106  ARG106      0.2287
    105  O         -0.7100    7.6050  -19.3510 O.2   106  ARG106     -0.2864
    106  CB        -0.7870   10.0440  -21.6420 C.3   106  ARG106      0.0334
    107  CG        -0.7560   10.5210  -23.1120 C.3   106  ARG106      0.0492
    108  CD        -1.7480   11.6670  -23.3650 C.3   106  ARG106      0.2205
    109  NE        -1.7500   12.1480  -24.7580 N.pl3 106  ARG106     -0.0865
    110  CZ        -2.3680   11.5360  -25.7720 C.cat 106  ARG106      0.5346
    111  NH1       -3.0240   10.4030  -25.5690 N.pl3 106  ARG106      0.1354
    112  NH2       -2.3220   12.0460  -26.9990 N.pl3 106  ARG106      0.1354
    113  N         -2.9080    9.1590  -17.5310 N.3   109  ASN109     -0.1240
    114  CA        -4.2460    8.6780  -17.8730 C.3   109  ASN109      0.1653
    115  C         -4.9170    8.0630  -16.6410 C.2   109  ASN109      0.2266
    116  O         -4.3350    7.2080  -15.9690 O.2   109  ASN109     -0.2867
    117  CB        -4.1270    7.6520  -18.9900 C.3   109  ASN109      0.1155
    118  CG        -5.4700    7.2010  -19.5600 C.2   109  ASN109      0.2627
    119  OD1       -6.5250    7.3450  -18.9390 O.2   109  ASN109     -0.2716
    120  ND2       -5.4210    6.6150  -20.7580 N.am  109  ASN109     -0.0877
    121  N         -5.3910   -0.4520  -16.4820 N.3   115  TYR115     -0.1241
    122  CA        -4.5520   -1.0660  -17.5040 C.3   115  TYR115      0.1605
    123  C         -3.4640   -1.9670  -16.8970 C.2   115  TYR115      0.2264
    124  O         -3.1550   -3.0260  -17.4450 O.2   115  TYR115     -0.2867
    125  CB        -3.9110   -0.0080  -18.3940 C.3   115  TYR115      0.0534
    126  CG        -4.8800    0.7500  -19.2680 C.ar  115  TYR115     -0.0201
    127  CD1       -6.0880    0.1780  -19.6730 C.ar  115  TYR115     -0.0009
    128  CD2       -4.5870    2.0420  -19.6750 C.ar  115  TYR115     -0.0009
    129  CE1       -6.9710    0.8860  -20.5030 C.ar  115  TYR115      0.0417
    130  CE2       -5.4530    2.7540  -20.4980 C.ar  115  TYR115      0.0417
    131  CZ        -6.6420    2.1660  -20.8940 C.ar  115  TYR115      0.1957
    132  OH        -7.4910    2.8940  -21.6920 O.3   115  TYR115     -0.2866
    133  N          4.7560    7.6410  -23.0200 N.3   128  TRP128     -0.1241
    134  CA         3.7170    6.6430  -23.1990 C.3   128  TRP128      0.1605
    135  C          3.9900    5.3940  -22.4010 C.2   128  TRP128      0.2264
    136  O          5.1500    5.0130  -22.2140 O.2   128  TRP128     -0.2867
    137  CB         3.6370    6.1910  -24.6510 C.3   128  TRP128      0.0550
    138  CG         3.2600    7.2640  -25.5930 C.ar  128  TRP128      0.0003
    139  CD1        4.0950    7.9830  -26.3810 C.ar  128  TRP128      0.0946
    140  CD2        1.9370    7.7500  -25.8420 C.ar  128  TRP128      0.0152
    141  NE1        3.3740    8.8890  -27.1220 N.ar  128  TRP128     -0.2442
    142  CE2        2.0430    8.7600  -26.8140 C.ar  128  TRP128      0.0810
    143  CE3        0.6730    7.4230  -25.3380 C.ar  128  TRP128      0.0012
    144  CZ2        0.9310    9.4590  -27.2910 C.ar  128  TRP128      0.0191
    145  CZ3       -0.4280    8.0940  -25.8170 C.ar  128  TRP128      0.0001
    146  CH2       -0.2920    9.1150  -26.7810 C.ar  128  TRP128      0.0015
    147  N         -4.1630   10.9200  -31.8450 N.3   154  THR154     -0.1203
    148  CA        -5.4510   11.2900  -32.4320 C.3   154  THR154      0.1994
    149  C         -6.3310   12.0420  -31.4310 C.2   154  THR154      0.2617
    150  O         -7.4300   12.4830  -31.7640 O.2   154  THR154     -0.2717
    151  CB        -6.1620   10.0820  -33.0500 C.3   154  THR154      0.1784
    152  OG1       -6.2240    9.0410  -32.0860 O.3   154  THR154     -0.2211
    153  CG2       -5.3780    9.5720  -34.2590 C.3   154  THR154      0.0376
    154  N         -5.8220   12.2120  -30.2150 N.am  155  LEU155     -0.1979
    155  CA        -6.4340   13.1200  -29.2510 C.3   155  LEU155      0.1596
    156  C         -5.4850   14.2910  -29.0770 C.2   155  LEU155      0.2287
    157  O         -4.2980   14.0870  -28.7910 O.2   155  LEU155     -0.2864
    158  CB        -6.6500   12.4090  -27.9180 C.3   155  LEU155      0.0297
    159  CG        -7.7870   11.3930  -27.9160 C.3   155  LEU155      0.0022
    160  CD1       -7.7790   10.5750  -26.6370 C.3   155  LEU155      0.0001
    161  CD2       -9.1130   12.1280  -28.0600 C.3   155  LEU155      0.0001
@<TRIPOS>BOND
     1   153   151    1
     2   151   148    1
     3   151   152    1
     4    27    28    1
     5    27    24    1
     6    49    48   ar
     7   148   147    1
     8   148   149    1
     9    30    28   ar
    10    30    32   ar
    11    23    24    1
    12    48    50   ar
    13    48    47    1
    14    28    29   ar
    15    32    33   ar
    16   150   149    2
    17    26    25    2
    18    47    44    1
    19    24    25    1
    20   149   154   am
    21    25    35   am
    22    29    31   ar
    23    33    31   ar
    24    33    34    1
    25    95    93    1
    26    94    93    1
    27    59    58    1
    28   154   155    1
    29    44    43    1
    30    44    45    1
    31    93    92    2
    32    58    57    1
    33    43    37   am
    34    35    36    1
    35    56    57    1
    36    56    55    1
    37   155   156    1
    38   155   158    1
    39    45    46    2
    40    45    51   am
    41   156   157    2
    42    92    91    1
    43    37    36    1
    44    37    38    2
    45    36    39    1
    46    51    52    1
    47    55    52    1
    48    91    90    1
    49   161   159    1
    50   158   159    1
    51   159   160    1
    52    52    53    1
    53    39    40    1
    54    90    89    1
    55   144   142   ar
    56   144   146   ar
    57   141   142   ar
    58   141   139   ar
    59    54    53    2
    60   112   110    1
    61    15    14    2
    62    14    13    1
    63    71    72    1
    64   142   140   ar
    65    40    42    1
    66    40    41    1
    67   146   145   ar
    68    72    73    1
    69    72    75    1
    70    53    60   am
    71    89    86    1
    72   139   138   ar
    73    73    85   am
    74    73    74    2
    75    85    86    1
    76    75    76    1
    77    22    20    1
    78   140   138   ar
    79   140   143   ar
    80   145   143   ar
    81   110   111    1
    82   110   109    2
    83   138   137    1
    84    16    13    1
    85    16    17    1
    86    13    12    1
    87    60    61    1
    88    86    87    1
    89    20    21    1
    90    20    19    2
    91    19    18    1
    92    10     8   ar
    93    10    11   ar
    94     8     6   ar
    95   109   108    1
    96    88    87    2
    97   137   134    1
    98    76    78   ar
    99    76    77   ar
   100    87    96   am
   101    18    17    1
   102    61    62    1
   103    61    64    1
   104    81    78   ar
   105    81    83   ar
   106    11     9   ar
   107     6     5    1
   108     6     7   ar
   109    78    80   ar
   110     5     2    1
   111    62    63    2
   112    77    79   ar
   113    96    97    1
   114     9     7   ar
   115    83    84   ar
   116   108   107    1
   117    64    65    1
   118   134   133    1
   119   134   135    1
   120   107   106    1
   121     1     2    1
   122    97    98    1
   123    97   100    1
   124     2     3    1
   125    80    79   ar
   126    80    82   ar
   127    66    65   ar
   128    66    68   ar
   129   135   136    2
   130     3     4    2
   131    65    67   ar
   132    98   102   am
   133    98    99    2
   134    84    82   ar
   135   102   103    1
   136   132   131    1
   137   106   103    1
   138   103   104    1
   139    68    70   ar
   140   100   101    1
   141    67    69   ar
   142   131   129   ar
   143   131   130   ar
   144   120   118   am
   145   129   127   ar
   146   130   128   ar
   147    70    69   ar
   148   104   105    2
   149   128   126   ar
   150   127   126   ar
   151   118   117    1
   152   118   119    2
   153   126   125    1
   154   117   114    1
   155   125   122    1
   156   114   113    1
   157   114   115    1
   158   122   123    1
   159   122   121    1
   160   124   123    2
   161   115   116    2
