@<TRIPOS>MOLECULE
tmp/4nf0C00.pdb
 106 97 0 0 0
SMALL
GASTEIGER

@<TRIPOS>ATOM
      1  N        -29.0620   -4.2370  -22.2870 N.3     9  VAL9       -0.1231
      2  CA       -28.9400   -3.0360  -21.4710 C.3     9  VAL9        0.1692
      3  C        -27.5170   -2.4930  -21.3340 C.2     9  VAL9        0.2591
      4  O        -27.3090   -1.4770  -20.6740 O.2     9  VAL9       -0.2718
      5  CB       -29.4900   -3.2870  -20.0420 C.3     9  VAL9        0.0266
      6  CG1      -30.9530   -3.7520  -20.0930 C.3     9  VAL9        0.0020
      7  CG2      -28.6180   -4.3040  -19.2870 C.3     9  VAL9        0.0020
      8  N        -26.5360   -3.1530  -21.9460 N.am   10  VAL10      -0.1980
      9  CA       -25.1490   -2.6910  -21.8360 C.3    10  VAL10       0.1595
     10  C        -24.6390   -2.1580  -23.1740 C.2    10  VAL10       0.2287
     11  O        -25.3980   -2.0820  -24.1340 O.2    10  VAL10      -0.2864
     12  CB       -24.2270   -3.8030  -21.3270 C.3    10  VAL10       0.0276
     13  CG1      -24.6420   -4.2310  -19.9270 C.3    10  VAL10       0.0022
     14  CG2      -24.2320   -4.9850  -22.2700 C.3    10  VAL10       0.0022
     15  N        -21.5560   -9.3230  -24.0780 N.3    16  LYS16      -0.1245
     16  CA       -22.9110   -9.4420  -24.6280 C.3    16  LYS16       0.1561
     17  C        -23.0940   -8.6220  -25.9020 C.2    16  LYS16       0.2260
     18  O        -23.6790   -9.1000  -26.8780 O.2    16  LYS16      -0.2867
     19  CB       -23.9520   -9.0090  -23.5900 C.3    16  LYS16       0.0271
     20  CG       -25.3770   -8.9410  -24.1390 C.3    16  LYS16       0.0035
     21  CD       -26.4110   -9.1370  -23.0320 C.3    16  LYS16       0.0206
     22  CE       -26.1600   -8.2500  -21.8250 C.3    16  LYS16       0.1093
     23  NZ       -27.2570   -8.4210  -20.8070 N.3    16  LYS16      -0.1314
     24  N        -29.3430  -11.5560  -17.5300 N.3    66  SER66      -0.1217
     25  CA       -28.6610  -12.2050  -16.3990 C.3    66  SER66       0.1889
     26  C        -29.5090  -13.3090  -15.7650 C.2    66  SER66       0.2288
     27  O        -30.7010  -13.1310  -15.5440 O.2    66  SER66      -0.2866
     28  CB       -28.3050  -11.1960  -15.3210 C.3    66  SER66       0.2089
     29  OG       -27.7370  -11.8680  -14.1990 O.3    66  SER66      -0.2183
     30  N        -31.8820  -12.6400  -12.7840 N.3    69  LYS69      -0.1245
     31  CA       -33.1040  -11.8370  -12.9410 C.3    69  LYS69       0.1561
     32  C        -34.3620  -12.6330  -13.3220 C.2    69  LYS69       0.2260
     33  O        -35.3970  -12.0480  -13.6800 O.2    69  LYS69      -0.2867
     34  CB       -32.8610  -10.7480  -13.9870 C.3    69  LYS69       0.0271
     35  CG       -31.7800   -9.7500  -13.5740 C.3    69  LYS69       0.0035
     36  CD       -31.3740   -8.7870  -14.7030 C.3    69  LYS69       0.0206
     37  CE       -30.2500   -7.8300  -14.1950 C.3    69  LYS69       0.1093
     38  NZ       -29.7650   -6.9070  -15.2470 N.3    69  LYS69      -0.1314
     39  N        -25.5180   -2.3510   -4.0700 N.3   144  ARG144     -0.1245
     40  CA       -26.4450   -2.5600   -5.1700 C.3   144  ARG144      0.1563
     41  C        -26.2960   -3.9850   -5.6580 C.2   144  ARG144      0.2260
     42  O        -25.1890   -4.4400   -5.8940 O.2   144  ARG144     -0.2867
     43  CB       -26.1960   -1.5910   -6.3280 C.3   144  ARG144      0.0307
     44  CG       -27.1500   -1.8250   -7.5090 C.3   144  ARG144      0.0489
     45  CD       -26.5430   -2.7440   -8.5660 C.3   144  ARG144      0.2205
     46  NE       -27.5720   -3.3040   -9.4370 N.pl3 144  ARG144     -0.0865
     47  CZ       -27.3130   -3.8730  -10.6100 C.cat 144  ARG144      0.5346
     48  NH1      -26.0600   -3.9340  -11.0500 N.pl3 144  ARG144      0.1354
     49  NH2      -28.3080   -4.3670  -11.3430 N.pl3 144  ARG144      0.1354
     50  N        -28.3910   -7.0500   -8.4120 N.3   146  GLN146     -0.1245
     51  CA       -29.4660   -7.4120   -9.3220 C.3   146  GLN146      0.1566
     52  C        -30.6250   -7.9210   -8.4680 C.2   146  GLN146      0.2260
     53  O        -30.4160   -8.3280   -7.3250 O.2   146  GLN146     -0.2867
     54  CB       -28.9820   -8.4670  -10.3170 C.3   146  GLN146      0.0367
     55  CG       -27.7410   -8.0070  -11.1040 C.3   146  GLN146      0.0905
     56  CD       -27.0660   -9.1700  -11.7860 C.2   146  GLN146      0.2608
     57  OE1      -27.3110   -9.4430  -12.9570 O.2   146  GLN146     -0.2717
     58  NE2      -26.2040   -9.8620  -11.0500 N.am  146  GLN146     -0.0878
     59  N        -29.5260   -2.2900  -13.7300 N.3   167  TYR167     -0.1241
     60  CA       -28.1960   -1.9180  -14.1640 C.3   167  TYR167      0.1605
     61  C        -28.0560   -0.4060  -14.3050 C.2   167  TYR167      0.2264
     62  O        -27.0960    0.1900  -13.8140 O.2   167  TYR167     -0.2867
     63  CB       -27.8580   -2.6070  -15.4930 C.3   167  TYR167      0.0534
     64  CG       -26.5800   -2.0870  -16.1130 C.ar  167  TYR167     -0.0201
     65  CD1      -25.3370   -2.5700  -15.7060 C.ar  167  TYR167     -0.0009
     66  CD2      -26.6190   -1.1020  -17.0880 C.ar  167  TYR167     -0.0009
     67  CE1      -24.1690   -2.0880  -16.2630 C.ar  167  TYR167      0.0417
     68  CE2      -25.4680   -0.6080  -17.6410 C.ar  167  TYR167      0.0417
     69  CZ       -24.2500   -1.0940  -17.2330 C.ar  167  TYR167      0.1957
     70  OH       -23.1080   -0.5870  -17.8030 O.3   167  TYR167     -0.2866
     71  N        -19.9460   -6.6820   -9.4270 N.3   184  ASN184     -0.1240
     72  CA       -20.0680   -6.8790  -10.8590 C.3   184  ASN184      0.1653
     73  C        -18.7540   -7.3010  -11.4820 C.2   184  ASN184      0.2266
     74  O        -17.6980   -7.2920  -10.8210 O.2   184  ASN184     -0.2867
     75  CB       -20.6040   -5.6130  -11.5420 C.3   184  ASN184      0.1155
     76  CG       -21.7620   -5.9220  -12.5070 C.2   184  ASN184      0.2627
     77  OD1      -21.6950   -6.8820  -13.2710 O.2   184  ASN184     -0.2716
     78  ND2      -22.8370   -5.1360  -12.4380 N.am  184  ASN184     -0.0877
     79  N        -18.6210   -4.5080  -16.4120 N.3   188  ASN188     -0.1240
     80  CA       -19.7780   -3.7150  -15.9840 C.3   188  ASN188      0.1653
     81  C        -19.4090   -2.6360  -14.9670 C.2   188  ASN188      0.2266
     82  O        -20.0270   -1.5650  -14.9530 O.2   188  ASN188     -0.2867
     83  CB       -20.8870   -4.6130  -15.4060 C.3   188  ASN188      0.1155
     84  CG       -21.7240   -5.2780  -16.4830 C.2   188  ASN188      0.2627
     85  OD1      -21.7820   -4.8080  -17.6210 O.2   188  ASN188     -0.2716
     86  ND2      -22.3960   -6.3690  -16.1240 N.am  188  ASN188     -0.0877
     87  N        -21.3280  -13.9210  -13.3480 N.3   209  LEU209     -0.1245
     88  CA       -22.3580  -13.1820  -14.0810 C.3   209  LEU209      0.1561
     89  C        -22.4550  -13.8120  -15.4460 C.2   209  LEU209      0.2260
     90  O        -21.4880  -13.8170  -16.1930 O.2   209  LEU209     -0.2867
     91  CB       -22.0340  -11.6930  -14.2060 C.3   209  LEU209      0.0270
     92  CG       -23.0190  -10.9610  -15.1380 C.3   209  LEU209      0.0019
     93  CD1      -24.4270  -10.9920  -14.5610 C.3   209  LEU209      0.0001
     94  CD2      -22.5730   -9.5320  -15.4210 C.3   209  LEU209      0.0001
     95  N        -25.5310  -14.9720  -18.7340 N.3   211  TYR211     -0.1241
     96  CA       -26.8410  -14.6870  -19.3140 C.3   211  TYR211      0.1605
     97  C        -27.4940  -15.9120  -19.8770 C.2   211  TYR211      0.2264
     98  O        -26.8150  -16.8470  -20.2900 O.2   211  TYR211     -0.2867
     99  CB       -26.7440  -13.6720  -20.4560 C.3   211  TYR211      0.0534
    100  CG       -25.8840  -12.4840  -20.1500 C.ar  211  TYR211     -0.0201
    101  CD1      -26.2720  -11.5650  -19.1950 C.ar  211  TYR211     -0.0009
    102  CD2      -24.6740  -12.2830  -20.8150 C.ar  211  TYR211     -0.0009
    103  CE1      -25.4720  -10.4690  -18.8910 C.ar  211  TYR211      0.0417
    104  CE2      -23.8720  -11.1790  -20.5310 C.ar  211  TYR211      0.0417
    105  CZ       -24.2830  -10.2740  -19.5760 C.ar  211  TYR211      0.1957
    106  OH       -23.5030   -9.1700  -19.2710 O.3   211  TYR211     -0.2866
@<TRIPOS>BOND
     1    18    17    2
     2    17    16    1
     3    16    15    1
     4    16    19    1
     5    20    19    1
     6    20    21    1
     7    11    10    2
     8    10     9    1
     9    21    22    1
    10     1     2    1
    11    14    12    1
    12     8     9    1
    13     8     3   am
    14     9    12    1
    15    22    23    1
    16     2     3    1
    17     2     5    1
    18     3     4    2
    19    12    13    1
    20   102   104   ar
    21   102   100   ar
    22   104   105   ar
    23    99   100    1
    24    99    96    1
    25    98    97    2
    26   100   101   ar
    27     6     5    1
    28     5     7    1
    29    97    96    1
    30   105   106    1
    31   105   103   ar
    32    96    95    1
    33   101   103   ar
    34    70    69    1
    35    68    69   ar
    36    68    66   ar
    37    85    84    2
    38    24    25    1
    39    69    67   ar
    40    66    64   ar
    41    84    86   am
    42    84    83    1
    43    79    80    1
    44    25    26    1
    45    25    28    1
    46    67    65   ar
    47    90    89    2
    48    64    65   ar
    49    64    63    1
    50    80    83    1
    51    80    81    1
    52    26    27    2
    53    63    60    1
    54    89    88    1
    55    94    92    1
    56    28    29    1
    57    38    37    1
    58    92    93    1
    59    92    91    1
    60    81    82    2
    61    36    37    1
    62    36    35    1
    63    61    60    1
    64    61    62    2
    65    91    88    1
    66    60    59    1
    67    88    87    1
    68    34    35    1
    69    34    31    1
    70    33    32    2
    71    32    31    1
    72    77    76    2
    73    57    56    2
    74    31    30    1
    75    76    78   am
    76    76    75    1
    77    56    55    1
    78    56    58   am
    79    75    72    1
    80    73    72    1
    81    73    74    2
    82    49    47    1
    83    55    54    1
    84    48    47    1
    85    72    71    1
    86    47    46    2
    87    54    51    1
    88    46    45    1
    89    51    52    1
    90    51    50    1
    91    45    44    1
    92    52    53    2
    93    44    43    1
    94    43    40    1
    95    42    41    2
    96    41    40    1
    97    40    39    1
