@<TRIPOS>MOLECULE
tmp/4nf2C01.pdb
 146 137 0 0 0
SMALL
GASTEIGER

@<TRIPOS>ATOM
      1  N         27.4550  -10.2810    6.1510 N.3    51  LYS51      -0.1245
      2  CA        26.5220  -10.2210    5.0100 C.3    51  LYS51       0.1561
      3  C         25.4930   -9.1010    5.2710 C.2    51  LYS51       0.2260
      4  O         25.2720   -8.7030    6.4150 O.2    51  LYS51      -0.2867
      5  CB        25.7780  -11.5450    4.9000 C.3    51  LYS51       0.0271
      6  CG        26.5950  -12.7210    4.3850 C.3    51  LYS51       0.0035
      7  CD        25.8210  -14.0310    4.4640 C.3    51  LYS51       0.0206
      8  CE        26.4950  -15.2080    3.7870 C.3    51  LYS51       0.1093
      9  NZ        25.8480  -16.5360    4.1160 N.3    51  LYS51      -0.1314
     10  N         16.1430   -7.1550    8.3340 N.3    55  ARG55      -0.1245
     11  CA        15.3170   -7.7240    9.4060 C.3    55  ARG55       0.1563
     12  C         16.1510   -8.1670   10.6020 C.2    55  ARG55       0.2260
     13  O         15.8030   -7.8430   11.7450 O.2    55  ARG55      -0.2867
     14  CB        14.4310   -8.9170    8.9340 C.3    55  ARG55       0.0307
     15  CG        13.1800   -8.5180    8.1140 C.3    55  ARG55       0.0489
     16  CD        12.8330   -9.5370    7.0030 C.3    55  ARG55       0.2205
     17  NE        13.7820   -9.2950    5.9540 N.pl3  55  ARG55      -0.0865
     18  CZ        13.7650   -8.2990    5.0970 C.cat  55  ARG55       0.5346
     19  NH1       12.6570   -7.5930    4.8670 N.pl3  55  ARG55       0.1354
     20  NH2       14.8340   -8.0510    4.3210 N.pl3  55  ARG55       0.1354
     21  N         26.1570  -13.3740   11.8630 N.3   104  ARG104     -0.1245
     22  CA        25.7340  -13.7460   10.5010 C.3   104  ARG104      0.1563
     23  C         26.9540  -13.7820    9.6330 C.2   104  ARG104      0.2260
     24  O         27.6660  -12.7690    9.4790 O.2   104  ARG104     -0.2867
     25  CB        24.7190  -12.7460    9.9290 C.3   104  ARG104      0.0307
     26  CG        24.4780  -12.9360    8.4320 C.3   104  ARG104      0.0489
     27  CD        23.3820  -12.0340    7.8700 C.3   104  ARG104      0.2205
     28  NE        22.0670  -12.4410    8.3900 N.pl3 104  ARG104     -0.0865
     29  CZ        20.9220  -12.2870    7.7180 C.cat 104  ARG104      0.5346
     30  NH1       20.8470  -11.5100    6.6330 N.pl3 104  ARG104      0.1354
     31  NH2       19.8480  -12.8420    8.1760 N.pl3 104  ARG104      0.1354
     32  N         22.3170  -16.3010   10.6830 N.3   126  LEU126     -0.1245
     33  CA        22.2720  -16.9100    9.3360 C.3   126  LEU126      0.1561
     34  C         23.7340  -17.2680    8.9510 C.2   126  LEU126      0.2260
     35  O         24.6710  -16.4430    9.1070 O.2   126  LEU126     -0.2867
     36  CB        21.6980  -15.9340    8.2660 C.3   126  LEU126      0.0270
     37  CG        21.7720  -16.5000    6.8570 C.3   126  LEU126      0.0019
     38  CD1       20.5910  -15.9680    6.0340 C.3   126  LEU126      0.0001
     39  CD2       23.0440  -16.1410    6.1550 C.3   126  LEU126      0.0001
     40  N         19.5460  -21.0020    9.1200 N.3   131  HIS131     -0.1241
     41  CA        18.9470  -19.7370    9.5530 C.3   131  HIS131      0.1621
     42  C         17.8910  -19.9830   10.6570 C.2   131  HIS131      0.2264
     43  O         16.6970  -19.8770   10.4350 O.2   131  HIS131     -0.2867
     44  CB        18.3800  -18.9880    8.3490 C.3   131  HIS131      0.0745
     45  CG        18.0500  -17.5660    8.5700 C.ar  131  HIS131      0.0817
     46  ND1       18.3600  -16.8880    9.7440 N.ar  131  HIS131     -0.2268
     47  CD2       17.4510  -16.6610    7.7720 C.ar  131  HIS131      0.1154
     48  CE1       17.9800  -15.6400    9.6350 C.ar  131  HIS131      0.1986
     49  NE2       17.3990  -15.4780    8.4650 N.ar  131  HIS131     -0.2212
     50  N         15.0730  -17.4920   11.9370 N.3   134  GLN134     -0.1245
     51  CA        13.9840  -17.3440   10.9760 C.3   134  GLN134      0.1566
     52  C         12.9290  -18.4400   11.1650 C.2   134  GLN134      0.2260
     53  O         11.7280  -18.1450   11.2370 O.2   134  GLN134     -0.2867
     54  CB        14.5290  -17.4040    9.5450 C.3   134  GLN134      0.0367
     55  CG        13.4360  -17.2240    8.4950 C.3   134  GLN134      0.0905
     56  CD        12.9200  -15.7870    8.4690 C.2   134  GLN134      0.2608
     57  OE1       13.7020  -14.8330    8.3540 O.2   134  GLN134     -0.2717
     58  NE2       11.6300  -15.6250    8.5810 N.am  134  GLN134     -0.0878
     59  N         18.3260  -24.5940    0.4340 N.3   161  ASN161     -0.1225
     60  CA        19.2930  -23.6340    1.0270 C.3   161  ASN161      0.1785
     61  C         19.1480  -23.5570    2.5580 C.2   161  ASN161      0.2597
     62  O         18.4820  -24.4060    3.1800 O.2   161  ASN161     -0.2718
     63  CB        19.0630  -22.2120    0.4150 C.3   161  ASN161      0.1169
     64  CG        17.6910  -21.6270    0.7700 C.2   161  ASN161      0.2627
     65  OD1       16.9790  -22.1300    1.6260 O.2   161  ASN161     -0.2716
     66  ND2       17.2740  -20.6440   -0.0050 N.am  161  ASN161     -0.0877
     67  N         19.8430  -22.6000    3.1550 N.am  162  ASN162     -0.1960
     68  CA        19.7990  -22.4200    4.6190 C.3   162  ASN162      0.1819
     69  C         18.4270  -22.3560    5.2590 C.2   162  ASN162      0.2621
     70  O         18.1880  -22.9640    6.3210 O.2   162  ASN162     -0.2715
     71  CB        20.6560  -21.1950    5.0480 C.3   162  ASN162      0.1195
     72  CG        20.3790  -19.9130    4.1780 C.2   162  ASN162      0.2630
     73  OD1       19.3630  -19.7750    3.5230 O.2   162  ASN162     -0.2716
     74  ND2       21.3480  -18.9840    4.2140 N.am  162  ASN162     -0.0877
     75  N         17.5110  -21.6300    4.6370 N.am  163  VAL163     -0.1977
     76  CA        16.1630  -21.4520    5.1590 C.3   163  VAL163      0.1596
     77  C         15.3970  -22.7770    5.0080 C.2   163  VAL163      0.2287
     78  O         14.7150  -23.2260    5.9960 O.2   163  VAL163     -0.2864
     79  CB        15.4830  -20.2690    4.4170 C.3   163  VAL163      0.0276
     80  CG1       13.9970  -20.2990    4.6480 C.3   163  VAL163      0.0022
     81  CG2       16.0730  -18.9510    4.9230 C.3   163  VAL163      0.0022
     82  N         11.8030  -18.5940   -1.0550 N.3   226  ASP226     -0.1225
     83  CA        12.9460  -17.7510   -0.7530 C.3   226  ASP226      0.1805
     84  C         13.5790  -17.4470   -2.0950 C.2   226  ASP226      0.2597
     85  O         13.2450  -18.0290   -3.1540 O.2   226  ASP226     -0.2718
     86  CB        13.8710  -18.4660    0.2680 C.3   226  ASP226      0.1424
     87  CG        15.0580  -17.6690    0.7230 C.2   226  ASP226      0.3668
     88  OD1       15.1390  -16.4120    0.5430 O.co2 226  ASP226     -0.2456
     89  OD2       15.9290  -18.3670    1.3220 O.co2 226  ASP226     -0.2456
     90  N         14.5300  -16.5500   -2.0950 N.am  227  VAL227     -0.1980
     91  CA        15.2350  -16.1350   -3.3090 C.3   227  VAL227      0.1595
     92  C         16.0300  -17.2920   -3.9230 C.2   227  VAL227      0.2287
     93  O         16.4430  -18.2330   -3.2280 O.2   227  VAL227     -0.2864
     94  CB        16.2170  -14.9660   -3.0820 C.3   227  VAL227      0.0276
     95  CG1       15.4160  -13.7100   -2.7080 C.3   227  VAL227      0.0022
     96  CG2       17.2940  -15.3860   -2.1110 C.3   227  VAL227      0.0022
     97  N         21.0760  -16.9420   -3.1480 N.3   230  SER230     -0.1202
     98  CA        21.3340  -16.5050   -1.7860 C.3   230  SER230      0.2020
     99  C         22.6390  -15.7130   -1.7170 C.2   230  SER230      0.2619
    100  O         23.4810  -15.7750   -2.5960 O.2   230  SER230     -0.2717
    101  CB        21.3590  -17.7180   -0.8820 C.3   230  SER230      0.2103
    102  OG        20.0550  -18.2600   -0.7280 O.3   230  SER230     -0.2182
    103  N         22.8460  -15.0380   -0.5970 N.am  231  MET231     -0.1965
    104  CA        24.0210  -14.2000   -0.4190 C.3   231  MET231      0.1736
    105  C         25.3130  -14.9900   -0.5610 C.2   231  MET231      0.2617
    106  O         26.2710  -14.5200   -1.1280 O.2   231  MET231     -0.2715
    107  CB        23.9610  -13.4600    0.9210 C.3   231  MET231      0.0427
    108  CG        22.9080  -12.3910    0.9410 C.3   231  MET231      0.0599
    109  SD        22.6750  -11.5700    2.5290 S.3   231  MET231     -0.1393
    110  CE        21.7590  -12.8110    3.4090 C.3   231  MET231      0.0692
    111  N         25.2870  -16.2200   -0.1320 N.am  232  GLY232     -0.1955
    112  CA        26.4120  -17.1150   -0.3510 C.3   232  GLY232      0.1869
    113  C         26.7390  -17.4800   -1.8190 C.2   232  GLY232      0.2309
    114  O         27.7390  -18.1690   -2.0060 O.2   232  GLY232     -0.2863
    115  N         10.7250  -15.6410    3.7710 N.3   265  CYS265     -0.1221
    116  CA        11.5920  -15.0050    4.8090 C.3   265  CYS265      0.1808
    117  C         11.9420  -13.5270    4.5670 C.2   265  CYS265      0.2601
    118  O         12.2100  -12.8020    5.5360 O.2   265  CYS265     -0.2717
    119  CB        12.8880  -15.8070    4.9750 C.3   265  CYS265      0.0970
    120  SG        13.7790  -16.0870    3.4770 S.3   265  CYS265     -0.0800
    121  N         11.9110  -13.1060    3.3190 N.am  266  LEU266     -0.1966
    122  CA        12.3670  -11.8110    2.8520 C.3   266  LEU266      0.1713
    123  C         13.8690  -11.6680    2.9920 C.2   266  LEU266      0.2458
    124  O         14.4830  -12.3310    3.8170 O.2   266  LEU266     -0.2730
    125  CB        11.5910  -10.6660    3.5360 C.3   266  LEU266      0.0310
    126  CG        10.0650  -10.7960    3.5740 C.3   266  LEU266      0.0022
    127  CD1        9.4650   -9.5910    4.2620 C.3   266  LEU266      0.0001
    128  CD2        9.5040  -10.9210    2.1640 C.3   266  LEU266      0.0001
    129  N         14.5190  -10.8390    2.1620 N.am  267  PRO267     -0.2727
    130  CA        13.9090  -10.0630    1.1050 C.3   267  PRO267      0.1402
    131  C         13.3940  -10.8790   -0.0740 C.2   267  PRO267      0.2269
    132  O         13.9520  -11.9350   -0.3720 O.2   267  PRO267     -0.2865
    133  CB        15.0580   -9.1630    0.6160 C.3   267  PRO267      0.0296
    134  CG        16.3120   -9.9820    0.8700 C.3   267  PRO267      0.0237
    135  CD        15.9910  -10.6940    2.1800 C.3   267  PRO267      0.0939
    136  N          9.9500  -12.0800   13.9300 N.3   293  ARG293     -0.1245
    137  CA        11.3840  -12.1870   14.2050 C.3   293  ARG293      0.1563
    138  C         11.6700  -11.4810   15.5350 C.2   293  ARG293      0.2260
    139  O         12.4340  -11.9680   16.3550 O.2   293  ARG293     -0.2867
    140  CB        12.2510  -11.5690   13.0900 C.3   293  ARG293      0.0307
    141  CG        12.1720  -12.3070   11.7320 C.3   293  ARG293      0.0489
    142  CD        12.7800  -13.6990   11.7300 C.3   293  ARG293      0.2205
    143  NE        14.1340  -13.6730   12.2010 N.pl3 293  ARG293     -0.0865
    144  CZ        15.1740  -13.2630   11.4570 C.cat 293  ARG293      0.5346
    145  NH1       14.9950  -13.0250   10.1690 N.pl3 293  ARG293      0.1354
    146  NH2       16.3440  -13.0280   12.0100 N.pl3 293  ARG293      0.1354
@<TRIPOS>BOND
     1    92    91    1
     2    92    93    2
     3    91    94    1
     4    91    90    1
     5    85    84    2
     6    97    98    1
     7    94    95    1
     8    94    96    1
     9   100    99    2
    10    84    90   am
    11    84    83    1
    12   114   113    2
    13   113   112    1
    14    98    99    1
    15    98   101    1
    16    99   103   am
    17   106   105    2
    18    82    83    1
    19   101   102    1
    20    83    86    1
    21   103   104    1
    22   105   104    1
    23   105   111   am
    24   104   107    1
    25   132   131    2
    26   112   111    1
    27   131   130    1
    28    66    64   am
    29    86    87    1
    30    63    64    1
    31    63    60    1
    32    59    60    1
    33    88    87   ar
    34   133   134    1
    35   133   130    1
    36    87    89   ar
    37    64    65    2
    38   134   135    1
    39   107   108    1
    40   108   109    1
    41    60    61    1
    42   130   129    1
    43   129   135    1
    44   129   123   am
    45   128   126    1
    46   109   110    1
    47    61    67   am
    48    61    62    2
    49   122   123    1
    50   122   121    1
    51   122   125    1
    52   123   124    2
    53    67    68    1
    54   121   117   am
    55   120   119    1
    56    73    72    2
    57   125   126    1
    58   126   127    1
    59   115   116    1
    60     8     9    1
    61     8     7    1
    62    72    74   am
    63    72    71    1
    64    20    18    1
    65     6     7    1
    66     6     5    1
    67    79    80    1
    68    79    81    1
    69    79    76    1
    70   117   116    1
    71   117   118    2
    72    68    71    1
    73    68    69    1
    74    75    76    1
    75    75    69   am
    76   116   119    1
    77    19    18    1
    78     5     2    1
    79    77    76    1
    80    77    78    2
    81     2     3    1
    82     2     1    1
    83    18    17    2
    84    69    70    2
    85     3     4    2
    86    17    16    1
    87    38    37    1
    88    39    37    1
    89    30    29    1
    90    37    36    1
    91    16    15    1
    92    29    31    1
    93    29    28    2
    94    47    49   ar
    95    47    45   ar
    96    27    28    1
    97    27    26    1
    98    15    14    1
    99    36    33    1
   100    10    11    1
   101    44    45    1
   102    44    41    1
   103    57    56    2
   104    26    25    1
   105    49    48   ar
   106    56    55    1
   107    56    58   am
   108    55    54    1
   109    45    46   ar
   110    14    11    1
   111    34    35    2
   112    34    33    1
   113    40    41    1
   114    33    32    1
   115    11    12    1
   116    24    23    2
   117    54    51    1
   118    41    42    1
   119    23    22    1
   120    48    46   ar
   121    25    22    1
   122   145   144    1
   123    43    42    2
   124    22    21    1
   125    12    13    2
   126    51    52    1
   127    51    50    1
   128    52    53    2
   129   144   146    1
   130   144   143    2
   131   142   141    1
   132   142   143    1
   133   141   140    1
   134   140   137    1
   135   136   137    1
   136   137   138    1
   137   138   139    2
