@<TRIPOS>MOLECULE
tmp/4nf2C00.pdb
 119 114 0 0 0
SMALL
GASTEIGER

@<TRIPOS>ATOM
      1  N         24.8190   -8.6600    4.2040 N.3    52  HIS52      -0.1226
      2  CA        23.7070   -7.6820    4.2960 C.3    52  HIS52       0.1752
      3  C         22.5970   -8.1830    5.1930 C.2    52  HIS52       0.2597
      4  O         22.4010   -9.3890    5.3480 O.2    52  HIS52      -0.2718
      5  CB        23.0680   -7.4670    2.9140 C.3    52  HIS52       0.0759
      6  CG        23.9560   -6.8150    1.9390 C.ar   52  HIS52       0.0818
      7  ND1       24.9350   -7.5150    1.2450 N.ar   52  HIS52      -0.2268
      8  CD2       23.9310   -5.5700    1.4040 C.ar   52  HIS52       0.1154
      9  CE1       25.5400   -6.6860    0.3990 C.ar   52  HIS52       0.1986
     10  NE2       24.9560   -5.5000    0.4700 N.ar   52  HIS52      -0.2212
     11  N         21.8670   -7.2200    5.8010 N.am   53  SER53      -0.1938
     12  CA        20.7140   -7.5590    6.5430 C.3    53  SER53       0.2055
     13  C         19.8560   -6.3120    6.7770 C.2    53  SER53       0.2644
     14  O         20.4080   -5.2460    7.1660 O.2    53  SER53      -0.2714
     15  CB        21.1210   -8.0750    7.9530 C.3    53  SER53       0.2130
     16  OG        19.9680   -8.3770    8.7810 O.3    53  SER53      -0.2179
     17  N         18.5540   -6.4810    6.7380 N.am   54  THR54      -0.1936
     18  CA        17.6260   -5.5160    7.2910 C.3    54  THR54       0.2028
     19  C         16.9000   -6.0880    8.5110 C.2    54  THR54       0.2642
     20  O         16.9860   -5.5120    9.6180 O.2    54  THR54      -0.2714
     21  CB        16.6440   -5.0660    6.2110 C.3    54  THR54       0.1808
     22  OG1       17.3050   -4.3780    5.1230 O.3    54  THR54      -0.2208
     23  CG2       15.5100   -4.1450    6.8000 C.3    54  THR54       0.0379
     24  N         16.1430   -7.1550    8.3340 N.am   55  ARG55      -0.1963
     25  CA        15.3170   -7.7240    9.4060 C.3    55  ARG55       0.1729
     26  C         16.1510   -8.1670   10.6020 C.2    55  ARG55       0.2616
     27  O         15.8030   -7.8430   11.7450 O.2    55  ARG55      -0.2715
     28  CB        14.4310   -8.9170    8.9340 C.3    55  ARG55       0.0348
     29  CG        13.1800   -8.5180    8.1140 C.3    55  ARG55       0.0492
     30  CD        12.8330   -9.5370    7.0030 C.3    55  ARG55       0.2205
     31  NE        13.7820   -9.2950    5.9540 N.pl3  55  ARG55      -0.0865
     32  CZ        13.7650   -8.2990    5.0970 C.cat  55  ARG55       0.5346
     33  NH1       12.6570   -7.5930    4.8670 N.pl3  55  ARG55       0.1354
     34  NH2       14.8340   -8.0510    4.3210 N.pl3  55  ARG55       0.1354
     35  N         17.1890   -8.9570   10.3670 N.am   56  THR56      -0.1951
     36  CA        17.9430   -9.6010   11.5000 C.3    56  THR56       0.1897
     37  C         18.6700   -8.5280   12.2990 C.2    56  THR56       0.2313
     38  O         18.6040   -8.4750   13.5470 O.2    56  THR56      -0.2863
     39  CB        18.8950  -10.6620   10.9180 C.3    56  THR56       0.1794
     40  OG1       18.1040  -11.6680   10.2270 O.3    56  THR56      -0.2208
     41  CG2       19.6120  -11.3790   12.0570 C.3    56  THR56       0.0378
     42  N         26.1570  -13.3740   11.8630 N.3   104  ARG104     -0.1245
     43  CA        25.7340  -13.7460   10.5010 C.3   104  ARG104      0.1563
     44  C         26.9540  -13.7820    9.6330 C.2   104  ARG104      0.2260
     45  O         27.6660  -12.7690    9.4790 O.2   104  ARG104     -0.2867
     46  CB        24.7190  -12.7460    9.9290 C.3   104  ARG104      0.0307
     47  CG        24.4780  -12.9360    8.4320 C.3   104  ARG104      0.0489
     48  CD        23.3820  -12.0340    7.8700 C.3   104  ARG104      0.2205
     49  NE        22.0670  -12.4410    8.3900 N.pl3 104  ARG104     -0.0865
     50  CZ        20.9220  -12.2870    7.7180 C.cat 104  ARG104      0.5346
     51  NH1       20.8470  -11.5100    6.6330 N.pl3 104  ARG104      0.1354
     52  NH2       19.8480  -12.8420    8.1760 N.pl3 104  ARG104      0.1354
     53  N         22.3170  -16.3010   10.6830 N.3   126  LEU126     -0.1245
     54  CA        22.2720  -16.9100    9.3360 C.3   126  LEU126      0.1561
     55  C         23.7340  -17.2680    8.9510 C.2   126  LEU126      0.2260
     56  O         24.6710  -16.4430    9.1070 O.2   126  LEU126     -0.2867
     57  CB        21.6980  -15.9340    8.2660 C.3   126  LEU126      0.0270
     58  CG        21.7720  -16.5000    6.8570 C.3   126  LEU126      0.0019
     59  CD1       20.5910  -15.9680    6.0340 C.3   126  LEU126      0.0001
     60  CD2       23.0440  -16.1410    6.1550 C.3   126  LEU126      0.0001
     61  N         19.5460  -21.0020    9.1200 N.3   131  HIS131     -0.1241
     62  CA        18.9470  -19.7370    9.5530 C.3   131  HIS131      0.1621
     63  C         17.8910  -19.9830   10.6570 C.2   131  HIS131      0.2264
     64  O         16.6970  -19.8770   10.4350 O.2   131  HIS131     -0.2867
     65  CB        18.3800  -18.9880    8.3490 C.3   131  HIS131      0.0745
     66  CG        18.0500  -17.5660    8.5700 C.ar  131  HIS131      0.0817
     67  ND1       18.3600  -16.8880    9.7440 N.ar  131  HIS131     -0.2268
     68  CD2       17.4510  -16.6610    7.7720 C.ar  131  HIS131      0.1154
     69  CE1       17.9800  -15.6400    9.6350 C.ar  131  HIS131      0.1986
     70  NE2       17.3990  -15.4780    8.4650 N.ar  131  HIS131     -0.2212
     71  N         15.0730  -17.4920   11.9370 N.3   134  GLN134     -0.1245
     72  CA        13.9840  -17.3440   10.9760 C.3   134  GLN134      0.1566
     73  C         12.9290  -18.4400   11.1650 C.2   134  GLN134      0.2260
     74  O         11.7280  -18.1450   11.2370 O.2   134  GLN134     -0.2867
     75  CB        14.5290  -17.4040    9.5450 C.3   134  GLN134      0.0367
     76  CG        13.4360  -17.2240    8.4950 C.3   134  GLN134      0.0905
     77  CD        12.9200  -15.7870    8.4690 C.2   134  GLN134      0.2608
     78  OE1       13.7020  -14.8330    8.3540 O.2   134  GLN134     -0.2717
     79  NE2       11.6300  -15.6250    8.5810 N.am  134  GLN134     -0.0878
     80  N         22.8460  -15.0380   -0.5970 N.3   231  MET231     -0.1245
     81  CA        24.0210  -14.2000   -0.4190 C.3   231  MET231      0.1570
     82  C         25.3130  -14.9900   -0.5610 C.2   231  MET231      0.2261
     83  O         26.2710  -14.5200   -1.1280 O.2   231  MET231     -0.2867
     84  CB        23.9610  -13.4600    0.9210 C.3   231  MET231      0.0387
     85  CG        22.9080  -12.3910    0.9410 C.3   231  MET231      0.0595
     86  SD        22.6750  -11.5700    2.5290 S.3   231  MET231     -0.1393
     87  CE        21.7590  -12.8110    3.4090 C.3   231  MET231      0.0692
     88  N         10.7250  -15.6410    3.7710 N.3   265  CYS265     -0.1221
     89  CA        11.5920  -15.0050    4.8090 C.3   265  CYS265      0.1808
     90  C         11.9420  -13.5270    4.5670 C.2   265  CYS265      0.2601
     91  O         12.2100  -12.8020    5.5360 O.2   265  CYS265     -0.2717
     92  CB        12.8880  -15.8070    4.9750 C.3   265  CYS265      0.0970
     93  SG        13.7790  -16.0870    3.4770 S.3   265  CYS265     -0.0800
     94  N         11.9110  -13.1060    3.3190 N.am  266  LEU266     -0.1966
     95  CA        12.3670  -11.8110    2.8520 C.3   266  LEU266      0.1713
     96  C         13.8690  -11.6680    2.9920 C.2   266  LEU266      0.2458
     97  O         14.4830  -12.3310    3.8170 O.2   266  LEU266     -0.2730
     98  CB        11.5910  -10.6660    3.5360 C.3   266  LEU266      0.0310
     99  CG        10.0650  -10.7960    3.5740 C.3   266  LEU266      0.0022
    100  CD1        9.4650   -9.5910    4.2620 C.3   266  LEU266      0.0001
    101  CD2        9.5040  -10.9210    2.1640 C.3   266  LEU266      0.0001
    102  N         14.5190  -10.8390    2.1620 N.am  267  PRO267     -0.2727
    103  CA        13.9090  -10.0630    1.1050 C.3   267  PRO267      0.1402
    104  C         13.3940  -10.8790   -0.0740 C.2   267  PRO267      0.2269
    105  O         13.9520  -11.9350   -0.3720 O.2   267  PRO267     -0.2865
    106  CB        15.0580   -9.1630    0.6160 C.3   267  PRO267      0.0296
    107  CG        16.3120   -9.9820    0.8700 C.3   267  PRO267      0.0237
    108  CD        15.9910  -10.6940    2.1800 C.3   267  PRO267      0.0939
    109  N          9.9500  -12.0800   13.9300 N.3   293  ARG293     -0.1245
    110  CA        11.3840  -12.1870   14.2050 C.3   293  ARG293      0.1563
    111  C         11.6700  -11.4810   15.5350 C.2   293  ARG293      0.2260
    112  O         12.4340  -11.9680   16.3550 O.2   293  ARG293     -0.2867
    113  CB        12.2510  -11.5690   13.0900 C.3   293  ARG293      0.0307
    114  CG        12.1720  -12.3070   11.7320 C.3   293  ARG293      0.0489
    115  CD        12.7800  -13.6990   11.7300 C.3   293  ARG293      0.2205
    116  NE        14.1340  -13.6730   12.2010 N.pl3 293  ARG293     -0.0865
    117  CZ        15.1740  -13.2630   11.4570 C.cat 293  ARG293      0.5346
    118  NH1       14.9950  -13.0250   10.1690 N.pl3 293  ARG293      0.1354
    119  NH2       16.3440  -13.0280   12.0100 N.pl3 293  ARG293      0.1354
@<TRIPOS>BOND
     1    83    82    2
     2    80    81    1
     3    82    81    1
     4    81    84    1
     5   105   104    2
     6   104   103    1
     7     9    10   ar
     8     9     7   ar
     9    10     8   ar
    10   106   107    1
    11   106   103    1
    12   107   108    1
    13    84    85    1
    14    85    86    1
    15   103   102    1
    16     7     6   ar
    17     8     6   ar
    18     6     5    1
    19   102   108    1
    20   102    96   am
    21   101    99    1
    22    86    87    1
    23    95    96    1
    24    95    94    1
    25    95    98    1
    26     5     2    1
    27    96    97    2
    28    94    90   am
    29    93    92    1
    30    98    99    1
    31    99   100    1
    32    88    89    1
    33     1     2    1
    34     2     3    1
    35    34    32    1
    36    90    89    1
    37    90    91    2
    38    89    92    1
    39    33    32    1
    40    32    31    2
    41    22    21    1
    42     3     4    2
    43     3    11   am
    44    11    12    1
    45    31    30    1
    46    59    58    1
    47    60    58    1
    48    21    23    1
    49    21    18    1
    50    12    13    1
    51    12    15    1
    52    51    50    1
    53    17    13   am
    54    17    18    1
    55    13    14    2
    56    58    57    1
    57    30    29    1
    58    18    19    1
    59    50    52    1
    60    50    49    2
    61    68    70   ar
    62    68    66   ar
    63    48    49    1
    64    48    47    1
    65    15    16    1
    66    29    28    1
    67    57    54    1
    68    24    19   am
    69    24    25    1
    70    65    66    1
    71    65    62    1
    72    78    77    2
    73    47    46    1
    74    70    69   ar
    75    77    76    1
    76    77    79   am
    77    76    75    1
    78    19    20    2
    79    66    67   ar
    80    28    25    1
    81    55    56    2
    82    55    54    1
    83    61    62    1
    84    54    53    1
    85    25    26    1
    86    45    44    2
    87    75    72    1
    88    62    63    1
    89    44    43    1
    90    69    67   ar
    91    46    43    1
    92   118   117    1
    93    40    39    1
    94    35    26   am
    95    35    36    1
    96    64    63    2
    97    43    42    1
    98    26    27    2
    99    39    36    1
   100    39    41    1
   101    72    73    1
   102    72    71    1
   103    73    74    2
   104   117   119    1
   105   117   116    2
   106    36    37    1
   107   115   114    1
   108   115   116    1
   109   114   113    1
   110    37    38    2
   111   113   110    1
   112   109   110    1
   113   110   111    1
   114   111   112    2
