@<TRIPOS>MOLECULE
tmp/4nf5B00.pdb
 116 111 0 0 0
SMALL
GASTEIGER

@<TRIPOS>ATOM
      1  N         30.4200  -12.1290   51.0950 N.3    10  GLU10      -0.1245
      2  CA        30.2710  -13.4510   50.4940 C.3    10  GLU10       0.1567
      3  C         30.9560  -13.4450   49.1300 C.2    10  GLU10       0.2260
      4  O         30.3890  -12.9830   48.1330 O.2    10  GLU10      -0.2867
      5  CB        28.8020  -13.8940   50.3520 C.3    10  GLU10       0.0388
      6  CG        28.6910  -15.3520   49.8430 C.3    10  GLU10       0.1160
      7  CD        27.2880  -15.9450   49.9220 C.2    10  GLU10       0.3649
      8  OE1       26.2940  -15.2140   49.7140 O.co2  10  GLU10      -0.2457
      9  OE2       27.1810  -17.1650   50.1850 O.co2  10  GLU10      -0.2457
     10  N         22.9320  -12.6210   58.8270 N.3    75  LYS75      -0.1231
     11  CA        23.5630  -12.5750   57.5140 C.3    75  LYS75       0.1693
     12  C         22.6650  -11.9120   56.4700 C.2    75  LYS75       0.2592
     13  O         22.4600  -10.6980   56.5040 O.2    75  LYS75      -0.2718
     14  CB        23.9940  -13.9800   57.0840 C.3    75  LYS75       0.0285
     15  CG        24.9460  -14.6480   58.0640 C.3    75  LYS75       0.0035
     16  CD        25.4820  -15.9760   57.5130 C.3    75  LYS75       0.0206
     17  CE        24.3650  -16.9590   57.2230 C.3    75  LYS75       0.1093
     18  NZ        24.4470  -17.4830   55.8290 N.3    75  LYS75      -0.1314
     19  N         22.1460  -12.6900   55.5330 N.am   76  HIS76      -0.1976
     20  CA        21.2960  -12.1010   54.4890 C.3    76  HIS76       0.1656
     21  C         19.9820  -11.5630   55.0410 C.2    76  HIS76       0.2291
     22  O         19.5590  -10.4600   54.6940 O.2    76  HIS76      -0.2864
     23  CB        21.0150  -13.1160   53.3870 C.3    76  HIS76       0.0771
     24  CG        22.2510  -13.6140   52.7080 C.ar   76  HIS76       0.0820
     25  ND1       22.9830  -14.6810   53.1820 N.ar   76  HIS76      -0.2267
     26  CD2       22.8810  -13.1930   51.5840 C.ar   76  HIS76       0.1154
     27  CE1       24.0070  -14.8990   52.3760 C.ar   76  HIS76       0.1986
     28  NE2       23.9690  -14.0080   51.4020 N.ar   76  HIS76      -0.2212
     29  N         24.6150  -10.8130   47.7940 N.3   102  SER102     -0.1202
     30  CA        24.0900  -12.0300   47.2020 C.3   102  SER102      0.2020
     31  C         22.7440  -12.3180   47.8510 C.2   102  SER102      0.2619
     32  O         22.5660  -13.3360   48.5140 O.2   102  SER102     -0.2717
     33  CB        25.0650  -13.1730   47.4540 C.3   102  SER102      0.2103
     34  OG        25.5830  -13.0780   48.7750 O.3   102  SER102     -0.2182
     35  N         21.7980  -11.4000   47.6450 N.am  103  LEU103     -0.1965
     36  CA        20.5380  -11.4010   48.3930 C.3   103  LEU103      0.1728
     37  C         19.3980  -11.9800   47.5620 C.2   103  LEU103      0.2616
     38  O         18.9550  -11.3670   46.5930 O.2   103  LEU103     -0.2715
     39  CB        20.2050   -9.9700   48.8200 C.3   103  LEU103      0.0311
     40  CG        18.9930   -9.7330   49.7160 C.3   103  LEU103      0.0022
     41  CD1       19.1100  -10.5580   51.0120 C.3   103  LEU103      0.0001
     42  CD2       18.9240   -8.2300   50.0210 C.3   103  LEU103      0.0001
     43  N         18.9270  -13.1620   47.9460 N.am  104  THR104     -0.1951
     44  CA        17.9220  -13.8660   47.1610 C.3   104  THR104      0.1897
     45  C         16.5530  -13.2200   47.2790 C.2   104  THR104      0.2313
     46  O         16.0760  -12.9420   48.3840 O.2   104  THR104     -0.2863
     47  CB        17.8240  -15.3340   47.6040 C.3   104  THR104      0.1794
     48  OG1       19.0860  -15.9660   47.3720 O.3   104  THR104     -0.2208
     49  CG2       16.7370  -16.0710   46.8290 C.3   104  THR104      0.0378
     50  N         10.4560  -12.1510   52.0570 N.3   109  ARG109     -0.1245
     51  CA        11.1570  -10.8740   52.1170 C.3   109  ARG109      0.1563
     52  C         10.4350   -9.7780   51.3560 C.2   109  ARG109      0.2260
     53  O         10.4270   -8.6270   51.7890 O.2   109  ARG109     -0.2867
     54  CB        12.5890  -11.0360   51.5720 C.3   109  ARG109      0.0307
     55  CG        13.4330  -11.9720   52.4190 C.3   109  ARG109      0.0489
     56  CD        14.7200  -12.3610   51.7220 C.3   109  ARG109      0.2205
     57  NE        15.5790  -13.1460   52.6180 N.pl3 109  ARG109     -0.0865
     58  CZ        16.7520  -13.6570   52.2690 C.cat 109  ARG109      0.5346
     59  NH1       17.1990  -13.4870   51.0340 N.pl3 109  ARG109      0.1354
     60  NH2       17.4750  -14.3340   53.1560 N.pl3 109  ARG109      0.1354
     61  N         23.2400  -27.4640   53.2240 N.3   157  VAL157     -0.1245
     62  CA        23.6520  -26.7600   54.4360 C.3   157  VAL157      0.1561
     63  C         22.3660  -26.3980   55.1550 C.2   157  VAL157      0.2260
     64  O         21.4980  -25.7500   54.5750 O.2   157  VAL157     -0.2867
     65  CB        24.4760  -25.4870   54.1140 C.3   157  VAL157      0.0252
     66  CG1       24.8470  -24.7200   55.4070 C.3   157  VAL157      0.0019
     67  CG2       25.7340  -25.8570   53.3500 C.3   157  VAL157      0.0019
     68  N         18.9160  -22.7830   56.5710 N.3   160  GLY160     -0.1210
     69  CA        18.6830  -21.6830   55.6560 C.3   160  GLY160      0.1956
     70  C         17.4980  -21.9110   54.7380 C.2   160  GLY160      0.2613
     71  O         16.6250  -22.7530   55.0180 O.2   160  GLY160     -0.2717
     72  N         17.4620  -21.1740   53.6290 N.am  161  SER161     -0.1938
     73  CA        16.3060  -21.2270   52.7410 C.3   161  SER161      0.2055
     74  C         16.2540  -22.4950   51.8750 C.2   161  SER161      0.2643
     75  O         15.1700  -22.9450   51.4870 O.2   161  SER161     -0.2714
     76  CB        16.2230  -19.9670   51.8800 C.3   161  SER161      0.2130
     77  OG        17.3370  -19.8790   51.0220 O.3   161  SER161     -0.2179
     78  N         17.4050  -23.0740   51.5580 N.am  162  THR162     -0.1950
     79  CA        17.3980  -24.3070   50.7750 C.3   162  THR162      0.1897
     80  C         16.7010  -25.4070   51.5550 C.2   162  THR162      0.2313
     81  O         15.7700  -26.0300   51.0480 O.2   162  THR162     -0.2863
     82  CB        18.8040  -24.7660   50.4310 C.3   162  THR162      0.1794
     83  OG1       19.5050  -23.6730   49.8390 O.3   162  THR162     -0.2208
     84  CG2       18.7530  -25.9180   49.4320 C.3   162  THR162      0.0378
     85  N         22.0840  -26.8650   46.7450 N.3   202  TYR202     -0.1227
     86  CA        22.3510  -25.5270   47.2710 C.3   202  TYR202      0.1736
     87  C         22.0110  -24.4240   46.2660 C.2   202  TYR202      0.2595
     88  O         21.5470  -24.7100   45.1670 O.2   202  TYR202     -0.2718
     89  CB        23.8210  -25.4060   47.7230 C.3   202  TYR202      0.0548
     90  CG        24.0150  -24.3110   48.7420 C.ar  202  TYR202     -0.0200
     91  CD1       23.2870  -24.3170   49.9250 C.ar  202  TYR202     -0.0009
     92  CD2       24.9020  -23.2660   48.5170 C.ar  202  TYR202     -0.0009
     93  CE1       23.4420  -23.3290   50.8670 C.ar  202  TYR202      0.0417
     94  CE2       25.0610  -22.2600   49.4460 C.ar  202  TYR202      0.0417
     95  CZ        24.3290  -22.2980   50.6220 C.ar  202  TYR202      0.1957
     96  OH        24.4700  -21.2950   51.5550 O.3   202  TYR202     -0.2866
     97  N         22.2220  -23.1730   46.6800 N.am  203  ASP203     -0.1974
     98  CA        22.0630  -21.9870   45.8380 C.3   203  ASP203      0.1709
     99  C         22.8110  -22.1080   44.5170 C.2   203  ASP203      0.2293
    100  O         24.0170  -22.3450   44.4950 O.2   203  ASP203     -0.2864
    101  CB        22.5840  -20.7540   46.5760 C.3   203  ASP203      0.1436
    102  CG        22.4860  -19.4830   45.7400 C.2   203  ASP203      0.3671
    103  OD1       21.3830  -18.9020   45.6850 O.co2 203  ASP203     -0.2456
    104  OD2       23.5020  -19.0500   45.1470 O.co2 203  ASP203     -0.2456
    105  N         19.3070  -12.8880   42.5750 N.3   233  TYR233     -0.1241
    106  CA        19.7470  -11.9580   43.6020 C.3   233  TYR233      0.1605
    107  C         19.2240  -10.6030   43.1560 C.2   233  TYR233      0.2264
    108  O         19.2140  -10.2930   41.9500 O.2   233  TYR233     -0.2867
    109  CB        21.2760  -11.8900   43.6670 C.3   233  TYR233      0.0534
    110  CG        21.9720  -13.1450   44.1510 C.ar  233  TYR233     -0.0201
    111  CD1       21.2890  -14.1510   44.8360 C.ar  233  TYR233     -0.0009
    112  CD2       23.3300  -13.3090   43.9360 C.ar  233  TYR233     -0.0009
    113  CE1       21.9630  -15.2980   45.2850 C.ar  233  TYR233      0.0417
    114  CE2       23.9960  -14.4320   44.3740 C.ar  233  TYR233      0.0417
    115  CZ        23.3160  -15.4150   45.0480 C.ar  233  TYR233      0.1957
    116  OH        24.0090  -16.5240   45.4650 O.3   233  TYR233     -0.2866
@<TRIPOS>BOND
     1   108   107    2
     2   105   106    1
     3   107   106    1
     4   106   109    1
     5   109   110    1
     6   112   110   ar
     7   112   114   ar
     8   110   111   ar
     9   114   115   ar
    10   100    99    2
    11    99    98    1
    12   111   113   ar
    13   115   113   ar
    14   115   116    1
    15   104   102   ar
    16    88    87    2
    17   103   102   ar
    18   102   101    1
    19    98   101    1
    20    98    97    1
    21    87    97   am
    22    87    86    1
    23    38    37    2
    24    85    86    1
    25    49    47    1
    26    44    45    1
    27    44    47    1
    28    44    43    1
    29    30    33    1
    30    30    29    1
    31    30    31    1
    32    86    89    1
    33    45    46    2
    34    48    47    1
    35    33    34    1
    36    37    43   am
    37    37    36    1
    38    35    31   am
    39    35    36    1
    40    89    90    1
    41    31    32    2
    42     4     3    2
    43    36    39    1
    44    92    90   ar
    45    92    94   ar
    46    90    91   ar
    47    39    40    1
    48     3     2    1
    49    84    82    1
    50    94    95   ar
    51     8     7   ar
    52    40    42    1
    53    40    41    1
    54    83    82    1
    55     6     7    1
    56     6     5    1
    57     7     9   ar
    58    91    93   ar
    59     5     2    1
    60    82    79    1
    61     2     1    1
    62    95    93   ar
    63    95    96    1
    64    79    80    1
    65    79    78    1
    66    77    76    1
    67    59    58    1
    68    81    80    2
    69    52    53    2
    70    52    51    1
    71    28    26   ar
    72    28    27   ar
    73    75    74    2
    74    78    74   am
    75    54    51    1
    76    54    55    1
    77    26    24   ar
    78    56    55    1
    79    56    57    1
    80    74    73    1
    81    76    73    1
    82    50    51    1
    83    58    57    2
    84    58    60    1
    85    27    25   ar
    86    24    25   ar
    87    24    23    1
    88    73    72    1
    89    61    62    1
    90    67    65    1
    91    23    20    1
    92    72    70   am
    93    65    62    1
    94    65    66    1
    95    62    63    1
    96    20    21    1
    97    20    19    1
    98    64    63    2
    99    22    21    2
   100    70    71    2
   101    70    69    1
   102    19    12   am
   103    69    68    1
   104    18    17    1
   105    12    13    2
   106    12    11    1
   107    14    11    1
   108    14    15    1
   109    17    16    1
   110    16    15    1
   111    11    10    1
