@<TRIPOS>MOLECULE
tmp/4nf6B00.pdb
 167 163 0 0 0
SMALL
GASTEIGER

@<TRIPOS>ATOM
      1  N          0.9600   12.1280  -52.7970 N.3    12  GLU12      -0.1231
      2  CA         0.5990   13.3990  -52.1990 C.3    12  GLU12       0.1699
      3  C          1.3120   13.6110  -50.8600 C.2    12  GLU12       0.2592
      4  O          0.7420   13.3410  -49.7990 O.2    12  GLU12      -0.2718
      5  CB        -0.9150   13.4790  -52.0130 C.3    12  GLU12       0.0402
      6  CG        -1.3840   14.8710  -51.7030 C.3    12  GLU12       0.1161
      7  CD        -2.7370   15.1710  -52.3020 C.2    12  GLU12       0.3649
      8  OE1       -3.7520   14.9160  -51.6150 O.co2  12  GLU12      -0.2457
      9  OE2       -2.7850   15.6660  -53.4550 O.co2  12  GLU12      -0.2457
     10  N          2.5590   14.0810  -50.9140 N.am   13  ALA13      -0.1966
     11  CA         3.3330   14.3320  -49.6970 C.3    13  ALA13       0.1713
     12  C          2.5690   15.2780  -48.7670 C.2    13  ALA13       0.2458
     13  O          1.9350   16.2240  -49.2390 O.2    13  ALA13      -0.2730
     14  CB         4.6890   14.9180  -50.0470 C.3    13  ALA13       0.0333
     15  N          2.6230   15.0340  -47.4440 N.am   14  PRO14      -0.2716
     16  CA         3.3660   13.9880  -46.7210 C.3    14  PRO14       0.1536
     17  C          2.5370   12.7320  -46.4790 C.2    14  PRO14       0.2598
     18  O          2.9900   11.8200  -45.7820 O.2    14  PRO14      -0.2715
     19  CB         3.6390   14.6470  -45.3670 C.3    14  PRO14       0.0310
     20  CG         2.3830   15.4810  -45.1380 C.3    14  PRO14       0.0237
     21  CD         1.9740   15.9840  -46.5150 C.3    14  PRO14       0.0939
     22  N          1.3300   12.6880  -47.0320 N.am   15  PHE15      -0.1974
     23  CA         0.4390   11.5490  -46.8000 C.3    15  PHE15       0.1639
     24  C          0.9070   10.2890  -47.5130 C.2    15  PHE15       0.2290
     25  O          0.8780    9.1990  -46.9430 O.2    15  PHE15      -0.2864
     26  CB        -0.9930   11.9040  -47.2040 C.3    15  PHE15       0.0560
     27  CG        -1.5510   13.0520  -46.4260 C.ar   15  PHE15      -0.0200
     28  CD1       -2.0180   12.8590  -45.1430 C.ar   15  PHE15      -0.0042
     29  CD2       -1.5640   14.3280  -46.9590 C.ar   15  PHE15      -0.0042
     30  CE1       -2.5100   13.9100  -44.4130 C.ar   15  PHE15      -0.0003
     31  CE2       -2.0590   15.3890  -46.2370 C.ar   15  PHE15      -0.0003
     32  CZ        -2.5340   15.1820  -44.9630 C.ar   15  PHE15      -0.0000
     33  N         -8.0080   12.1530  -56.5280 N.3    82  HIS82      -0.1241
     34  CA        -8.8290   11.5620  -55.4850 C.3    82  HIS82       0.1621
     35  C        -10.1240   10.9660  -56.0230 C.2    82  HIS82       0.2264
     36  O        -10.5150    9.8670  -55.6270 O.2    82  HIS82      -0.2867
     37  CB        -9.1040   12.5930  -54.4000 C.3    82  HIS82       0.0745
     38  CG        -7.8610   13.1660  -53.7950 C.ar   82  HIS82       0.0817
     39  ND1       -7.1910   14.2420  -54.3430 N.ar   82  HIS82      -0.2268
     40  CD2       -7.1560   12.8090  -52.6950 C.ar   82  HIS82       0.1154
     41  CE1       -6.1380   14.5300  -53.6000 C.ar   82  HIS82       0.1986
     42  NE2       -6.0910   13.6720  -52.5950 N.ar   82  HIS82      -0.2212
     43  N         -5.1620   10.8570  -48.8660 N.3   108  SER108     -0.1202
     44  CA        -5.7760   12.0690  -48.3400 C.3   108  SER108      0.2020
     45  C         -7.1660   12.2580  -48.9470 C.2   108  SER108      0.2619
     46  O         -7.4600   13.2730  -49.5660 O.2   108  SER108     -0.2717
     47  CB        -4.8920   13.2570  -48.6840 C.3   108  SER108      0.2103
     48  OG        -4.3640   13.0910  -49.9910 O.3   108  SER108     -0.2182
     49  N         -8.0200   11.2700  -48.7360 N.am  109  LEU109     -0.1965
     50  CA        -9.2880   11.1630  -49.4220 C.3   109  LEU109      0.1728
     51  C        -10.4190   11.7060  -48.5450 C.2   109  LEU109      0.2616
     52  O        -10.7940   11.0860  -47.5530 O.2   109  LEU109     -0.2715
     53  CB        -9.5290    9.6840  -49.7290 C.3   109  LEU109      0.0311
     54  CG       -10.6670    9.3480  -50.6760 C.3   109  LEU109      0.0022
     55  CD1      -10.4820   10.0840  -51.9850 C.3   109  LEU109      0.0001
     56  CD2      -10.6500    7.8510  -50.9000 C.3   109  LEU109      0.0001
     57  N        -10.9690   12.8570  -48.9150 N.am  110  THR110     -0.1951
     58  CA       -11.9590   13.5230  -48.0790 C.3   110  THR110      0.1897
     59  C        -13.3280   12.8150  -48.1480 C.2   110  THR110      0.2313
     60  O        -13.7920   12.4490  -49.2250 O.2   110  THR110     -0.2863
     61  CB       -12.0950   15.0180  -48.4740 C.3   110  THR110      0.1794
     62  OG1      -10.8440   15.6850  -48.2480 O.3   110  THR110     -0.2208
     63  CG2      -13.1800   15.6950  -47.6530 C.3   110  THR110      0.0378
     64  N        -19.5320   11.1320  -52.7120 N.3   115  ARG115     -0.1245
     65  CA       -18.7260    9.9070  -52.7770 C.3   115  ARG115      0.1563
     66  C        -19.3420    8.7880  -51.9520 C.2   115  ARG115      0.2260
     67  O        -19.2170    7.6140  -52.2940 O.2   115  ARG115     -0.2867
     68  CB       -17.2950   10.1680  -52.2870 C.3   115  ARG115      0.0307
     69  CG       -16.4240   10.9630  -53.2760 C.3   115  ARG115      0.0489
     70  CD       -15.2400   11.5990  -52.5750 C.3   115  ARG115      0.2205
     71  NE       -14.3800   12.3490  -53.4960 N.pl3 115  ARG115     -0.0865
     72  CZ       -13.2920   13.0090  -53.1130 C.cat 115  ARG115      0.5346
     73  NH1      -12.9260   12.9950  -51.8340 N.pl3 115  ARG115      0.1354
     74  NH2      -12.5620   13.6750  -53.9980 N.pl3 115  ARG115      0.1354
     75  N        -11.4330   23.2950  -57.2380 N.3   166  GLY166     -0.1210
     76  CA       -11.3860   22.2850  -56.1960 C.3   166  GLY166      0.1956
     77  C        -12.6300   22.3000  -55.3260 C.2   166  GLY166      0.2613
     78  O        -13.5920   23.0150  -55.6100 O.2   166  GLY166     -0.2717
     79  N        -12.6110   21.5170  -54.2550 N.am  167  SER167     -0.1938
     80  CA       -13.8070   21.3000  -53.4420 C.3   167  SER167      0.2055
     81  C        -14.1480   22.5100  -52.5990 C.2   167  SER167      0.2643
     82  O        -15.3160   22.7550  -52.3030 O.2   167  SER167     -0.2714
     83  CB       -13.6140   20.0920  -52.5240 C.3   167  SER167      0.2130
     84  OG       -12.5050   20.3050  -51.6570 O.3   167  SER167     -0.2179
     85  N        -13.1350   23.2540  -52.1780 N.am  168  THR168     -0.1950
     86  CA       -13.3950   24.4660  -51.4070 C.3   168  THR168      0.1897
     87  C        -14.2040   25.4430  -52.2640 C.2   168  THR168      0.2313
     88  O        -15.2620   25.9110  -51.8440 O.2   168  THR168     -0.2863
     89  CB       -12.0830   25.1280  -50.9200 C.3   168  THR168      0.1794
     90  OG1      -11.3830   24.2140  -50.0800 O.3   168  THR168     -0.2208
     91  CG2      -12.3650   26.3740  -50.1310 C.3   168  THR168      0.0378
     92  N         -1.4080   26.2110  -53.7120 N.3   191  VAL191     -0.1231
     93  CA        -1.1370   26.4840  -52.3040 C.3   191  VAL191      0.1692
     94  C          0.1450   27.3030  -52.1050 C.2   191  VAL191      0.2591
     95  O          0.1570   28.2740  -51.3420 O.2   191  VAL191     -0.2718
     96  CB        -1.0790   25.1650  -51.5080 C.3   191  VAL191      0.0266
     97  CG1       -0.5800   25.3990  -50.1010 C.3   191  VAL191      0.0020
     98  CG2       -2.4700   24.5090  -51.4850 C.3   191  VAL191      0.0020
     99  N          1.2070   26.9260  -52.8150 N.am  192  GLU192     -0.1979
    100  CA         2.4880   27.6260  -52.7210 C.3   192  GLU192      0.1602
    101  C          2.3790   29.1070  -53.0600 C.2   192  GLU192      0.2287
    102  O          2.8780   29.9560  -52.3230 O.2   192  GLU192     -0.2864
    103  CB         3.5470   26.9640  -53.6110 C.3   192  GLU192      0.0415
    104  CG         3.7850   25.4910  -53.2960 C.3   192  GLU192      0.1163
    105  CD         4.0390   25.2320  -51.8130 C.2   192  GLU192      0.3649
    106  OE1        4.6400   26.1090  -51.1370 O.co2 192  GLU192     -0.2457
    107  OE2        3.6350   24.1450  -51.3290 O.co2 192  GLU192     -0.2457
    108  N         -9.0720   27.2080  -47.5960 N.3   208  TYR208     -0.1227
    109  CA        -8.6790   25.9130  -48.1530 C.3   208  TYR208      0.1736
    110  C         -8.9150   24.7590  -47.1720 C.2   208  TYR208      0.2595
    111  O         -9.3660   24.9770  -46.0470 O.2   208  TYR208     -0.2718
    112  CB        -7.1960   25.9480  -48.5580 C.3   208  TYR208      0.0548
    113  CG        -6.8610   25.0740  -49.7460 C.ar  208  TYR208     -0.0200
    114  CD1       -7.4510   25.2990  -50.9910 C.ar  208  TYR208     -0.0009
    115  CD2       -5.9650   24.0260  -49.6260 C.ar  208  TYR208     -0.0009
    116  CE1       -7.1530   24.5090  -52.0710 C.ar  208  TYR208      0.0417
    117  CE2       -5.6670   23.2210  -50.7050 C.ar  208  TYR208      0.0417
    118  CZ        -6.2560   23.4690  -51.9250 C.ar  208  TYR208      0.1957
    119  OH        -5.9470   22.6700  -53.0000 O.3   208  TYR208     -0.2866
    120  N         -8.5930   23.5460  -47.6190 N.am  209  ASP209     -0.1974
    121  CA        -8.6780   22.3260  -46.8070 C.3   209  ASP209      0.1709
    122  C         -7.8990   22.4830  -45.5030 C.2   209  ASP209      0.2293
    123  O         -6.7390   22.9160  -45.5050 O.2   209  ASP209     -0.2864
    124  CB        -8.1380   21.1340  -47.6140 C.3   209  ASP209      0.1436
    125  CG        -8.0440   19.8480  -46.7930 C.2   209  ASP209      0.3671
    126  OD1       -9.0430   19.0960  -46.7260 O.co2 209  ASP209     -0.2456
    127  OD2       -6.9670   19.5840  -46.2160 O.co2 209  ASP209     -0.2456
    128  N         -4.4920   20.4320  -44.9330 N.3   212  VAL212     -0.1245
    129  CA        -3.4210   21.0250  -45.7320 C.3   212  VAL212      0.1561
    130  C         -2.9030   22.3160  -45.0870 C.2   212  VAL212      0.2260
    131  O         -1.6970   22.4890  -44.9130 O.2   212  VAL212     -0.2867
    132  CB        -3.8800   21.3150  -47.1810 C.3   212  VAL212      0.0252
    133  CG1       -2.8380   22.1350  -47.9200 C.3   212  VAL212      0.0019
    134  CG2       -4.1610   20.0100  -47.9240 C.3   212  VAL212      0.0019
    135  N         -0.9130   21.6800  -41.9270 N.3   215  TYR215     -0.1227
    136  CA         0.4080   21.2030  -42.3270 C.3   215  TYR215      0.1736
    137  C          1.3230   22.3680  -42.7070 C.2   215  TYR215      0.2595
    138  O          2.4480   22.4750  -42.2220 O.2   215  TYR215     -0.2718
    139  CB         0.3040   20.2310  -43.5010 C.3   215  TYR215      0.0548
    140  CG         1.6470   19.7530  -44.0210 C.ar  215  TYR215     -0.0200
    141  CD1        2.4680   18.9430  -43.2400 C.ar  215  TYR215     -0.0009
    142  CD2        2.0930   20.1120  -45.2860 C.ar  215  TYR215     -0.0009
    143  CE1        3.7020   18.5030  -43.7050 C.ar  215  TYR215      0.0417
    144  CE2        3.3250   19.6710  -45.7690 C.ar  215  TYR215      0.0417
    145  CZ         4.1250   18.8690  -44.9700 C.ar  215  TYR215      0.1957
    146  OH         5.3420   18.4300  -45.4380 O.3   215  TYR215     -0.2866
    147  N          0.8300   23.2420  -43.5780 N.am  216  LYS216     -0.1980
    148  CA         1.6210   24.3840  -44.0230 C.3   216  LYS216      0.1596
    149  C          1.9800   25.3550  -42.8870 C.2   216  LYS216      0.2287
    150  O          3.1270   25.8100  -42.7950 O.2   216  LYS216     -0.2864
    151  CB         0.9150   25.1080  -45.1720 C.3   216  LYS216      0.0298
    152  CG         0.9970   24.3510  -46.4930 C.3   216  LYS216      0.0038
    153  CD         2.4530   24.1220  -46.8540 C.3   216  LYS216      0.0206
    154  CE         2.6320   23.6380  -48.2780 C.3   216  LYS216      0.1093
    155  NZ         4.0780   23.3890  -48.5940 N.3   216  LYS216     -0.1314
    156  N        -10.4970   12.7950  -43.5400 N.3   239  TYR239     -0.1241
    157  CA        -9.9930   11.8660  -44.5450 C.3   239  TYR239      0.1605
    158  C        -10.3490   10.4870  -44.0340 C.2   239  TYR239      0.2264
    159  O        -10.1990   10.2060  -42.8420 O.2   239  TYR239     -0.2867
    160  CB        -8.4710   11.9340  -44.7070 C.3   239  TYR239      0.0534
    161  CG        -7.9060   13.2710  -45.1620 C.ar  239  TYR239     -0.0201
    162  CD1       -8.7280   14.2890  -45.6550 C.ar  239  TYR239     -0.0009
    163  CD2       -6.5350   13.5040  -45.1190 C.ar  239  TYR239     -0.0009
    164  CE1       -8.1850   15.5090  -46.0730 C.ar  239  TYR239      0.0417
    165  CE2       -5.9910   14.7170  -45.5320 C.ar  239  TYR239      0.0417
    166  CZ        -6.8100   15.7070  -46.0040 C.ar  239  TYR239      0.1957
    167  OH        -6.2380   16.8950  -46.4030 O.3   239  TYR239     -0.2866
@<TRIPOS>BOND
     1    75    76    1
     2    33    34    1
     3    76    77    1
     4    35    36    2
     5    35    34    1
     6    78    77    2
     7    34    37    1
     8    77    79   am
     9    37    38    1
    10    39    38   ar
    11    39    41   ar
    12    79    80    1
    13    74    72    1
    14    38    40   ar
    15    92    93    1
    16   103   104    1
    17   103   100    1
    18    41    42   ar
    19    71    72    2
    20    71    70    1
    21     9     7   ar
    22    80    81    1
    23    80    83    1
    24   104   105    1
    25    69    70    1
    26    69    68    1
    27    72    73    1
    28   101   100    1
    29   101   102    2
    30   119   118    1
    31    99   100    1
    32    99    94   am
    33     1     2    1
    34    65    64    1
    35    65    68    1
    36    65    66    1
    37    40    42   ar
    38    81    82    2
    39    81    85   am
    40    83    84    1
    41    93    94    1
    42    93    96    1
    43     7     6    1
    44     7     8   ar
    45    67    66    2
    46    87    88    2
    47    87    86    1
    48     2     5    1
    49     2     3    1
    50    85    86    1
    51    94    95    2
    52   116   118   ar
    53   116   114   ar
    54     5     6    1
    55    55    54    1
    56   118   117   ar
    57   105   107   ar
    58   105   106   ar
    59    96    98    1
    60    96    97    1
    61    86    89    1
    62   114   113   ar
    63    89    91    1
    64    89    90    1
    65    10     3   am
    66    10    11    1
    67    56    54    1
    68     3     4    2
    69   117   115   ar
    70    54    53    1
    71    14    11    1
    72    48    47    1
    73   113   115   ar
    74   113   112    1
    75    53    50    1
    76    11    12    1
    77    46    45    2
    78    50    49    1
    79    50    51    1
    80    13    12    2
    81    60    59    2
    82    45    49   am
    83    45    44    1
    84    57    51   am
    85    57    58    1
    86    43    44    1
    87    12    15   am
    88    47    44    1
    89   155   154    1
    90   112   109    1
    91    51    52    2
    92    61    62    1
    93    61    58    1
    94    61    63    1
    95   154   153    1
    96   109   108    1
    97   109   110    1
    98    59    58    1
    99   134   132    1
   100   133   132    1
   101   120   110   am
   102   120   121    1
   103   124   121    1
   104   124   125    1
   105    24    25    2
   106    24    23    1
   107    15    16    1
   108    15    21    1
   109    26    23    1
   110    26    27    1
   111   132   129    1
   112   110   111    2
   113    22    23    1
   114    22    17   am
   115    29    27   ar
   116    29    31   ar
   117   153   152    1
   118   121   122    1
   119   125   126   ar
   120   125   127   ar
   121    16    17    1
   122    16    19    1
   123    21    20    1
   124   152   151    1
   125    17    18    2
   126    27    28   ar
   127   167   166    1
   128    31    32   ar
   129   164   166   ar
   130   164   162   ar
   131   166   165   ar
   132   144   142   ar
   133   144   145   ar
   134   129   130    1
   135   129   128    1
   136   162   161   ar
   137   165   163   ar
   138   123   122    2
   139   146   145    1
   140    19    20    1
   141   142   140   ar
   142   151   148    1
   143   161   163   ar
   144   161   160    1
   145    28    30   ar
   146   130   131    2
   147   145   143   ar
   148    32    30   ar
   149   160   157    1
   150   157   158    1
   151   157   156    1
   152   158   159    2
   153   148   147    1
   154   148   149    1
   155   140   139    1
   156   140   141   ar
   157   143   141   ar
   158   147   137   am
   159   139   136    1
   160   149   150    2
   161   137   136    1
   162   137   138    2
   163   136   135    1
