@<TRIPOS>MOLECULE
tmp/4nf9A00.pdb
 150 145 0 0 0
SMALL
GASTEIGER

@<TRIPOS>ATOM
      1  N         22.6720  -16.9500  -17.0410 N.3    29  VAL29      -0.1231
      2  CA        23.7250  -17.1340  -18.0350 C.3    29  VAL29       0.1692
      3  C         24.0520  -18.6160  -18.3250 C.2    29  VAL29       0.2592
      4  O         25.1570  -19.0550  -18.0640 O.2    29  VAL29      -0.2718
      5  CB        24.9840  -16.4120  -17.5770 C.3    29  VAL29       0.0266
      6  CG1       26.0260  -16.4270  -18.6850 C.3    29  VAL29       0.0020
      7  CG2       24.5890  -14.9990  -17.2080 C.3    29  VAL29       0.0020
      8  N         23.1340  -19.3970  -18.8640 N.am   30  TYR30      -0.1962
      9  CA        23.4960  -20.8110  -19.0610 C.3    30  TYR30       0.1771
     10  C         23.8240  -21.4720  -17.7250 C.2    30  TYR30       0.2620
     11  O         24.4590  -22.5220  -17.7110 O.2    30  TYR30      -0.2715
     12  CB        24.6090  -20.9980  -20.1050 C.3    30  TYR30       0.0574
     13  CG        24.3250  -20.0660  -21.2440 C.ar   30  TYR30      -0.0198
     14  CD1       23.4430  -20.4020  -22.3070 C.ar   30  TYR30      -0.0009
     15  CD2       24.8360  -18.7760  -21.2090 C.ar   30  TYR30      -0.0009
     16  CE1       23.1300  -19.4720  -23.3000 C.ar   30  TYR30       0.0417
     17  CE2       24.5360  -17.8280  -22.1920 C.ar   30  TYR30       0.0417
     18  CZ        23.6860  -18.1600  -23.2210 C.ar   30  TYR30       0.1957
     19  OH        23.4820  -17.1460  -24.1160 O.3    30  TYR30      -0.2866
     20  N         23.3750  -20.8970  -16.6160 N.am   31  ASP31      -0.1957
     21  CA        23.5270  -21.5170  -15.2920 C.3    31  ASP31       0.1840
     22  C         24.8520  -21.3670  -14.6640 C.2    31  ASP31       0.2622
     23  O         25.1360  -21.9680  -13.6980 O.2    31  ASP31      -0.2715
     24  CB        23.2700  -23.0040  -15.3200 C.3    31  ASP31       0.1450
     25  CG        22.1810  -23.3420  -16.1730 C.2    31  ASP31       0.3671
     26  OD1       22.1000  -22.7010  -17.2460 O.co2  31  ASP31      -0.2456
     27  OD2       21.4120  -24.2090  -15.7490 O.co2  31  ASP31      -0.2456
     28  N         25.6850  -20.5640  -15.2330 N.am   32  THR32      -0.1951
     29  CA        26.9690  -20.3240  -14.6400 C.3    32  THR32       0.1897
     30  C         26.8450  -19.3180  -13.4790 C.2    32  THR32       0.2313
     31  O         27.7000  -19.3350  -12.6090 O.2    32  THR32      -0.2863
     32  CB        27.9690  -19.8260  -15.6900 C.3    32  THR32       0.1794
     33  OG1       27.4800  -18.6110  -16.2820 O.3    32  THR32      -0.2208
     34  CG2       28.1600  -20.9300  -16.7600 C.3    32  THR32       0.0378
     35  N         26.4260  -16.6140   -6.7720 N.3    62  GLN62      -0.1231
     36  CA        27.6410  -17.4530   -7.0400 C.3    62  GLN62       0.1698
     37  C         27.9990  -17.4640   -8.5360 C.2    62  GLN62       0.2593
     38  O         27.1040  -17.4990   -9.3440 O.2    62  GLN62      -0.2718
     39  CB        27.4110  -18.8970   -6.5820 C.3    62  GLN62       0.0381
     40  CG        27.7050  -19.1680   -5.1230 C.3    62  GLN62       0.0905
     41  CD        28.6240  -20.4200   -4.9890 C.2    62  GLN62       0.2608
     42  OE1       28.2070  -21.5820   -5.1490 O.2    62  GLN62      -0.2717
     43  NE2       29.9050  -20.1700   -4.7200 N.am   62  GLN62      -0.0878
     44  N         29.2760  -17.4130   -8.9180 N.am   63  SER63      -0.1938
     45  CA        29.7070  -17.7040  -10.2920 C.3    63  SER63       0.2055
     46  C         30.1360  -19.1750  -10.3530 C.2    63  SER63       0.2643
     47  O         30.8940  -19.6300   -9.5320 O.2    63  SER63      -0.2714
     48  CB        30.8910  -16.8180  -10.7140 C.3    63  SER63       0.2130
     49  OG        31.4530  -17.1970  -11.9650 O.3    63  SER63      -0.2179
     50  N         29.6490  -19.9180  -11.3180 N.am   64  LEU64      -0.1963
     51  CA        29.9780  -21.3590  -11.3960 C.3    64  LEU64       0.1728
     52  C         30.6960  -21.5630  -12.6960 C.2    64  LEU64       0.2616
     53  O         30.7840  -22.7030  -13.1720 O.2    64  LEU64      -0.2715
     54  CB        28.7460  -22.2670  -11.3930 C.3    64  LEU64       0.0311
     55  CG        28.1030  -22.4400  -10.0200 C.3    64  LEU64       0.0022
     56  CD1       27.4690  -21.1510   -9.4580 C.3    64  LEU64       0.0001
     57  CD2       27.0570  -23.5190  -10.1310 C.3    64  LEU64       0.0001
     58  N         31.2020  -20.4580  -13.2560 N.am   65  LEU65      -0.1963
     59  CA        31.8890  -20.5280  -14.5360 C.3    65  LEU65       0.1728
     60  C         33.1920  -21.2460  -14.3770 C.2    65  LEU65       0.2616
     61  O         33.8650  -20.9670  -13.4180 O.2    65  LEU65      -0.2715
     62  CB        32.1810  -19.1260  -15.0610 C.3    65  LEU65       0.0311
     63  CG        32.8550  -18.9770  -16.4190 C.3    65  LEU65       0.0022
     64  CD1       32.1370  -19.7630  -17.5090 C.3    65  LEU65       0.0001
     65  CD2       32.8910  -17.4860  -16.7480 C.3    65  LEU65       0.0001
     66  N         33.5710  -22.1330  -15.3100 N.am   66  ASP66      -0.1971
     67  CA        34.9230  -22.7210  -15.2830 C.3    66  ASP66       0.1709
     68  C         36.0150  -21.7230  -15.7640 C.2    66  ASP66       0.2293
     69  O         36.2840  -21.5810  -16.9660 O.2    66  ASP66      -0.2864
     70  CB        34.9150  -24.0220  -16.0660 C.3    66  ASP66       0.1436
     71  CG        36.2230  -24.7490  -16.0190 C.2    66  ASP66       0.3671
     72  OD1       37.2310  -24.1810  -15.5680 O.co2  66  ASP66      -0.2456
     73  OD2       36.2660  -25.9270  -16.4490 O.co2  66  ASP66      -0.2456
     74  N         38.6860  -22.9560  -18.2850 N.3    69  GLN69      -0.1231
     75  CA        38.1610  -23.3010  -19.5980 C.3    69  GLN69       0.1698
     76  C         37.5050  -22.1820  -20.3220 C.2    69  GLN69       0.2592
     77  O         37.5380  -22.1910  -21.5210 O.2    69  GLN69      -0.2718
     78  CB        37.1810  -24.4980  -19.5510 C.3    69  GLN69       0.0381
     79  CG        37.8300  -25.8060  -19.2030 C.3    69  GLN69       0.0905
     80  CD        39.0400  -26.0420  -20.0560 C.2    69  GLN69       0.2608
     81  OE1       38.9380  -26.0110  -21.2810 O.2    69  GLN69      -0.2717
     82  NE2       40.2020  -26.2700  -19.4270 N.am   69  GLN69      -0.0878
     83  N         36.8980  -21.2270  -19.6230 N.am   70  ALA70      -0.1966
     84  CA        36.2250  -20.0530  -20.2950 C.3    70  ALA70       0.1713
     85  C         37.1360  -19.2240  -21.1450 C.2    70  ALA70       0.2458
     86  O         38.2700  -19.0780  -20.8210 O.2    70  ALA70      -0.2730
     87  CB        35.5800  -19.1190  -19.2790 C.3    70  ALA70       0.0333
     88  N         36.5790  -18.6900  -22.2290 N.am   71  PRO71      -0.2727
     89  CA        37.2050  -17.6560  -23.0560 C.3    71  PRO71       0.1402
     90  C         37.1270  -16.3030  -22.3540 C.2    71  PRO71       0.2269
     91  O         36.3410  -16.1490  -21.4190 O.2    71  PRO71      -0.2865
     92  CB        36.3380  -17.6480  -24.3150 C.3    71  PRO71       0.0296
     93  CG        35.7970  -19.0340  -24.4010 C.3    71  PRO71       0.0237
     94  CD        35.5870  -19.4790  -22.9810 C.3    71  PRO71       0.0939
     95  N         33.6110  -14.3200  -21.9530 N.3    74  SER74      -0.1217
     96  CA        32.7070  -14.8930  -20.9720 C.3    74  SER74       0.1889
     97  C         33.1790  -14.4310  -19.6070 C.2    74  SER74       0.2288
     98  O         32.3740  -13.8540  -18.8280 O.2    74  SER74      -0.2866
     99  CB        32.6590  -16.4190  -21.1160 C.3    74  SER74       0.2089
    100  OG        31.8960  -16.8120  -22.2920 O.3    74  SER74      -0.2183
    101  N         32.2300  -11.0220  -18.8480 N.3    77  VAL77      -0.1231
    102  CA        30.8030  -10.9540  -18.5510 C.3    77  VAL77       0.1692
    103  C         30.6030  -11.1530  -17.0530 C.2    77  VAL77       0.2592
    104  O         30.1110  -10.2400  -16.3680 O.2    77  VAL77      -0.2718
    105  CB        29.9850  -11.9400  -19.4100 C.3    77  VAL77       0.0266
    106  CG1       28.5110  -11.9050  -19.0660 C.3    77  VAL77       0.0020
    107  CG2       30.1530  -11.5790  -20.8640 C.3    77  VAL77       0.0020
    108  N         31.0300  -12.3060  -16.5300 N.am   78  HIS78      -0.1976
    109  CA        31.1130  -12.4490  -15.0800 C.3    78  HIS78       0.1656
    110  C         31.8170  -11.2950  -14.3630 C.2    78  HIS78       0.2291
    111  O         31.3170  -10.8370  -13.3440 O.2    78  HIS78      -0.2864
    112  CB        31.6880  -13.7850  -14.6810 C.3    78  HIS78       0.0771
    113  CG        30.7610  -14.9440  -14.9400 C.ar   78  HIS78       0.0820
    114  ND1       30.7110  -16.0430  -14.1330 N.ar   78  HIS78      -0.2267
    115  CD2       29.8590  -15.1800  -15.9600 C.ar   78  HIS78       0.1154
    116  CE1       29.8100  -16.9140  -14.6000 C.ar   78  HIS78       0.1986
    117  NE2       29.2710  -16.4000  -15.7110 N.ar   78  HIS78      -0.2212
    118  N         25.5860  -10.0250  -20.8000 N.3   115  ARG115     -0.1245
    119  CA        25.6700  -11.2350  -21.6180 C.3   115  ARG115      0.1563
    120  C         25.7620  -10.9560  -23.1000 C.2   115  ARG115      0.2260
    121  O         26.5340  -11.6230  -23.8050 O.2   115  ARG115     -0.2867
    122  CB        24.4490  -12.1060  -21.3590 C.3   115  ARG115      0.0307
    123  CG        24.5600  -13.5430  -21.8030 C.3   115  ARG115      0.0489
    124  CD        23.2770  -14.2600  -21.3920 C.3   115  ARG115      0.2205
    125  NE        22.0580  -13.5320  -21.7710 N.pl3 115  ARG115     -0.0865
    126  CZ        21.5050  -13.5700  -22.9850 C.cat 115  ARG115      0.5346
    127  NH1       22.0700  -14.3000  -23.9530 N.pl3 115  ARG115      0.1354
    128  NH2       20.4040  -12.8670  -23.2350 N.pl3 115  ARG115      0.1354
    129  N         29.0690   -9.7460  -24.2360 N.3   118  GLY118     -0.1210
    130  CA        29.8690  -10.9680  -24.4450 C.3   118  GLY118      0.1956
    131  C         29.7440  -11.4850  -25.8470 C.2   118  GLY118      0.2611
    132  O         30.7450  -11.7410  -26.5330 O.2   118  GLY118     -0.2717
    133  N         28.4930  -11.6020  -26.2700 N.am  119  GLU119     -0.1979
    134  CA        28.1650  -11.9020  -27.6530 C.3   119  GLU119      0.1602
    135  C         28.8290  -10.9960  -28.7150 C.2   119  GLU119      0.2287
    136  O         29.4320  -11.5340  -29.6590 O.2   119  GLU119     -0.2864
    137  CB        26.6450  -11.9500  -27.8200 C.3   119  GLU119      0.0415
    138  CG        26.0510  -13.3230  -27.5490 C.3   119  GLU119      0.1163
    139  CD        24.5620  -13.4170  -27.8570 C.2   119  GLU119      0.3649
    140  OE1       23.9650  -12.4470  -28.4030 O.co2 119  GLU119     -0.2457
    141  OE2       23.9970  -14.4850  -27.5390 O.co2 119  GLU119     -0.2457
    142  N         32.6440  -11.9070  -28.9160 N.3   122  GLU122     -0.1245
    143  CA        32.8500  -13.1130  -29.7350 C.3   122  GLU122      0.1567
    144  C         32.6160  -12.8940  -31.2430 C.2   122  GLU122      0.2260
    145  O         33.2760  -13.5300  -32.0850 O.2   122  GLU122     -0.2867
    146  CB        31.9620  -14.2710  -29.3210 C.3   122  GLU122      0.0388
    147  CG        32.3720  -15.0430  -28.0790 C.3   122  GLU122      0.1160
    148  CD        33.8500  -15.4280  -27.9730 C.2   122  GLU122      0.3649
    149  OE1       34.4570  -15.9280  -28.9490 O.co2 122  GLU122     -0.2457
    150  OE2       34.4100  -15.2470  -26.8590 O.co2 122  GLU122     -0.2457
@<TRIPOS>BOND
     1   145   144    2
     2   144   143    1
     3   143   146    1
     4   143   142    1
     5   136   135    2
     6   146   147    1
     7   149   148   ar
     8   135   134    1
     9   140   139   ar
    10   147   148    1
    11   148   150   ar
    12   139   138    1
    13   139   141   ar
    14   137   134    1
    15   137   138    1
    16   134   133    1
    17   132   131    2
    18   133   131   am
    19   131   130    1
    20   130   129    1
    21    93    92    1
    22    93    94    1
    23    92    89    1
    24    19    18    1
    25   127   126    1
    26   121   120    2
    27    16    18   ar
    28    16    14   ar
    29   128   126    1
    30    18    17   ar
    31   120   119    1
    32    89    90    1
    33    89    88    1
    34   126   125    2
    35    94    88    1
    36    90    91    2
    37    14    13   ar
    38   100    99    1
    39    88    85   am
    40    17    15   ar
    41    95    96    1
    42   123   124    1
    43   123   122    1
    44   125   124    1
    45   119   122    1
    46   119   118    1
    47    77    76    2
    48    81    80    2
    49    13    15   ar
    50    13    12    1
    51    85    86    2
    52    85    84    1
    53    99    96    1
    54    96    97    1
    55   107   105    1
    56    76    83   am
    57    76    75    1
    58    84    83    1
    59    84    87    1
    60    12     9    1
    61    80    82   am
    62    80    79    1
    63    97    98    2
    64    75    78    1
    65    75    74    1
    66    78    79    1
    67   105   106    1
    68   105   102    1
    69     9     8    1
    70     9    10    1
    71     8     3   am
    72   101   102    1
    73     6     5    1
    74   102   103    1
    75     3     4    2
    76     3     2    1
    77     2     5    1
    78     2     1    1
    79    10    11    2
    80    10    20   am
    81     5     7    1
    82    64    63    1
    83    26    25   ar
    84   103   108   am
    85   103   104    2
    86    69    68    2
    87    34    32    1
    88    65    63    1
    89    20    21    1
    90   108   109    1
    91    73    71   ar
    92    63    62    1
    93    33    32    1
    94    25    27   ar
    95    25    24    1
    96    70    71    1
    97    70    67    1
    98    71    72   ar
    99   115   117   ar
   100   115   113   ar
   101    68    67    1
   102   117   116   ar
   103    32    29    1
   104    24    21    1
   105    66    67    1
   106    66    60   am
   107    21    22    1
   108    28    22   am
   109    28    29    1
   110   109   112    1
   111   109   110    1
   112    62    59    1
   113   113   112    1
   114   113   114   ar
   115    22    23    2
   116    29    30    1
   117   116   114   ar
   118    59    60    1
   119    59    58    1
   120    60    61    2
   121   110   111    2
   122    30    31    2
   123    58    52   am
   124    53    52    2
   125    52    51    1
   126    49    48    1
   127    51    54    1
   128    51    50    1
   129    54    55    1
   130    50    46   am
   131    48    45    1
   132    46    45    1
   133    46    47    2
   134    45    44    1
   135    57    55    1
   136    55    56    1
   137    38    37    2
   138    44    37   am
   139    37    36    1
   140    36    35    1
   141    36    39    1
   142    39    40    1
   143    42    41    2
   144    40    41    1
   145    41    43   am
