@<TRIPOS>MOLECULE
tmp/4nfjA00.pdb
 224 209 0 0 0
SMALL
GASTEIGER

@<TRIPOS>ATOM
      1  N          2.6660   30.6950   -3.2660 N.3    53  ARG53      -0.1245
      2  CA         2.8140   29.2910   -3.6390 C.3    53  ARG53       0.1563
      3  C          2.1020   28.4550   -2.6120 C.2    53  ARG53       0.2260
      4  O          1.3390   27.5930   -2.9560 O.2    53  ARG53      -0.2867
      5  CB         4.2870   28.9170   -3.7360 C.3    53  ARG53       0.0307
      6  CG         5.0370   29.5890   -4.8710 C.3    53  ARG53       0.0489
      7  CD         6.5400   29.3190   -4.6870 C.3    53  ARG53       0.2205
      8  NE         7.3650   30.1260   -5.5860 N.pl3  53  ARG53      -0.0865
      9  CZ         7.7800   31.3660   -5.3600 C.cat  53  ARG53       0.5346
     10  NH1        7.4400   32.0360   -4.2630 N.pl3  53  ARG53       0.1354
     11  NH2        8.5200   31.9750   -6.2880 N.pl3  53  ARG53       0.1354
     12  N         10.4200   26.7820   -0.9760 N.3    89  GLN89      -0.1245
     13  CA        10.8800   28.0720   -1.4170 C.3    89  GLN89       0.1566
     14  C         11.9840   28.6610   -0.5380 C.2    89  GLN89       0.2260
     15  O         12.9110   29.2400   -1.0300 O.2    89  GLN89      -0.2867
     16  CB         9.7180   29.0070   -1.4290 C.3    89  GLN89       0.0367
     17  CG         9.9850   30.4710   -1.6400 C.3    89  GLN89       0.0905
     18  CD        10.4780   30.7980   -3.0060 C.2    89  GLN89       0.2608
     19  OE1       10.7080   29.9770   -3.8550 O.2    89  GLN89      -0.2717
     20  NE2       10.6380   32.0150   -3.2120 N.am   89  GLN89      -0.0878
     21  N         14.1770   27.0800    1.4330 N.3    91  PHE91      -0.1227
     22  CA        15.3760   26.3260    1.0530 C.3    91  PHE91       0.1736
     23  C         16.0310   26.9040   -0.1880 C.2    91  PHE91       0.2595
     24  O         17.2410   27.2160   -0.2000 O.2    91  PHE91      -0.2718
     25  CB        14.9570   24.8450    0.8800 C.3    91  PHE91       0.0547
     26  CG        15.8780   23.9980    0.0540 C.ar   91  PHE91      -0.0202
     27  CD1       17.1920   23.8440    0.3940 C.ar   91  PHE91      -0.0042
     28  CD2       15.3920   23.2830   -1.0120 C.ar   91  PHE91      -0.0042
     29  CE1       18.0540   23.0420   -0.3550 C.ar   91  PHE91      -0.0003
     30  CE2       16.2180   22.4430   -1.7350 C.ar   91  PHE91      -0.0003
     31  CZ        17.5460   22.3060   -1.3990 C.ar   91  PHE91      -0.0000
     32  N         15.2430   27.0610   -1.2520 N.am   92  PHE92      -0.1962
     33  CA        15.8050   27.4730   -2.5380 C.3    92  PHE92       0.1771
     34  C         16.4010   28.9030   -2.4720 C.2    92  PHE92       0.2619
     35  O         17.4660   29.2160   -3.0660 O.2    92  PHE92      -0.2715
     36  CB        14.6960   27.4890   -3.5770 C.3    92  PHE92       0.0574
     37  CG        14.2430   26.1230   -4.0510 C.ar   92  PHE92      -0.0200
     38  CD1       15.0880   24.9940   -3.9990 C.ar   92  PHE92      -0.0042
     39  CD2       12.9930   25.9890   -4.6580 C.ar   92  PHE92      -0.0042
     40  CE1       14.6590   23.7550   -4.4760 C.ar   92  PHE92      -0.0003
     41  CE2       12.5850   24.7740   -5.1580 C.ar   92  PHE92      -0.0003
     42  CZ        13.4110   23.6600   -5.0610 C.ar   92  PHE92      -0.0000
     43  N         15.6800   29.8080   -1.8120 N.am   93  LEU93      -0.1977
     44  CA        16.1210   31.1870   -1.8100 C.3    93  LEU93       0.1596
     45  C         17.3660   31.3710   -0.9330 C.2    93  LEU93       0.2287
     46  O         18.2280   32.1690   -1.2240 O.2    93  LEU93      -0.2864
     47  CB        14.9590   32.1050   -1.3820 C.3    93  LEU93       0.0297
     48  CG        14.4720   32.1610    0.0770 C.3    93  LEU93       0.0022
     49  CD1       15.4130   32.9450    1.0390 C.3    93  LEU93       0.0001
     50  CD2       13.0450   32.7360    0.2320 C.3    93  LEU93       0.0001
     51  N         19.7810   29.2940   -0.3920 N.3    95  ALA95      -0.1231
     52  CA        20.9070   28.8200   -1.1930 C.3    95  ALA95       0.1694
     53  C         21.1760   29.7020   -2.4160 C.2    95  ALA95       0.2592
     54  O         22.3250   29.9000   -2.8290 O.2    95  ALA95      -0.2718
     55  CB        20.6670   27.3860   -1.6370 C.3    95  ALA95       0.0304
     56  N         20.1150   30.1420   -3.0660 N.am   96  ASP96      -0.1960
     57  CA        20.2310   30.9620   -4.2780 C.3    96  ASP96       0.1840
     58  C         20.8690   32.3160   -3.9470 C.2    96  ASP96       0.2622
     59  O         21.6900   32.8110   -4.7100 O.2    96  ASP96      -0.2715
     60  CB        18.8410   31.0880   -4.9090 C.3    96  ASP96       0.1450
     61  CG        18.8120   32.0110   -6.0840 C.2    96  ASP96       0.3671
     62  OD1       18.2590   33.1360   -5.9490 O.co2  96  ASP96      -0.2456
     63  OD2       19.3770   31.6310   -7.1420 O.co2  96  ASP96      -0.2456
     64  N         20.5200   32.8950   -2.7820 N.am   97  ASP97      -0.1971
     65  CA        21.1070   34.1560   -2.3540 C.3    97  ASP97       0.1709
     66  C         22.6220   34.0990   -2.1670 C.2    97  ASP97       0.2293
     67  O         23.3300   35.0020   -2.5820 O.2    97  ASP97      -0.2864
     68  CB        20.3980   34.7480   -1.1130 C.3    97  ASP97       0.1436
     69  CG        19.0140   35.3430   -1.4760 C.2    97  ASP97       0.3671
     70  OD1       18.7960   35.6500   -2.6860 O.co2  97  ASP97      -0.2456
     71  OD2       18.1200   35.4170   -0.6210 O.co2  97  ASP97      -0.2456
     72  N         24.6150   31.6970   -3.7480 N.3    99  MET99      -0.1230
     73  CA        25.1220   31.5510   -5.1120 C.3    99  MET99       0.1702
     74  C         24.9690   32.7950   -6.0010 C.2    99  MET99       0.2592
     75  O         25.7620   32.9760   -6.8800 O.2    99  MET99      -0.2718
     76  CB        24.4410   30.3900   -5.7880 C.3    99  MET99       0.0401
     77  CG        24.6810   29.0270   -5.1280 C.3    99  MET99       0.0596
     78  SD        24.0040   27.6720   -6.1490 S.3    99  MET99      -0.1393
     79  CE        22.4720   27.6140   -5.3750 C.3    99  MET99       0.0692
     80  N         23.9510   33.6340   -5.8370 N.am  100  ASP100     -0.1974
     81  CA        23.8060   34.8340   -6.7090 C.3   100  ASP100      0.1709
     82  C         24.4490   36.0500   -6.1410 C.2   100  ASP100      0.2293
     83  O         24.2880   37.1470   -6.7140 O.2   100  ASP100     -0.2864
     84  CB        22.3290   35.1540   -6.9950 C.3   100  ASP100      0.1436
     85  CG        21.6480   34.1170   -7.9800 C.2   100  ASP100      0.3671
     86  OD1       22.3760   33.3140   -8.6040 O.co2 100  ASP100     -0.2456
     87  OD2       20.3940   34.0980   -8.1320 O.co2 100  ASP100     -0.2456
     88  N         23.6310   37.6930   -3.4250 N.3   102  SER102     -0.1273
     89  CA        22.6010   38.6670   -3.2010 C.3   102  SER102      0.1575
     90  C         22.7920   39.4380   -1.8700 C.3   102  SER102      0.2036
     91  O         23.4980   38.9750   -0.8970 O.3   102  SER102     -0.2187
     92  CB        21.2350   37.9830   -3.3450 C.3   102  SER102      0.2036
     93  OG        20.9250   37.7630   -4.7390 O.3   102  SER102     -0.2187
     94  N         16.5990   40.2550    0.5920 N.3   105  ARG105     -0.1245
     95  CA        15.5180   39.3930    0.1690 C.3   105  ARG105      0.1563
     96  C         14.3160   39.6990    1.0530 C.2   105  ARG105      0.2260
     97  O         14.4360   39.7300    2.2790 O.2   105  ARG105     -0.2867
     98  CB        15.9570   37.9590    0.3950 C.3   105  ARG105      0.0307
     99  CG        14.8650   36.9010    0.3850 C.3   105  ARG105      0.0489
    100  CD        14.3750   36.5660   -1.0040 C.3   105  ARG105      0.2205
    101  NE        15.4190   35.9760   -1.8220 N.pl3 105  ARG105     -0.0865
    102  CZ        15.2500   35.6510   -3.1100 C.cat 105  ARG105      0.5346
    103  NH1       14.0860   35.8670   -3.6780 N.pl3 105  ARG105      0.1354
    104  NH2       16.2310   35.1290   -3.8140 N.pl3 105  ARG105      0.1354
    105  N         14.0140   21.5550  -10.3220 N.3   160  THR160     -0.1203
    106  CA        14.4170   22.9090   -9.9810 C.3   160  THR160      0.1994
    107  C         15.9490   23.0010   -9.9640 C.2   160  THR160      0.2617
    108  O         16.5270   23.9750  -10.4710 O.2   160  THR160     -0.2717
    109  CB        13.8610   23.3460   -8.5950 C.3   160  THR160      0.1784
    110  OG1       12.4360   23.2410   -8.5760 O.3   160  THR160     -0.2211
    111  CG2       14.3000   24.7500   -8.2300 C.3   160  THR160      0.0376
    112  N         16.6000   21.9830   -9.3850 N.am  161  GLU161     -0.1979
    113  CA        18.0590   21.9220   -9.3370 C.3   161  GLU161      0.1602
    114  C         18.6730   21.7270  -10.7290 C.2   161  GLU161      0.2287
    115  O         19.7780   22.1940  -10.9940 O.2   161  GLU161     -0.2864
    116  CB        18.5140   20.8260   -8.3630 C.3   161  GLU161      0.0415
    117  CG        18.1660   21.2420   -6.9200 C.3   161  GLU161      0.1163
    118  CD        18.0790   20.0770   -5.9550 C.2   161  GLU161      0.3649
    119  OE1       18.5190   18.9640   -6.2960 O.co2 161  GLU161     -0.2457
    120  OE2       17.5710   20.2760   -4.8530 O.co2 161  GLU161     -0.2457
    121  N         18.4250   25.2340  -12.1770 N.3   164  GLN164     -0.1245
    122  CA        19.4590   26.0490  -11.6290 C.3   164  GLN164      0.1566
    123  C         20.7990   25.7330  -12.3040 C.2   164  GLN164      0.2260
    124  O         21.6160   26.6190  -12.5260 O.2   164  GLN164     -0.2867
    125  CB        19.4990   25.8020  -10.1010 C.3   164  GLN164      0.0367
    126  CG        20.5430   26.5920   -9.3710 C.3   164  GLN164      0.0905
    127  CD        20.2850   28.0920   -9.4890 C.2   164  GLN164      0.2608
    128  OE1       19.2230   28.4920   -9.9650 O.2   164  GLN164     -0.2717
    129  NE2       21.2550   28.9200   -9.0600 N.am  164  GLN164     -0.0878
    130  N         20.9250   27.4260  -15.5100 N.3   167  ASP167     -0.1239
    131  CA        21.0340   28.8760  -15.1910 C.3   167  ASP167      0.1674
    132  C         22.5060   29.2300  -14.9670 C.2   167  ASP167      0.2266
    133  O         23.0020   30.1380  -15.6350 O.2   167  ASP167     -0.2867
    134  CB        20.0430   29.2200  -14.0420 C.3   167  ASP167      0.1410
    135  CG        20.1250   30.6720  -13.4690 C.2   167  ASP167      0.3668
    136  OD1       19.2040   31.4290  -13.7400 O.co2 167  ASP167     -0.2456
    137  OD2       20.9960   31.0080  -12.6060 O.co2 167  ASP167     -0.2456
    138  N         13.7010   25.7240  -13.7230 N.3   193  LYS193     -0.1231
    139  CA        14.1030   26.3610  -12.4820 C.3   193  LYS193      0.1693
    140  C         13.0180   27.0070  -11.7160 C.2   193  LYS193      0.2592
    141  O         13.1840   27.1360  -10.4960 O.2   193  LYS193     -0.2718
    142  CB        15.2420   27.3580  -12.6320 C.3   193  LYS193      0.0285
    143  CG        14.8970   28.6910  -13.2580 C.3   193  LYS193      0.0035
    144  CD        15.9110   29.7420  -12.7540 C.3   193  LYS193      0.0206
    145  CE        15.5010   31.1160  -13.3450 C.3   193  LYS193      0.1093
    146  NZ        16.5550   32.1730  -13.2860 N.3   193  LYS193     -0.1314
    147  N         11.9290   27.4080  -12.3950 N.am  194  THR194     -0.1953
    148  CA        10.8520   28.1250  -11.7200 C.3   194  THR194      0.1897
    149  C          9.4530   27.5460  -11.8540 C.2   194  THR194      0.2313
    150  O          8.6760   27.5190  -10.8920 O.2   194  THR194     -0.2863
    151  CB        10.8800   29.6120  -12.1260 C.3   194  THR194      0.1794
    152  OG1       12.0550   30.1970  -11.5890 O.3   194  THR194     -0.2208
    153  CG2        9.6930   30.4110  -11.5690 C.3   194  THR194      0.0378
    154  N          8.1480   24.1860   -9.7520 N.3   197  TYR197     -0.1241
    155  CA         7.8670   24.2770   -8.3250 C.3   197  TYR197      0.1605
    156  C          6.9410   25.3960   -7.9130 C.2   197  TYR197      0.2264
    157  O          6.2810   25.3140   -6.8550 O.2   197  TYR197     -0.2867
    158  CB         9.1810   24.3480   -7.5340 C.3   197  TYR197      0.0534
    159  CG         9.7210   25.7540   -7.2220 C.ar  197  TYR197     -0.0201
    160  CD1       10.5790   26.4150   -8.1090 C.ar  197  TYR197     -0.0009
    161  CD2        9.4430   26.3620   -5.9850 C.ar  197  TYR197     -0.0009
    162  CE1       11.0830   27.6850   -7.8190 C.ar  197  TYR197      0.0417
    163  CE2        9.9470   27.6200   -5.6620 C.ar  197  TYR197      0.0417
    164  CZ        10.7780   28.2730   -6.5760 C.ar  197  TYR197      0.1957
    165  OH        11.2940   29.4890   -6.2490 O.3   197  TYR197     -0.2866
    166  N          8.4320   34.0860  -14.5500 N.3   233  GLN233     -0.1245
    167  CA         9.8810   34.2880  -14.4770 C.3   233  GLN233      0.1566
    168  C         10.2930   35.4640  -15.3400 C.2   233  GLN233      0.2260
    169  O         11.2190   36.1750  -14.9920 O.2   233  GLN233     -0.2867
    170  CB        10.6690   33.0540  -14.8450 C.3   233  GLN233      0.0367
    171  CG        12.1810   33.1560  -14.5760 C.3   233  GLN233      0.0905
    172  CD        12.4740   33.4490  -13.1170 C.2   233  GLN233      0.2608
    173  OE1       11.9810   32.7770  -12.2150 O.2   233  GLN233     -0.2717
    174  NE2       13.2700   34.4650  -12.8810 N.am  233  GLN233     -0.0878
    175  N          9.6420   38.3910  -13.3720 N.3   236  ASP236     -0.1225
    176  CA        10.6700   38.4470  -12.3320 C.3   236  ASP236      0.1805
    177  C         11.9760   39.0450  -12.8760 C.2   236  ASP236      0.2597
    178  O         12.5710   39.9460  -12.2450 O.2   236  ASP236     -0.2718
    179  CB        10.9650   37.0750  -11.7240 C.3   236  ASP236      0.1424
    180  CG        12.0550   37.1320  -10.6940 C.2   236  ASP236      0.3668
    181  OD1       11.7640   37.6770   -9.6370 O.co2 236  ASP236     -0.2456
    182  OD2       13.1800   36.6480  -10.9000 O.co2 236  ASP236     -0.2456
    183  N         12.3790   38.5990  -14.0730 N.am  237  ASP237     -0.1974
    184  CA        13.5070   39.2150  -14.7890 C.3   237  ASP237      0.1709
    185  C         13.3420   40.7190  -15.0910 C.2   237  ASP237      0.2293
    186  O         14.2760   41.5150  -14.8670 O.2   237  ASP237     -0.2864
    187  CB        13.7950   38.4790  -16.0960 C.3   237  ASP237      0.1436
    188  CG        14.2710   37.0570  -15.8870 C.2   237  ASP237      0.3671
    189  OD1       14.4600   36.6380  -14.7130 O.co2 237  ASP237     -0.2456
    190  OD2       14.3180   36.3220  -16.9060 O.co2 237  ASP237     -0.2456
    191  N         13.6030   42.6900  -11.9080 N.3   240  ASP240     -0.1239
    192  CA        14.9570   42.6630  -11.3920 C.3   240  ASP240      0.1674
    193  C         15.6490   43.9560  -11.7060 C.2   240  ASP240      0.2266
    194  O         16.3800   44.4580  -10.8690 O.2   240  ASP240     -0.2867
    195  CB        15.7610   41.5020  -11.9990 C.3   240  ASP240      0.1410
    196  CG        17.1250   41.2570  -11.2750 C.2   240  ASP240      0.3668
    197  OD1       18.1840   41.6870  -11.7970 O.co2 240  ASP240     -0.2456
    198  OD2       17.1080   40.6450  -10.1900 O.co2 240  ASP240     -0.2456
    199  N         13.8610   43.3130   -2.8500 N.3   250  LYS250     -0.1245
    200  CA        15.2060   42.8360   -3.1660 C.3   250  LYS250      0.1561
    201  C         15.8420   43.6070   -4.2940 C.2   250  LYS250      0.2260
    202  O         15.1760   44.2120   -5.1580 O.2   250  LYS250     -0.2867
    203  CB        15.2150   41.3270   -3.4590 C.3   250  LYS250      0.0271
    204  CG        14.7320   40.9980   -4.8350 C.3   250  LYS250      0.0035
    205  CD        14.2780   39.5350   -5.0660 C.3   250  LYS250      0.0206
    206  CE        14.3600   39.2520   -6.5950 C.3   250  LYS250      0.1093
    207  NZ        13.1910   38.4870   -7.1700 N.3   250  LYS250     -0.1314
    208  N         20.9950   40.6260  -11.8810 N.3   254  ASP254     -0.1239
    209  CA        21.0630   39.7940  -13.1040 C.3   254  ASP254      0.1674
    210  C         22.1660   40.2820  -14.0640 C.2   254  ASP254      0.2266
    211  O         22.8890   39.4880  -14.6330 O.2   254  ASP254     -0.2867
    212  CB        19.7330   39.6850  -13.8640 C.3   254  ASP254      0.1410
    213  CG        18.6790   38.8290  -13.1500 C.2   254  ASP254      0.3668
    214  OD1       19.0870   38.1200  -12.1640 O.co2 254  ASP254     -0.2456
    215  OD2       17.4520   38.8680  -13.5910 O.co2 254  ASP254     -0.2456
    216  N         23.4930   36.9460  -16.2080 N.3   259  LYS259     -0.1245
    217  CA        22.3500   36.0210  -16.3110 C.3   259  LYS259      0.1561
    218  C         21.7070   36.0760  -17.6580 C.2   259  LYS259      0.2260
    219  O         21.6470   37.1210  -18.2610 O.2   259  LYS259     -0.2867
    220  CB        21.2770   36.3380  -15.2810 C.3   259  LYS259      0.0271
    221  CG        21.6460   35.9090  -13.8340 C.3   259  LYS259      0.0035
    222  CD        21.8910   34.4030  -13.7470 C.3   259  LYS259      0.0206
    223  CE        22.6820   34.0270  -12.5240 C.3   259  LYS259      0.1093
    224  NZ        22.0000   34.5930  -11.3280 N.3   259  LYS259     -0.1314
@<TRIPOS>BOND
     1   219   218    2
     2   218   217    1
     3   190   188   ar
     4   217   216    1
     5   217   220    1
     6   187   188    1
     7   187   184    1
     8   188   189   ar
     9   133   132    2
    10   130   131    1
    11   168   169    2
    12   168   167    1
    13   220   221    1
    14   131   132    1
    15   131   134    1
    16   185   186    2
    17   185   184    1
    18   170   171    1
    19   170   167    1
    20   184   183    1
    21   211   210    2
    22   171   172    1
    23   166   167    1
    24   183   177   am
    25   210   209    1
    26   134   135    1
    27   212   213    1
    28   212   209    1
    29   221   222    1
    30   222   223    1
    31   136   135   ar
    32   138   139    1
    33   215   213   ar
    34   135   137   ar
    35   175   176    1
    36   145   146    1
    37   145   144    1
    38   143   144    1
    39   143   142    1
    40   213   214   ar
    41   172   174   am
    42   172   173    2
    43   209   208    1
    44   177   176    1
    45   177   178    2
    46   142   139    1
    47   124   123    2
    48   223   224    1
    49   139   140    1
    50   147   148    1
    51   147   140   am
    52   176   179    1
    53   123   122    1
    54   121   122    1
    55   151   148    1
    56   151   152    1
    57   151   153    1
    58   195   192    1
    59   195   196    1
    60   191   192    1
    61   149   148    1
    62   149   150    2
    63   197   196   ar
    64   179   180    1
    65   140   141    2
    66   193   192    1
    67   193   194    2
    68   122   125    1
    69   196   198   ar
    70   115   114    2
    71   182   180   ar
    72   114   113    1
    73   180   181   ar
    74   108   107    2
    75   105   106    1
    76   125   126    1
    77   106   107    1
    78   106   109    1
    79   128   127    2
    80   107   112   am
    81   154   155    1
    82   127   126    1
    83   127   129   am
    84   112   113    1
    85   113   116    1
    86    86    85   ar
    87   109   110    1
    88   109   111    1
    89   116   117    1
    90   155   156    1
    91   155   158    1
    92    87    85   ar
    93   160   162   ar
    94   160   159   ar
    95    85    84    1
    96   156   157    2
    97   162   164   ar
    98   158   159    1
    99   159   161   ar
   100   207   206    1
   101    63    61   ar
   102    84    81    1
   103   117   118    1
   104    75    74    2
   105    83    82    2
   106    81    82    1
   107    81    80    1
   108   206   205    1
   109   164   165    1
   110   164   163   ar
   111   119   118   ar
   112    11     9    1
   113    78    79    1
   114    78    77    1
   115    61    62   ar
   116    61    60    1
   117    74    80   am
   118    74    73    1
   119   161   163   ar
   120   118   120   ar
   121    76    77    1
   122    76    73    1
   123     8     9    2
   124     8     7    1
   125     9    10    1
   126    41    42   ar
   127    41    39   ar
   128   202   201    2
   129    73    72    1
   130   205   204    1
   131    42    40   ar
   132    60    57    1
   133     6     7    1
   134     6     5    1
   135   204   203    1
   136    93    92    1
   137    59    58    2
   138    39    37   ar
   139    40    38   ar
   140   201   200    1
   141    57    58    1
   142    57    56    1
   143    37    38   ar
   144    37    36    1
   145    58    64   am
   146    19    18    2
   147   104   102    1
   148     5     2    1
   149   103   102    1
   150     2     1    1
   151     2     3    1
   152    36    33    1
   153   203   200    1
   154    88    89    1
   155    92    89    1
   156    20    18   am
   157    89    90    1
   158   200   199    1
   159   102   101    2
   160    56    53   am
   161    35    34    2
   162    18    17    1
   163     4     3    2
   164    54    53    2
   165    64    65    1
   166    70    69   ar
   167    67    66    2
   168    33    34    1
   169    33    32    1
   170    34    43   am
   171    53    52    1
   172    65    66    1
   173    65    68    1
   174    90    91    1
   175   101   100    1
   176    43    44    1
   177    44    47    1
   178    44    45    1
   179    30    31   ar
   180    30    28   ar
   181    17    16    1
   182    55    52    1
   183    69    68    1
   184    69    71   ar
   185    16    13    1
   186    13    12    1
   187    13    14    1
   188    31    29   ar
   189    47    48    1
   190    32    23   am
   191    46    45    2
   192    52    51    1
   193    15    14    2
   194    28    26   ar
   195   100    99    1
   196    29    27   ar
   197    24    23    2
   198    23    22    1
   199    26    27   ar
   200    26    25    1
   201    48    50    1
   202    48    49    1
   203    95    98    1
   204    95    94    1
   205    95    96    1
   206    99    98    1
   207    25    22    1
   208    96    97    2
   209    22    21    1
