@<TRIPOS>MOLECULE
tmp/4nflA01.pdb
 175 174 0 0 0
SMALL
GASTEIGER

@<TRIPOS>ATOM
      1  N         -5.2820   21.0340   19.3420 N.3    17  ASP17      -0.1239
      2  CA        -4.7600   22.4050   19.3580 C.3    17  ASP17       0.1674
      3  C         -3.2870   22.4360   18.9310 C.2    17  ASP17       0.2266
      4  O         -2.4250   21.7260   19.4900 O.2    17  ASP17      -0.2867
      5  CB        -4.9130   23.0200   20.7450 C.3    17  ASP17       0.1410
      6  CG        -6.3610   23.1590   21.1560 C.2    17  ASP17       0.3668
      7  OD1       -7.1080   23.7660   20.3660 O.co2  17  ASP17      -0.2456
      8  OD2       -6.6870   22.6900   22.2900 O.co2  17  ASP17      -0.2456
      9  N         -4.9820   27.2870   17.4190 N.3    23  PHE23      -0.1227
     10  CA        -5.1990   27.9060   18.7360 C.3    23  PHE23       0.1736
     11  C         -4.4250   29.2540   18.8440 C.2    23  PHE23       0.2595
     12  O         -4.9980   30.2570   19.2800 O.2    23  PHE23      -0.2718
     13  CB        -4.7550   26.9160   19.8200 C.3    23  PHE23       0.0547
     14  CG        -4.9880   27.4070   21.2230 C.ar   23  PHE23      -0.0202
     15  CD1       -4.1540   28.3560   21.7920 C.ar   23  PHE23      -0.0042
     16  CD2       -6.0410   26.8970   21.9830 C.ar   23  PHE23      -0.0042
     17  CE1       -4.4040   28.8400   23.0920 C.ar   23  PHE23      -0.0003
     18  CE2       -6.2540   27.3300   23.3010 C.ar   23  PHE23      -0.0003
     19  CZ        -5.4650   28.3200   23.8250 C.ar   23  PHE23      -0.0000
     20  N         -3.1410   29.2470   18.4700 N.am   24  GLU24      -0.1979
     21  CA        -2.3180   30.4670   18.6550 C.3    24  GLU24       0.1602
     22  C         -2.8570   31.6190   17.8280 C.2    24  GLU24       0.2287
     23  O         -2.9940   32.7540   18.3540 O.2    24  GLU24      -0.2864
     24  CB        -0.8640   30.1740   18.2890 C.3    24  GLU24       0.0415
     25  CG        -0.1710   29.2100   19.2340 C.3    24  GLU24       0.1163
     26  CD         0.3670   29.8140   20.4870 C.2    24  GLU24       0.3649
     27  OE1        0.4780   31.0730   20.5900 O.co2  24  GLU24      -0.2457
     28  OE2        0.7690   29.0340   21.3940 O.co2  24  GLU24      -0.2457
     29  N          5.1490   26.9250   26.0060 N.3    49  PHE49      -0.1227
     30  CA         3.8830   26.3280   25.6770 C.3    49  PHE49       0.1736
     31  C          2.7340   27.1780   26.1970 C.2    49  PHE49       0.2595
     32  O          1.7190   27.3050   25.5120 O.2    49  PHE49      -0.2718
     33  CB         3.7760   24.9110   26.2480 C.3    49  PHE49       0.0547
     34  CG         2.5740   24.1650   25.8190 C.ar   49  PHE49      -0.0202
     35  CD1        2.4370   23.7440   24.5210 C.ar   49  PHE49      -0.0042
     36  CD2        1.5770   23.8710   26.7210 C.ar   49  PHE49      -0.0042
     37  CE1        1.3590   23.0440   24.1300 C.ar   49  PHE49      -0.0003
     38  CE2        0.4620   23.1490   26.3510 C.ar   49  PHE49      -0.0003
     39  CZ         0.3520   22.7340   25.0200 C.ar   49  PHE49      -0.0000
     40  N          2.8790   27.7390   27.3930 N.am   50  TRP50      -0.1962
     41  CA         1.7520   28.3840   28.0690 C.3    50  TRP50       0.1771
     42  C          1.6170   29.8330   27.6670 C.2    50  TRP50       0.2619
     43  O          2.3710   30.6900   28.1460 O.2    50  TRP50      -0.2715
     44  CB         1.9100   28.2650   29.5930 C.3    50  TRP50       0.0590
     45  CG         1.9900   26.8460   30.0650 C.ar   50  TRP50       0.0006
     46  CD1        3.0730   26.2390   30.6380 C.ar   50  TRP50       0.0946
     47  CD2        0.9820   25.8390   29.9400 C.ar   50  TRP50       0.0152
     48  NE1        2.7860   24.9200   30.8890 N.ar   50  TRP50      -0.2442
     49  CE2        1.5100   24.6480   30.4810 C.ar   50  TRP50       0.0810
     50  CE3       -0.3080   25.8230   29.4040 C.ar   50  TRP50       0.0012
     51  CZ2        0.7790   23.4580   30.5260 C.ar   50  TRP50       0.0191
     52  CZ3       -1.0260   24.6490   29.4260 C.ar   50  TRP50       0.0001
     53  CH2       -0.4940   23.4800   30.0120 C.ar   50  TRP50       0.0015
     54  N          0.6140   30.1330   26.8450 N.am   51  VAL51      -0.1963
     55  CA         0.3740   31.4880   26.4050 C.3    51  VAL51       0.1727
     56  C          0.1900   32.4260   27.6060 C.2    51  VAL51       0.2616
     57  O          0.7410   33.5420   27.6040 O.2    51  VAL51      -0.2715
     58  CB        -0.9450   31.5430   25.5490 C.3    51  VAL51       0.0290
     59  CG1       -1.3360   32.9670   25.2210 C.3    51  VAL51       0.0023
     60  CG2       -0.7830   30.7380   24.2610 C.3    51  VAL51       0.0023
     61  N         -0.5890   31.9930   28.6030 N.am   52  SER52      -0.1950
     62  CA        -0.9400   32.9350   29.6870 C.3    52  SER52       0.1924
     63  C          0.3030   33.3280   30.4800 C.2    52  SER52       0.2314
     64  O          0.3790   34.4610   30.9800 O.2    52  SER52      -0.2863
     65  CB        -2.0070   32.4380   30.6260 C.3    52  SER52       0.2116
     66  OG        -1.6370   31.2530   31.3040 O.3    52  SER52      -0.2180
     67  N         -6.5980   34.2900   29.5590 N.3    67  ILE67      -0.1245
     68  CA        -7.4170   33.1360   29.9030 C.3    67  ILE67       0.1561
     69  C         -8.8580   33.3590   29.4940 C.2    67  ILE67       0.2260
     70  O         -9.5490   32.4330   29.0360 O.2    67  ILE67      -0.2867
     71  CB        -7.2940   32.8320   31.4210 C.3    67  ILE67       0.0252
     72  CG1       -5.8890   32.3130   31.7040 C.3    67  ILE67       0.0019
     73  CG2       -8.3780   31.8590   31.8800 C.3    67  ILE67       0.0019
     74  CD1       -5.4840   32.5020   33.1460 C.3    67  ILE67       0.0001
     75  N         -9.8610   32.0930   25.8460 N.3    70  TRP70      -0.1227
     76  CA       -10.1660   30.6700   25.5830 C.3    70  TRP70       0.1737
     77  C        -11.2300   30.0870   26.4520 C.2    70  TRP70       0.2595
     78  O        -11.7980   29.0650   26.1070 O.2    70  TRP70      -0.2718
     79  CB        -8.9020   29.7980   25.5870 C.3    70  TRP70       0.0564
     80  CG        -8.0470   29.8390   26.7780 C.ar   70  TRP70       0.0003
     81  CD1       -8.2500   29.2500   27.9580 C.ar   70  TRP70       0.0946
     82  CD2       -6.7670   30.4700   26.8420 C.ar   70  TRP70       0.0152
     83  NE1       -7.1750   29.4940   28.7970 N.ar   70  TRP70      -0.2442
     84  CE2       -6.2470   30.2310   28.1100 C.ar   70  TRP70       0.0810
     85  CE3       -6.0150   31.2080   25.9310 C.ar   70  TRP70       0.0012
     86  CZ2       -4.9940   30.7510   28.5140 C.ar   70  TRP70       0.0191
     87  CZ3       -4.7830   31.7140   26.3180 C.ar   70  TRP70       0.0001
     88  CH2       -4.2810   31.4640   27.5990 C.ar   70  TRP70       0.0015
     89  N        -11.5970   30.7680   27.5250 N.am   71  GLU71      -0.1979
     90  CA       -12.7870   30.3740   28.2990 C.3    71  GLU71       0.1602
     91  C        -14.0910   30.8760   27.6970 C.2    71  GLU71       0.2287
     92  O        -15.1540   30.4630   28.1420 O.2    71  GLU71      -0.2864
     93  CB       -12.6790   30.8670   29.7430 C.3    71  GLU71       0.0415
     94  CG       -11.5790   30.1160   30.4980 C.3    71  GLU71       0.1163
     95  CD       -11.6320   30.2760   32.0110 C.2    71  GLU71       0.3649
     96  OE1      -12.3680   31.1690   32.4930 O.co2  71  GLU71      -0.2457
     97  OE2      -10.8940   29.4910   32.6760 O.co2  71  GLU71      -0.2457
     98  N         -6.5310   17.5070   24.9830 N.3   105  SER105     -0.1203
     99  CA        -6.7860   17.8690   26.3680 C.3   105  SER105      0.2005
    100  C         -7.6930   19.0320   26.4850 C.2   105  SER105      0.2461
    101  O         -7.3570   20.0770   25.9310 O.2   105  SER105     -0.2732
    102  CB        -5.4940   18.1710   27.0660 C.3   105  SER105      0.2103
    103  OG        -4.5980   17.0790   27.0440 O.3   105  SER105     -0.2182
    104  N         -8.8140   18.9180   27.1820 N.am  106  PRO106     -0.2717
    105  CA        -9.6610   20.0920   27.4360 C.3   106  PRO106      0.1535
    106  C         -9.0010   21.0260   28.4280 C.2   106  PRO106      0.2598
    107  O         -8.1860   20.5970   29.2100 O.2   106  PRO106     -0.2715
    108  CB       -10.8970   19.5000   28.0480 C.3   106  PRO106      0.0310
    109  CG       -10.4330   18.2390   28.7780 C.3   106  PRO106      0.0237
    110  CD        -9.3020   17.7110   27.9060 C.3   106  PRO106      0.0939
    111  N         -9.3630   22.2980   28.3670 N.am  107  ILE107     -0.1964
    112  CA        -9.0120   23.2460   29.4290 C.3   107  ILE107      0.1727
    113  C         -9.7630   22.9490   30.6940 C.2   107  ILE107      0.2616
    114  O        -10.6560   22.1270   30.7340 O.2   107  ILE107     -0.2715
    115  CB        -9.2210   24.6860   28.9420 C.3   107  ILE107      0.0290
    116  CG1      -10.6880   24.9930   28.6380 C.3   107  ILE107      0.0022
    117  CG2       -8.3040   24.9900   27.7870 C.3   107  ILE107      0.0023
    118  CD1      -10.9930   26.4780   28.5330 C.3   107  ILE107      0.0001
    119  N         -9.3780   23.6350   31.7670 N.am  108  LYS108     -0.1963
    120  CA        -9.9820   23.3380   33.0570 C.3   108  LYS108      0.1728
    121  C        -11.4460   23.7440   33.0940 C.2   108  LYS108      0.2616
    122  O        -12.2540   23.0020   33.6560 O.2   108  LYS108     -0.2715
    123  CB        -9.2180   24.0980   34.1600 C.3   108  LYS108      0.0311
    124  CG        -7.8500   23.5010   34.5000 C.3   108  LYS108      0.0038
    125  CD        -7.0810   24.4280   35.4560 C.3   108  LYS108      0.0206
    126  CE        -5.7500   23.8150   35.9010 C.3   108  LYS108      0.1093
    127  NZ        -5.3910   24.2230   37.3020 N.3   108  LYS108     -0.1314
    128  N        -11.7900   24.8900   32.5050 N.am  109  MET109     -0.1977
    129  CA       -13.1880   25.3500   32.4470 C.3   109  MET109      0.1605
    130  C        -13.9180   24.5590   31.3580 C.2   109  MET109      0.2287
    131  O        -13.5820   24.6830   30.1910 O.2   109  MET109     -0.2864
    132  CB       -13.3060   26.8730   32.2230 C.3   109  MET109      0.0413
    133  CG       -14.4830   27.5540   32.9260 C.3   109  MET109      0.0598
    134  SD       -16.0500   27.2940   32.0220 S.3   109  MET109     -0.1393
    135  CE       -15.9590   28.4280   30.6520 C.3   109  MET109      0.0692
    136  N         -6.5770   14.6640   29.9420 N.3   137  ARG137     -0.1245
    137  CA        -5.4770   15.5220   30.3730 C.3   137  ARG137      0.1563
    138  C         -4.1730   14.7730   30.4040 C.2   137  ARG137      0.2260
    139  O         -3.1340   15.4080   30.5030 O.2   137  ARG137     -0.2867
    140  CB        -5.8190   16.0510   31.7530 C.3   137  ARG137      0.0307
    141  CG        -7.0950   16.8600   31.7960 C.3   137  ARG137      0.0489
    142  CD        -6.9460   18.3260   31.4800 C.3   137  ARG137      0.2205
    143  NE        -6.2650   19.0900   32.5420 N.pl3 137  ARG137     -0.0865
    144  CZ        -6.1410   20.4120   32.5380 C.cat 137  ARG137      0.5346
    145  NH1       -6.6580   21.1310   31.5370 N.pl3 137  ARG137      0.1354
    146  NH2       -5.4970   21.0270   33.5280 N.pl3 137  ARG137      0.1354
    147  N          2.1730   19.2750   19.4480 N.3   150  ASP150     -0.1225
    148  CA         3.0470   20.4610   19.5390 C.3   150  ASP150      0.1805
    149  C          3.6040   20.7680   20.9250 C.2   150  ASP150      0.2597
    150  O          4.4750   21.6520   21.0510 O.2   150  ASP150     -0.2718
    151  CB         2.3640   21.7390   19.0310 C.3   150  ASP150      0.1424
    152  CG         1.1340   22.1290   19.8510 C.2   150  ASP150      0.3668
    153  OD1        0.3490   21.2260   20.1850 O.co2 150  ASP150     -0.2456
    154  OD2        0.9980   23.3460   20.0920 O.co2 150  ASP150     -0.2456
    155  N          3.1550   20.0660   21.9680 N.am  151  ARG151     -0.1979
    156  CA         3.6690   20.3200   23.3140 C.3   151  ARG151      0.1597
    157  C          5.0170   19.6250   23.4640 C.2   151  ARG151      0.2287
    158  O          5.0840   18.4220   23.2260 O.2   151  ARG151     -0.2864
    159  CB         2.6970   19.7740   24.3480 C.3   151  ARG151      0.0334
    160  CG         3.1520   20.1070   25.7550 C.3   151  ARG151      0.0492
    161  CD         2.0540   19.8490   26.7510 C.3   151  ARG151      0.2205
    162  NE         2.6160   20.0490   28.0800 N.pl3 151  ARG151     -0.0865
    163  CZ         1.9170   20.1060   29.2010 C.cat 151  ARG151      0.5346
    164  NH1        0.5970   20.0950   29.1780 N.pl3 151  ARG151      0.1354
    165  NH2        2.5850   20.2100   30.3520 N.pl3 151  ARG151      0.1354
    166  N          5.5010   28.5780   19.1780 N.3   172  HIS172     -0.1241
    167  CA         6.0560   28.5190   20.4890 C.3   172  HIS172      0.1621
    168  C          7.1730   27.5370   20.6760 C.2   172  HIS172      0.2264
    169  O          7.8500   27.5870   21.6980 O.2   172  HIS172     -0.2867
    170  CB         4.9700   28.2610   21.5570 C.3   172  HIS172      0.0745
    171  CG         4.2820   26.9430   21.4040 C.ar  172  HIS172      0.0817
    172  ND1        4.8630   25.7470   21.7770 N.ar  172  HIS172     -0.2268
    173  CD2        3.1020   26.6350   20.8200 C.ar  172  HIS172      0.1154
    174  CE1        4.0370   24.7680   21.4810 C.ar  172  HIS172      0.1986
    175  NE2        2.9660   25.2810   20.8990 N.ar  172  HIS172     -0.2212
@<TRIPOS>BOND
     1     9    10    1
     2    22    23    2
     3    22    21    1
     4    24    21    1
     5    24    25    1
     6    20    21    1
     7    20    11   am
     8    10    11    1
     9    10    13    1
    10    11    12    2
    11     3     2    1
    12     3     4    2
    13   151   148    1
    14   151   152    1
    15   166   167    1
    16    25    26    1
    17     1     2    1
    18     2     5    1
    19   147   148    1
    20   148   149    1
    21    13    14    1
    22   152   154   ar
    23   152   153   ar
    24     7     6   ar
    25    26    27   ar
    26    26    28   ar
    27   167   168    1
    28   167   170    1
    29   168   169    2
    30     5     6    1
    31   173   175   ar
    32   173   171   ar
    33   175   174   ar
    34   149   150    2
    35   149   155   am
    36     6     8   ar
    37    14    15   ar
    38    14    16   ar
    39   171   170    1
    40   171   172   ar
    41   174   172   ar
    42    15    17   ar
    43   155   156    1
    44    16    18   ar
    45    17    19   ar
    46   158   157    2
    47    18    19   ar
    48   156   157    1
    49   156   159    1
    50    37    35   ar
    51    37    39   ar
    52    60    58    1
    53   159   160    1
    54    35    34   ar
    55    98    99    1
    56    39    38   ar
    57    59    58    1
    58    32    31    2
    59    58    55    1
    60    76    79    1
    61    76    75    1
    62    76    77    1
    63    79    80    1
    64    30    29    1
    65    30    31    1
    66    30    33    1
    67   160   161    1
    68    34    33    1
    69    34    36   ar
    70   101   100    2
    71    85    87   ar
    72    85    82   ar
    73    78    77    2
    74    31    40   am
    75    87    88   ar
    76    38    36   ar
    77    99   100    1
    78    99   102    1
    79    55    54    1
    80    55    56    1
    81    77    89   am
    82   100   104   am
    83   161   162    1
    84    80    82   ar
    85    80    81   ar
    86    82    84   ar
    87    54    42   am
    88   103   102    1
    89   104   105    1
    90   104   110    1
    91    40    41    1
    92   105   108    1
    93   105   106    1
    94    89    90    1
    95    88    86   ar
    96    57    56    2
    97    56    61   am
    98    42    41    1
    99    42    43    2
   100    91    92    2
   101    91    90    1
   102   117   115    1
   103   110   109    1
   104    81    83   ar
   105   108   109    1
   106    41    44    1
   107   162   163    2
   108    84    86   ar
   109    84    83   ar
   110    90    93    1
   111   111   106   am
   112   111   112    1
   113   106   107    2
   114   118   116    1
   115    61    62    1
   116   116   115    1
   117   115   112    1
   118    70    69    2
   119   164   163    1
   120   163   165    1
   121    50    52   ar
   122    50    47   ar
   123    52    53   ar
   124   112   113    1
   125    69    68    1
   126    67    68    1
   127    44    45    1
   128    62    63    1
   129    62    65    1
   130    93    94    1
   131    68    71    1
   132    47    45   ar
   133    47    49   ar
   134   136   137    1
   135    53    51   ar
   136    45    46   ar
   137   131   130    2
   138   137   138    1
   139   137   140    1
   140   138   139    2
   141    63    64    2
   142    49    51   ar
   143    49    48   ar
   144    94    95    1
   145    65    66    1
   146    46    48   ar
   147   135   134    1
   148   113   114    2
   149   113   119   am
   150   130   129    1
   151    71    72    1
   152    71    73    1
   153   142   141    1
   154   142   143    1
   155   145   144    1
   156    72    74    1
   157   140   141    1
   158   119   120    1
   159    95    96   ar
   160    95    97   ar
   161   134   133    1
   162   132   129    1
   163   132   133    1
   164   129   128    1
   165   128   121   am
   166   144   143    2
   167   144   146    1
   168   120   121    1
   169   120   123    1
   170   121   122    2
   171   123   124    1
   172   124   125    1
   173   125   126    1
   174   126   127    1
