@<TRIPOS>MOLECULE
tmp/4nfnA00.pdb
 147 137 0 0 0
SMALL
GASTEIGER

@<TRIPOS>ATOM
      1  N          6.9420   29.0150   22.0990 N.3    19  ILE19      -0.1231
      2  CA         7.0270   28.4350   23.4510 C.3    19  ILE19       0.1692
      3  C          8.4660   28.0940   23.8480 C.2    19  ILE19       0.2593
      4  O          8.6880   27.6870   24.9870 O.2    19  ILE19      -0.2718
      5  CB         6.0610   27.2280   23.6510 C.3    19  ILE19       0.0266
      6  CG1        6.3750   26.0560   22.6920 C.3    19  ILE19       0.0019
      7  CG2        4.6030   27.6860   23.5570 C.3    19  ILE19       0.0020
      8  CD1        5.5900   24.6550   22.9510 C.3    19  ILE19       0.0001
      9  N          9.4220   28.2690   22.9370 N.am   20  GLY20      -0.1942
     10  CA        10.8140   27.9840   23.2650 C.3    20  GLY20       0.2014
     11  C         11.7780   28.2120   22.1270 C.2    20  GLY20       0.2639
     12  O         11.3670   28.5470   21.0100 O.2    20  GLY20      -0.2714
     13  N         13.0650   28.0230   22.4330 N.am   21  GLY21      -0.1954
     14  CA        14.1660   28.1390   21.4850 C.3    21  GLY21       0.1869
     15  C         14.4570   29.5450   20.9940 C.2    21  GLY21       0.2309
     16  O         14.0020   30.5310   21.5870 O.2    21  GLY21      -0.2863
     17  N         10.5780   26.8170   18.8210 N.3    27  ILE27      -0.1245
     18  CA         9.5020   25.8620   19.1210 C.3    27  ILE27       0.1561
     19  C          8.2230   26.6330   19.3310 C.2    27  ILE27       0.2260
     20  O          8.1980   27.6410   20.0480 O.2    27  ILE27      -0.2867
     21  CB         9.8560   24.9910   20.3630 C.3    27  ILE27       0.0252
     22  CG1       11.2100   24.2650   20.1260 C.3    27  ILE27       0.0019
     23  CG2        8.7430   23.9500   20.6620 C.3    27  ILE27       0.0019
     24  CD1       12.0970   24.2760   21.2120 C.3    27  ILE27       0.0001
     25  N          3.1980   20.4700   19.4180 N.3    40  ALA40      -0.1231
     26  CA         4.4400   21.2380   19.4700 C.3    40  ALA40       0.1694
     27  C          5.0810   21.1630   18.0870 C.2    40  ALA40       0.2592
     28  O          5.1050   20.1010   17.4720 O.2    40  ALA40      -0.2718
     29  CB         5.3710   20.6350   20.5060 C.3    40  ALA40       0.0304
     30  N          5.6350   22.2920   17.6250 N.am   41  LEU41      -0.1966
     31  CA         6.2200   22.3550   16.2870 C.3    41  LEU41       0.1728
     32  C          7.6000   23.0160   16.4080 C.2    41  LEU41       0.2616
     33  O          7.6740   24.1160   16.9340 O.2    41  LEU41      -0.2715
     34  CB         5.2750   23.2250   15.4160 C.3    41  LEU41       0.0311
     35  CG         5.8650   23.7820   14.1040 C.3    41  LEU41       0.0022
     36  CD1        5.9930   22.6880   13.0970 C.3    41  LEU41       0.0001
     37  CD2        4.9730   24.9160   13.5580 C.3    41  LEU41       0.0001
     38  N          8.6760   22.3420   15.9540 N.am   42  LYS42      -0.1977
     39  CA        10.0160   22.9250   16.0280 C.3    42  LYS42       0.1596
     40  C         10.4680   23.1750   14.6100 C.2    42  LYS42       0.2287
     41  O         10.2810   22.3120   13.7480 O.2    42  LYS42      -0.2864
     42  CB        10.9910   22.0060   16.7680 C.3    42  LYS42       0.0298
     43  CG        12.3920   22.6090   16.9060 C.3    42  LYS42       0.0038
     44  CD        13.2690   21.7290   17.8040 C.3    42  LYS42       0.0206
     45  CE        14.6860   22.3130   17.8280 C.3    42  LYS42       0.1093
     46  NZ        15.5780   21.5610   18.7760 N.3    42  LYS42      -0.1314
     47  N         17.3680   14.8240   15.3440 N.3    56  GLU56      -0.1245
     48  CA        16.3440   14.8660   16.3600 C.3    56  GLU56       0.1567
     49  C         15.0910   14.0070   15.9750 C.2    56  GLU56       0.2260
     50  O         14.5850   13.2350   16.7940 O.2    56  GLU56      -0.2867
     51  CB        16.0320   16.3200   16.6980 C.3    56  GLU56       0.0388
     52  CG        14.7850   16.4780   17.5180 C.3    56  GLU56       0.1160
     53  CD        14.7190   17.7690   18.3120 C.2    56  GLU56       0.3649
     54  OE1       13.9880   17.7280   19.3200 O.co2  56  GLU56      -0.2457
     55  OE2       15.3980   18.7740   17.9880 O.co2  56  GLU56      -0.2457
     56  N          9.6400   19.6580   12.6150 N.3    84  VAL84      -0.1245
     57  CA         9.1860   18.4150   13.2330 C.3    84  VAL84       0.1561
     58  C          7.9700   18.7870   14.0930 C.2    84  VAL84       0.2260
     59  O          7.9440   19.8480   14.7000 O.2    84  VAL84      -0.2867
     60  CB        10.2740   17.6480   14.0300 C.3    84  VAL84       0.0252
     61  CG1       10.9910   18.5320   15.0580 C.3    84  VAL84       0.0019
     62  CG2        9.7000   16.3760   14.6630 C.3    84  VAL84       0.0019
     63  N          5.3880   17.2230   17.1060 N.3    86  MET86      -0.1230
     64  CA         5.1680   16.1030   18.0220 C.3    86  MET86       0.1702
     65  C          4.1280   16.4610   19.0720 C.2    86  MET86       0.2592
     66  O          3.6910   17.6180   19.1580 O.2    86  MET86      -0.2718
     67  CB         6.4560   15.5730   18.6920 C.3    86  MET86       0.0401
     68  CG         6.9860   16.4820   19.7630 C.3    86  MET86       0.0596
     69  SD         8.5880   15.8340   20.3200 S.3    86  MET86      -0.1393
     70  CE         8.8520   16.9030   21.7320 C.3    86  MET86       0.0692
     71  N          3.6730   15.4450   19.8030 N.am   87  GLN87      -0.1966
     72  CA         2.6780   15.6290   20.8400 C.3    87  GLN87       0.1733
     73  C          3.1260   16.7100   21.8310 C.2    87  GLN87       0.2616
     74  O          4.2930   16.7390   22.2520 O.2    87  GLN87      -0.2715
     75  CB         2.4910   14.2990   21.5490 C.3    87  GLN87       0.0408
     76  CG         1.4920   14.3050   22.6850 C.3    87  GLN87       0.0908
     77  CD         1.3990   12.9540   23.3310 C.2    87  GLN87       0.2608
     78  OE1        2.2120   12.0480   23.0880 O.2    87  GLN87      -0.2717
     79  NE2        0.3980   12.7980   24.2110 N.am   87  GLN87      -0.0878
     80  N          2.2030   17.5790   22.2140 N.am   88  LEU88      -0.1963
     81  CA         2.4480   18.6650   23.1530 C.3    88  LEU88       0.1728
     82  C          2.2600   18.1560   24.5740 C.2    88  LEU88       0.2616
     83  O          1.2780   17.4550   24.8420 O.2    88  LEU88      -0.2715
     84  CB         1.4410   19.8080   22.8890 C.3    88  LEU88       0.0311
     85  CG         1.5370   21.0590   23.7540 C.3    88  LEU88       0.0022
     86  CD1        2.8310   21.8820   23.4750 C.3    88  LEU88       0.0001
     87  CD2        0.3010   21.9490   23.5560 C.3    88  LEU88       0.0001
     88  N          3.1940   18.4740   25.4680 N.am   89  GLN89      -0.1963
     89  CA         3.1170   18.0940   26.8670 C.3    89  GLN89       0.1733
     90  C          2.8550   19.3060   27.7240 C.2    89  GLN89       0.2616
     91  O          2.7260   20.4300   27.2100 O.2    89  GLN89      -0.2715
     92  CB         4.3830   17.3030   27.3030 C.3    89  GLN89       0.0408
     93  CG         4.5820   16.0520   26.4900 C.3    89  GLN89       0.0908
     94  CD         3.4610   15.0340   26.5640 C.2    89  GLN89       0.2608
     95  OE1        2.5630   15.1320   27.4080 O.2    89  GLN89      -0.2717
     96  NE2        3.5100   14.0060   25.7160 N.am   89  GLN89      -0.0878
     97  N          2.7300   19.0660   29.0330 N.am   90  GLY90      -0.1955
     98  CA         2.3100   20.1160   29.9350 C.3    90  GLY90       0.1869
     99  C          3.3980   20.7480   30.7790 C.2    90  GLY90       0.2309
    100  O          4.4590   21.1350   30.2740 O.2    90  GLY90      -0.2863
    101  N          6.4350   21.6580   33.1890 N.3    92  ASN92      -0.1240
    102  CA         7.7550   21.0500   33.3590 C.3    92  ASN92       0.1653
    103  C          8.1600   20.9930   34.8070 C.2    92  ASN92       0.2266
    104  O          7.5870   21.6950   35.6570 O.2    92  ASN92      -0.2867
    105  CB         8.8040   21.7130   32.4590 C.3    92  ASN92       0.1155
    106  CG         9.2270   23.0990   32.8960 C.2    92  ASN92       0.2627
    107  OD1        9.6110   23.3260   34.0350 O.2    92  ASN92      -0.2716
    108  ND2        9.2580   24.0370   31.9760 N.am   92  ASN92      -0.0877
    109  N         17.7150   17.8750   32.2980 N.3   135  LYS135     -0.1245
    110  CA        17.4730   18.9810   33.2030 C.3   135  LYS135      0.1561
    111  C         15.9700   19.0370   33.4670 C.2   135  LYS135      0.2260
    112  O         15.1900   18.5250   32.6590 O.2   135  LYS135     -0.2867
    113  CB        17.9840   20.3230   32.6180 C.3   135  LYS135      0.0271
    114  CG        17.3450   20.7400   31.3070 C.3   135  LYS135      0.0035
    115  CD        17.8590   22.0880   30.8680 C.3   135  LYS135      0.0206
    116  CE        17.2870   22.4620   29.5330 C.3   135  LYS135      0.1093
    117  NZ        17.8400   23.7620   29.0530 N.3   135  LYS135     -0.1314
    118  N         13.6750   21.3000   33.0630 N.3   137  SER137     -0.1202
    119  CA        12.8030   21.8810   32.0420 C.3   137  SER137      0.2020
    120  C         12.6490   20.9920   30.8190 C.2   137  SER137      0.2618
    121  O         11.8080   21.2840   29.9610 O.2   137  SER137     -0.2717
    122  CB        13.2680   23.2670   31.6460 C.3   137  SER137      0.2103
    123  OG        14.5570   23.1680   31.0740 O.3   137  SER137     -0.2182
    124  N         13.4590   19.9340   30.7180 N.am  138  ASN138     -0.1974
    125  CA        13.3200   18.9600   29.6380 C.3   138  ASN138      0.1688
    126  C         12.4680   17.7750   30.0580 C.2   138  ASN138      0.2292
    127  O         12.4240   16.7750   29.3210 O.2   138  ASN138     -0.2864
    128  CB        14.6870   18.5200   29.1240 C.3   138  ASN138      0.1181
    129  CG        15.2240   19.5090   28.1210 C.2   138  ASN138      0.2629
    130  OD1       14.4750   20.3020   27.5330 O.2   138  ASN138     -0.2716
    131  ND2       16.5370   19.4790   27.8730 N.am  138  ASN138     -0.0877
    132  N         11.8160   15.4090   26.9740 N.3   154  LEU154     -0.1231
    133  CA        11.7260   16.2750   25.7970 C.3   154  LEU154      0.1693
    134  C         13.0710   16.6730   25.2980 C.2   154  LEU154      0.2592
    135  O         14.0500   16.7550   26.0430 O.2   154  LEU154     -0.2718
    136  CB        11.0300   17.5830   26.1700 C.3   154  LEU154      0.0284
    137  CG         9.6920   17.4890   26.8930 C.3   154  LEU154      0.0019
    138  CD1        9.1540   18.8740   27.2180 C.3   154  LEU154      0.0001
    139  CD2        8.6760   16.6690   26.0950 C.3   154  LEU154      0.0001
    140  N         13.0870   16.9960   24.0020 N.am  155  ASP155     -0.1974
    141  CA        14.1360   17.7240   23.2870 C.3   155  ASP155      0.1709
    142  C         15.3740   16.9190   23.0100 C.2   155  ASP155      0.2293
    143  O         16.2190   16.7720   23.8890 O.2   155  ASP155     -0.2864
    144  CB        14.4760   19.0210   24.0260 C.3   155  ASP155      0.1436
    145  CG        15.1330   20.0670   23.1400 C.2   155  ASP155      0.3671
    146  OD1       15.9710   19.6880   22.2970 O.co2 155  ASP155     -0.2456
    147  OD2       14.7580   21.2540   23.2520 O.co2 155  ASP155     -0.2456
@<TRIPOS>BOND
     1    56    57    1
     2    36    35    1
     3    57    60    1
     4    57    58    1
     5    37    35    1
     6    41    40    2
     7    60    62    1
     8    60    61    1
     9    58    59    2
    10    35    34    1
    11    40    39    1
    12    47    48    1
    13    34    31    1
    14    38    39    1
    15    38    32   am
    16    49    48    1
    17    49    50    2
    18    39    42    1
    19    31    32    1
    20    31    30    1
    21    48    51    1
    22    32    33    2
    23    51    52    1
    24    42    43    1
    25    43    44    1
    26    63    64    1
    27    28    27    2
    28    52    53    1
    29    30    27   am
    30    44    45    1
    31    45    46    1
    32    55    53   ar
    33    64    67    1
    34    64    65    1
    35    27    26    1
    36    53    54   ar
    37    67    68    1
    38    17    18    1
    39    65    66    2
    40    65    71   am
    41    18    19    1
    42    18    21    1
    43    19    20    2
    44    25    26    1
    45    26    29    1
    46    68    69    1
    47    71    72    1
    48    22    21    1
    49    22    24    1
    50    69    70    1
    51    21    23    1
    52    72    75    1
    53    72    73    1
    54    15    14    1
    55    15    16    2
    56    12    11    2
    57    14    13    1
    58    75    76    1
    59    73    80   am
    60    73    74    2
    61     1     2    1
    62    11    13   am
    63    11    10    1
    64    80    81    1
    65   146   145   ar
    66    76    77    1
    67     6     8    1
    68     6     5    1
    69    84    81    1
    70    84    85    1
    71     9    10    1
    72     9     3   am
    73   142   141    1
    74   142   143    2
    75    78    77    2
    76   145   147   ar
    77   145   144    1
    78    81    82    1
    79   141   140    1
    80   141   144    1
    81    77    79   am
    82     2     5    1
    83     2     3    1
    84    86    85    1
    85    87    85    1
    86     7     5    1
    87     3     4    2
    88   140   134   am
    89    82    83    2
    90    82    88   am
    91   134   133    1
    92   134   135    2
    93    88    89    1
    94    96    94   am
    95   133   136    1
    96   133   132    1
    97   139   137    1
    98   136   137    1
    99    93    94    1
   100    93    92    1
   101    94    95    2
   102    89    92    1
   103    89    90    1
   104   137   138    1
   105    91    90    2
   106   130   129    2
   107    90    97   am
   108   131   129   am
   109   129   128    1
   110    97    98    1
   111   117   116    1
   112   128   125    1
   113   127   126    2
   114   116   115    1
   115   125   126    1
   116   125   124    1
   117    98    99    1
   118   121   120    2
   119   100    99    2
   120   124   120   am
   121   120   119    1
   122   115   114    1
   123   123   122    1
   124   114   113    1
   125   122   119    1
   126   108   106   am
   127   119   118    1
   128   109   110    1
   129   105   106    1
   130   105   102    1
   131   113   110    1
   132   112   111    2
   133   106   107    2
   134   101   102    1
   135   110   111    1
   136   102   103    1
   137   103   104    2
