@<TRIPOS>MOLECULE
tmp/4nftC00.pdb
 135 128 0 0 0
SMALL
GASTEIGER

@<TRIPOS>ATOM
      1  N        -18.4950   28.4370  -24.1220 N.3    21  SER21      -0.1202
      2  CA       -19.2930   29.5630  -23.6730 C.3    21  SER21       0.2020
      3  C        -19.2120   29.7140  -22.1530 C.2    21  SER21       0.2618
      4  O        -19.1650   30.8220  -21.6280 O.2    21  SER21      -0.2717
      5  CB       -20.7420   29.3920  -24.1370 C.3    21  SER21       0.2103
      6  OG       -21.5540   30.4280  -23.6220 O.3    21  SER21      -0.2182
      7  N        -19.1790   28.5890  -21.4510 N.am   22  LYS22      -0.1979
      8  CA       -19.0560   28.6310  -20.0110 C.3    22  LYS22       0.1596
      9  C        -17.6520   29.0930  -19.5930 C.2    22  LYS22       0.2287
     10  O        -17.5070   29.9220  -18.6910 O.2    22  LYS22      -0.2864
     11  CB       -19.4080   27.2820  -19.3930 C.3    22  LYS22       0.0298
     12  CG       -19.8190   27.4080  -17.9490 C.3    22  LYS22       0.0038
     13  CD       -19.9030   26.0630  -17.2630 C.3    22  LYS22       0.0206
     14  CE       -21.3020   25.4780  -17.3370 C.3    22  LYS22       0.1093
     15  NZ       -21.4430   24.3700  -16.3350 N.3    22  LYS22      -0.1314
     16  N        -17.4210   32.8070  -19.8520 N.3    25  GLY25      -0.1210
     17  CA       -18.1200   33.3680  -18.7110 C.3    25  GLY25       0.1956
     18  C        -17.1850   33.4780  -17.5250 C.2    25  GLY25       0.2611
     19  O        -17.1200   34.5140  -16.8680 O.2    25  GLY25      -0.2717
     20  N        -16.4420   32.4050  -17.2770 N.am   26  ILE26      -0.1979
     21  CA       -15.4890   32.3630  -16.1830 C.3    26  ILE26       0.1595
     22  C        -14.3800   33.4030  -16.3600 C.2    26  ILE26       0.2287
     23  O        -14.0350   34.1180  -15.4140 O.2    26  ILE26      -0.2864
     24  CB       -14.8720   30.9690  -16.0460 C.3    26  ILE26       0.0276
     25  CG1      -15.9370   29.9790  -15.5850 C.3    26  ILE26       0.0022
     26  CG2      -13.6840   31.0090  -15.0870 C.3    26  ILE26       0.0022
     27  CD1      -15.4080   28.6130  -15.3230 C.3    26  ILE26       0.0001
     28  N        -14.6070   36.0820  -18.0200 N.3    28  ASN28      -0.1225
     29  CA       -15.2280   37.3800  -17.8520 C.3    28  ASN28       0.1785
     30  C        -15.2970   37.7760  -16.3760 C.2    28  ASN28       0.2598
     31  O        -15.0180   38.9230  -16.0100 O.2    28  ASN28      -0.2718
     32  CB       -16.6170   37.4030  -18.4970 C.3    28  ASN28       0.1169
     33  CG       -17.2210   38.7870  -18.5160 C.2    28  ASN28       0.2627
     34  OD1      -16.5470   39.7690  -18.8310 O.2    28  ASN28      -0.2716
     35  ND2      -18.4890   38.8800  -18.1560 N.am   28  ASN28      -0.0877
     36  N        -15.6590   36.8200  -15.5280 N.am   29  SER29      -0.1938
     37  CA       -15.7040   37.0530  -14.0940 C.3    29  SER29       0.2055
     38  C        -14.3160   37.3230  -13.5360 C.2    29  SER29       0.2643
     39  O        -14.1370   38.2090  -12.7090 O.2    29  SER29      -0.2714
     40  CB       -16.2990   35.8490  -13.3820 C.3    29  SER29       0.2130
     41  OG       -17.5730   35.5720  -13.9130 O.3    29  SER29      -0.2179
     42  N        -13.3450   36.5350  -13.9800 N.am   30  PHE30      -0.1973
     43  CA       -11.9470   36.7180  -13.6110 C.3    30  PHE30       0.1639
     44  C        -11.4470   38.1420  -13.9020 C.2    30  PHE30       0.2290
     45  O        -10.8230   38.7690  -13.0550 O.2    30  PHE30      -0.2864
     46  CB       -11.1210   35.6740  -14.3520 C.3    30  PHE30       0.0560
     47  CG        -9.6370   35.8580  -14.2600 C.ar   30  PHE30      -0.0200
     48  CD1       -8.9390   36.4880  -15.2960 C.ar   30  PHE30      -0.0042
     49  CD2       -8.9260   35.3360  -13.1830 C.ar   30  PHE30      -0.0042
     50  CE1       -7.5630   36.6350  -15.2500 C.ar   30  PHE30      -0.0003
     51  CE2       -7.5410   35.4660  -13.1260 C.ar   30  PHE30      -0.0003
     52  CZ        -6.8530   36.1260  -14.1620 C.ar   30  PHE30      -0.0000
     53  N        -13.6400   40.6670  -11.5000 N.3    33  ASP33      -0.1239
     54  CA       -13.3910   40.5760  -10.0690 C.3    33  ASP33       0.1674
     55  C        -11.9840   41.0270   -9.6740 C.2    33  ASP33       0.2266
     56  O        -11.7800   41.6020   -8.5990 O.2    33  ASP33      -0.2867
     57  CB       -13.7020   39.1650   -9.5540 C.3    33  ASP33       0.1410
     58  CG       -15.1610   38.7560   -9.8060 C.2    33  ASP33       0.3668
     59  OD1      -15.9810   39.6330  -10.1830 O.co2  33  ASP33      -0.2456
     60  OD2      -15.4930   37.5570   -9.6200 O.co2  33  ASP33      -0.2456
     61  N        -13.9910   24.7700  -19.1310 N.3   155  PRO155     -0.2116
     62  CA       -13.6430   25.0730  -17.7380 C.3   155  PRO155      0.1372
     63  C        -12.5880   24.1330  -17.1470 C.2   155  PRO155      0.2244
     64  O        -11.7230   24.6050  -16.4240 O.2   155  PRO155     -0.2868
     65  CB       -14.9780   24.9390  -17.0160 C.3   155  PRO155      0.0268
     66  CG       -15.9680   25.4050  -18.0460 C.3   155  PRO155      0.0207
     67  CD       -15.4450   24.8710  -19.3580 C.3   155  PRO155      0.0892
     68  N         -9.2570   25.5980  -17.8420 N.3   158  LEU158     -0.1231
     69  CA        -8.9580   26.7460  -17.0100 C.3   158  LEU158      0.1693
     70  C         -8.5540   26.2570  -15.6210 C.2   158  LEU158      0.2591
     71  O         -7.6360   26.7940  -14.9950 O.2   158  LEU158     -0.2718
     72  CB       -10.1680   27.6520  -16.9080 C.3   158  LEU158      0.0284
     73  CG       -10.6330   28.3560  -18.1720 C.3   158  LEU158      0.0019
     74  CD1      -11.7960   29.2670  -17.8240 C.3   158  LEU158      0.0001
     75  CD2       -9.4980   29.1420  -18.7760 C.3   158  LEU158      0.0001
     76  N         -9.2370   25.2240  -15.1490 N.am  159  GLN159     -0.1979
     77  CA        -8.9670   24.6820  -13.8340 C.3   159  GLN159      0.1601
     78  C         -7.5510   24.0950  -13.7640 C.2   159  GLN159      0.2287
     79  O         -6.8790   24.2430  -12.7480 O.2   159  GLN159     -0.2864
     80  CB       -10.0330   23.6490  -13.4550 C.3   159  GLN159      0.0394
     81  CG        -9.9180   23.1310  -12.0350 C.3   159  GLN159      0.0908
     82  CD       -11.0420   22.1700  -11.6580 C.2   159  GLN159      0.2608
     83  OE1      -11.1550   21.0570  -12.2050 O.2   159  GLN159     -0.2717
     84  NE2      -11.8860   22.5960  -10.7140 N.am  159  GLN159     -0.0878
     85  N         -4.9180   27.0190  -13.6650 N.3   162  ILE162     -0.1231
     86  CA        -4.8780   27.7260  -12.3920 C.3   162  ILE162      0.1692
     87  C         -4.4450   26.8470  -11.2170 C.2   162  ILE162      0.2591
     88  O         -3.5540   27.2280  -10.4740 O.2   162  ILE162     -0.2718
     89  CB        -6.2040   28.4810  -12.1390 C.3   162  ILE162      0.0266
     90  CG1       -6.2440   29.6970  -13.0710 C.3   162  ILE162      0.0019
     91  CG2       -6.3180   28.9090  -10.6910 C.3   162  ILE162      0.0020
     92  CD1       -7.5980   30.1860  -13.3910 C.3   162  ILE162      0.0001
     93  N         -5.0360   25.6660  -11.0620 N.am  163  ARG163     -0.1980
     94  CA        -4.6210   24.7690   -9.9860 C.3   163  ARG163      0.1597
     95  C         -3.1590   24.3490  -10.1290 C.2   163  ARG163      0.2287
     96  O         -2.4440   24.2020   -9.1400 O.2   163  ARG163     -0.2864
     97  CB        -5.4960   23.5120   -9.9200 C.3   163  ARG163      0.0334
     98  CG        -6.9560   23.7460   -9.5500 C.3   163  ARG163      0.0492
     99  CD        -7.1190   24.7070   -8.3840 C.3   163  ARG163      0.2205
    100  NE        -8.4290   24.5560   -7.7560 N.pl3 163  ARG163     -0.0865
    101  CZ        -8.7630   25.0720   -6.5760 C.cat 163  ARG163      0.5346
    102  NH1       -7.8850   25.7900   -5.8780 N.pl3 163  ARG163      0.1354
    103  NH2       -9.9820   24.8640   -6.0930 N.pl3 163  ARG163      0.1354
    104  N         -6.3850   33.2880   -7.5190 N.3   172  ILE172     -0.1231
    105  CA        -7.8150   32.9640   -7.4910 C.3   172  ILE172      0.1692
    106  C         -8.3830   32.9150   -6.0640 C.2   172  ILE172      0.2591
    107  O         -9.4470   33.4730   -5.8020 O.2   172  ILE172     -0.2718
    108  CB        -8.1440   31.6710   -8.2870 C.3   172  ILE172      0.0266
    109  CG1       -8.4400   32.0100   -9.7530 C.3   172  ILE172      0.0019
    110  CG2       -9.3670   30.9810   -7.7330 C.3   172  ILE172      0.0020
    111  CD1       -7.2390   32.4400  -10.5550 C.3   172  ILE172      0.0001
    112  N         -7.6610   32.2760   -5.1430 N.am  173  LYS173     -0.1980
    113  CA        -8.0630   32.2570   -3.7260 C.3   173  LYS173      0.1596
    114  C         -8.1780   33.6610   -3.1070 C.2   173  LYS173      0.2287
    115  O         -9.1600   33.9600   -2.4430 O.2   173  LYS173     -0.2864
    116  CB        -7.1470   31.3520   -2.8960 C.3   173  LYS173      0.0298
    117  CG        -7.4560   29.8770   -3.0540 C.3   173  LYS173      0.0038
    118  CD        -6.3310   28.9860   -2.5540 C.3   173  LYS173      0.0206
    119  CE        -6.5130   27.5580   -3.0760 C.3   173  LYS173      0.1093
    120  NZ        -5.3710   26.6330   -2.7620 N.3   173  LYS173     -0.1314
    121  N         -8.7820   36.4600   -4.6480 N.3   175  THR175     -0.1203
    122  CA        -9.8240   37.2200   -5.3050 C.3   175  THR175      0.1994
    123  C        -11.1900   36.7920   -4.7770 C.2   175  THR175      0.2617
    124  O        -12.0540   37.6230   -4.4840 O.2   175  THR175     -0.2717
    125  CB        -9.7810   37.0000   -6.8310 C.3   175  THR175      0.1784
    126  OG1       -8.4760   37.3230   -7.3320 O.3   175  THR175     -0.2211
    127  CG2      -10.8030   37.8690   -7.5230 C.3   175  THR175      0.0376
    128  N        -11.3800   35.4830   -4.6650 N.am  176  ILE176     -0.1979
    129  CA       -12.6460   34.9420   -4.2180 C.3   176  ILE176      0.1595
    130  C        -12.8600   35.3330   -2.7780 C.2   176  ILE176      0.2287
    131  O        -13.9700   35.6970   -2.3830 O.2   176  ILE176     -0.2864
    132  CB       -12.6660   33.4190   -4.3270 C.3   176  ILE176      0.0276
    133  CG1      -12.7460   32.9970   -5.7880 C.3   176  ILE176      0.0022
    134  CG2      -13.8510   32.8450   -3.5830 C.3   176  ILE176      0.0022
    135  CD1      -12.9430   31.5220   -5.9520 C.3   176  ILE176      0.0001
@<TRIPOS>BOND
     1     5     2    1
     2     5     6    1
     3     1     2    1
     4     2     3    1
     5     3     4    2
     6     3     7   am
     7     7     8    1
     8     8     9    1
     9     8    11    1
    10    16    17    1
    11     9    10    2
    12    11    12    1
    13    67    61    1
    14    67    66    1
    15    61    62    1
    16    34    33    2
    17    75    73    1
    18    17    18    1
    19    33    32    1
    20    33    35   am
    21    32    29    1
    22    73    74    1
    23    73    72    1
    24    66    65    1
    25    28    29    1
    26    12    13    1
    27    29    30    1
    28    68    69    1
    29    62    63    1
    30    62    65    1
    31    18    20   am
    32    18    19    2
    33    14    13    1
    34    14    15    1
    35    20    21    1
    36    63    64    2
    37    69    72    1
    38    69    70    1
    39    30    31    2
    40    30    36   am
    41    22    21    1
    42    22    23    2
    43    21    24    1
    44    24    25    1
    45    24    26    1
    46    70    76   am
    47    70    71    2
    48    25    27    1
    49    36    37    1
    50    48    50   ar
    51    48    47   ar
    52    50    52   ar
    53    76    77    1
    54    46    47    1
    55    46    43    1
    56    47    49   ar
    57    52    51   ar
    58    37    38    1
    59    37    40    1
    60    42    43    1
    61    42    38   am
    62    41    40    1
    63    44    43    1
    64    44    45    2
    65    77    78    1
    66    77    80    1
    67    78    79    2
    68    85    86    1
    69    38    39    2
    70    80    81    1
    71    92    90    1
    72    49    51   ar
    73    90    89    1
    74    86    89    1
    75    86    87    1
    76    83    82    2
    77    89    91    1
    78    81    82    1
    79    82    84   am
    80    53    54    1
    81    87    93   am
    82    87    88    2
    83    93    94    1
    84   111   109    1
    85    59    58   ar
    86    95    94    1
    87    95    96    2
    88    54    55    1
    89    54    57    1
    90    94    97    1
    91    97    98    1
    92    58    60   ar
    93    58    57    1
    94   109   108    1
    95    55    56    2
    96    98    99    1
    97    99   100    1
    98   108   110    1
    99   108   105    1
   100   100   101    2
   101   127   125    1
   102   104   105    1
   103   105   106    1
   104   126   125    1
   105   125   122    1
   106   101   103    1
   107   101   102    1
   108   106   107    2
   109   106   112   am
   110   135   133    1
   111   133   132    1
   112   122   123    1
   113   122   121    1
   114   112   113    1
   115   123   128   am
   116   123   124    2
   117   128   129    1
   118   132   129    1
   119   132   134    1
   120   129   130    1
   121   113   114    1
   122   113   116    1
   123   114   115    2
   124   119   120    1
   125   119   118    1
   126   117   116    1
   127   117   118    1
   128   130   131    2
