@<TRIPOS>MOLECULE
tmp/4nfuB00.pdb
 95 93 0 0 0
SMALL
GASTEIGER

@<TRIPOS>ATOM
      1  N         71.3210   34.6160  -18.0580 N.3   464  VAL464     -0.1245
      2  CA        71.2560   33.2070  -18.4280 C.3   464  VAL464      0.1561
      3  C         71.7860   32.3290  -17.2990 C.2   464  VAL464      0.2260
      4  O         71.2340   31.2650  -17.0220 O.2   464  VAL464     -0.2867
      5  CB        72.0480   32.9300  -19.7240 C.3   464  VAL464      0.0252
      6  CG1       72.0280   31.4450  -20.0660 C.3   464  VAL464      0.0019
      7  CG2       71.4790   33.7480  -20.8700 C.3   464  VAL464      0.0019
      8  N         69.0930   32.1310  -14.6840 N.3   467  GLU467     -0.1231
      9  CA        67.9870   31.3020  -15.1540 C.3   467  GLU467      0.1699
     10  C         68.3180   29.8210  -15.0000 C.2   467  GLU467      0.2592
     11  O         67.4680   29.0250  -14.5990 O.2   467  GLU467     -0.2718
     12  CB        67.6460   31.6100  -16.6120 C.3   467  GLU467      0.0402
     13  CG        66.5230   30.7380  -17.1530 C.3   467  GLU467      0.1161
     14  CD        66.1910   31.0210  -18.6020 C.2   467  GLU467      0.3649
     15  OE1       66.7010   32.0190  -19.1520 O.co2 467  GLU467     -0.2457
     16  OE2       65.4180   30.2390  -19.1900 O.co2 467  GLU467     -0.2457
     17  N         69.5570   29.4590  -15.3190 N.am  468  GLY468     -0.1957
     18  CA        70.0190   28.0950  -15.1430 C.3   468  GLY468      0.1869
     19  C         69.9980   27.7000  -13.6820 C.2   468  GLY468      0.2309
     20  O         69.6070   26.5870  -13.3290 O.2   468  GLY468     -0.2863
     21  N         66.2380   27.2500  -12.6340 N.3   471  TRP471     -0.1241
     22  CA        65.6800   26.0180  -13.1740 C.3   471  TRP471      0.1605
     23  C         66.2500   24.7910  -12.4710 C.2   471  TRP471      0.2264
     24  O         65.5600   23.7890  -12.2990 O.2   471  TRP471     -0.2867
     25  CB        65.9340   25.9260  -14.6790 C.3   471  TRP471      0.0550
     26  CG        65.3000   24.7260  -15.3120 C.ar  471  TRP471      0.0003
     27  CD1       65.9320   23.7250  -15.9890 C.ar  471  TRP471      0.0946
     28  CD2       63.9050   24.3930  -15.3110 C.ar  471  TRP471      0.0152
     29  NE1       65.0160   22.7940  -16.4200 N.ar  471  TRP471     -0.2442
     30  CE2       63.7660   23.1800  -16.0160 C.ar  471  TRP471      0.0810
     31  CE3       62.7610   25.0040  -14.7870 C.ar  471  TRP471      0.0012
     32  CZ2       62.5300   22.5670  -16.2080 C.ar  471  TRP471      0.0191
     33  CZ3       61.5360   24.3930  -14.9790 C.ar  471  TRP471      0.0001
     34  CH2       61.4290   23.1880  -15.6840 C.ar  471  TRP471      0.0015
     35  N         62.1220   39.8660  -16.6720 N.3   497  TYR497     -0.1241
     36  CA        62.9880   39.0350  -17.4990 C.3   497  TYR497      0.1605
     37  C         62.2750   38.6470  -18.7870 C.2   497  TYR497      0.2264
     38  O         62.8890   38.5510  -19.8480 O.2   497  TYR497     -0.2867
     39  CB        63.4210   37.7850  -16.7310 C.3   497  TYR497      0.0534
     40  CG        64.4210   36.9140  -17.4550 C.ar  497  TYR497     -0.0201
     41  CD1       65.5700   37.4580  -18.0130 C.ar  497  TYR497     -0.0009
     42  CD2       64.2280   35.5430  -17.5590 C.ar  497  TYR497     -0.0009
     43  CE1       66.4930   36.6620  -18.6680 C.ar  497  TYR497      0.0417
     44  CE2       65.1460   34.7380  -18.2070 C.ar  497  TYR497      0.0417
     45  CZ        66.2760   35.3030  -18.7620 C.ar  497  TYR497      0.1957
     46  OH        67.1900   34.5050  -19.4100 O.3   497  TYR497     -0.2866
     47  N         63.9990   39.3950  -22.5600 N.3   501  LYS501     -0.1245
     48  CA        64.6330   38.2890  -23.2720 C.3   501  LYS501      0.1561
     49  C         63.9070   37.9860  -24.5800 C.2   501  LYS501      0.2260
     50  O         64.3810   37.1960  -25.3970 O.2   501  LYS501     -0.2867
     51  CB        64.6950   37.0420  -22.3860 C.3   501  LYS501      0.0271
     52  CG        63.3890   36.2830  -22.2600 C.3   501  LYS501      0.0035
     53  CD        63.4950   35.2310  -21.1680 C.3   501  LYS501      0.0206
     54  CE        62.3760   34.2090  -21.2490 C.3   501  LYS501      0.1093
     55  NZ        62.5460   33.3090  -22.4230 N.3   501  LYS501     -0.1314
     56  N         62.8740   34.3210  -27.5030 N.3   504  ASN504     -0.1225
     57  CA        63.5350   33.0390  -27.2920 C.3   504  ASN504      0.1785
     58  C         62.8490   32.2310  -26.1930 C.2   504  ASN504      0.2598
     59  O         62.2750   32.7960  -25.2610 O.2   504  ASN504     -0.2718
     60  CB        65.0100   33.2480  -26.9560 C.3   504  ASN504      0.1169
     61  CG        65.8940   32.1590  -27.5280 C.2   504  ASN504      0.2627
     62  OD1       65.4350   31.0480  -27.7930 O.2   504  ASN504     -0.2716
     63  ND2       67.1690   32.4730  -27.7250 N.am  504  ASN504     -0.0877
     64  N         62.9060   30.9080  -26.3090 N.am  505  SER505     -0.1938
     65  CA        62.2240   30.0300  -25.3650 C.3   505  SER505      0.2055
     66  C         63.2020   29.1610  -24.5860 C.2   505  SER505      0.2644
     67  O         64.3540   28.9950  -24.9840 O.2   505  SER505     -0.2714
     68  CB        61.2150   29.1420  -26.0950 C.3   505  SER505      0.2130
     69  OG        60.5590   28.2710  -25.1880 O.3   505  SER505     -0.2179
     70  N         62.7250   28.6070  -23.4760 N.am  506  SER506     -0.1935
     71  CA        63.5390   27.7480  -22.6240 C.3   506  SER506      0.2055
     72  C         62.6540   26.8530  -21.7630 C.2   506  SER506      0.2643
     73  O         61.4270   26.9310  -21.8290 O.2   506  SER506     -0.2714
     74  CB        64.4600   28.5880  -21.7360 C.3   506  SER506      0.2130
     75  OG        63.7070   29.3990  -20.8440 O.3   506  SER506     -0.2179
     76  N         63.2810   26.0040  -20.9580 N.am  507  TYR507     -0.1959
     77  CA        62.5440   25.1140  -20.0710 C.3   507  TYR507      0.1771
     78  C         61.7970   25.9000  -18.9990 C.2   507  TYR507      0.2619
     79  O         60.6400   25.6030  -18.6930 O.2   507  TYR507     -0.2715
     80  CB        63.4890   24.1010  -19.4270 C.3   507  TYR507      0.0574
     81  CG        63.9460   23.0160  -20.3760 C.ar  507  TYR507     -0.0198
     82  CD1       63.1420   22.6080  -21.4310 C.ar  507  TYR507     -0.0009
     83  CD2       65.1820   22.4020  -20.2190 C.ar  507  TYR507     -0.0009
     84  CE1       63.5530   21.6160  -22.3040 C.ar  507  TYR507      0.0417
     85  CE2       65.6030   21.4090  -21.0860 C.ar  507  TYR507      0.0417
     86  CZ        64.7840   21.0200  -22.1260 C.ar  507  TYR507      0.1957
     87  OH        65.1980   20.0340  -22.9920 O.3   507  TYR507     -0.2866
     88  N         62.4620   26.9050  -18.4380 N.am  508  LEU508     -0.1977
     89  CA        61.8460   27.7640  -17.4330 C.3   508  LEU508      0.1596
     90  C         60.7210   28.5950  -18.0360 C.2   508  LEU508      0.2287
     91  O         59.6900   28.8090  -17.4010 O.2   508  LEU508     -0.2864
     92  CB        62.8860   28.6880  -16.7930 C.3   508  LEU508      0.0297
     93  CG        62.3400   29.6430  -15.7240 C.3   508  LEU508      0.0022
     94  CD1       61.7790   28.8810  -14.5230 C.3   508  LEU508      0.0001
     95  CD2       63.4020   30.6370  -15.2840 C.3   508  LEU508      0.0001
@<TRIPOS>BOND
     1    62    61    2
     2    63    61   am
     3    61    60    1
     4    56    57    1
     5    57    60    1
     6    57    58    1
     7    64    58   am
     8    64    65    1
     9    58    59    2
    10    68    65    1
    11    68    69    1
    12    50    49    2
    13    65    66    1
    14    67    66    2
    15    66    70   am
    16    49    48    1
    17    70    71    1
    18    48    47    1
    19    48    51    1
    20    87    86    1
    21    71    72    1
    22    71    74    1
    23    55    54    1
    24    51    52    1
    25    84    86   ar
    26    84    82   ar
    27    52    53    1
    28    86    85   ar
    29    73    72    2
    30    72    76   am
    31    74    75    1
    32    82    81   ar
    33    54    53    1
    34    85    83   ar
    35    76    77    1
    36     7     5    1
    37    81    83   ar
    38    81    80    1
    39    77    80    1
    40    77    78    1
    41     6     5    1
    42    38    37    2
    43     5     2    1
    44    46    45    1
    45    16    14   ar
    46    15    14   ar
    47    78    79    2
    48    78    88   am
    49    37    36    1
    50    45    43   ar
    51    45    44   ar
    52    43    41   ar
    53    14    13    1
    54    88    89    1
    55     2     1    1
    56     2     3    1
    57    44    42   ar
    58    90    89    1
    59    90    91    2
    60    41    40   ar
    61    42    40   ar
    62    36    39    1
    63    36    35    1
    64    40    39    1
    65    89    92    1
    66     3     4    2
    67    13    12    1
    68    92    93    1
    69    12     9    1
    70    29    30   ar
    71    29    27   ar
    72    32    30   ar
    73    32    34   ar
    74    30    28   ar
    75    27    26   ar
    76    93    95    1
    77    93    94    1
    78    34    33   ar
    79    17    18    1
    80    17    10   am
    81    26    28   ar
    82    26    25    1
    83    28    31   ar
    84     9    10    1
    85     9     8    1
    86    18    19    1
    87    10    11    2
    88    33    31   ar
    89    25    22    1
    90    19    20    2
    91    22    21    1
    92    22    23    1
    93    23    24    2
