@<TRIPOS>MOLECULE
tmp/4nfuA00.pdb
 75 69 0 0 0
SMALL
GASTEIGER

@<TRIPOS>ATOM
      1  N         63.8980   14.3100   54.3990 N.3   166  SER166     -0.1217
      2  CA        63.5580   15.6130   54.9570 C.3   166  SER166      0.1889
      3  C         62.6240   16.3930   54.0360 C.2   166  SER166      0.2288
      4  O         61.6490   16.9960   54.4910 O.2   166  SER166     -0.2866
      5  CB        64.8270   16.4260   55.2200 C.3   166  SER166      0.2089
      6  OG        64.5110   17.7640   55.5660 O.3   166  SER166     -0.2183
      7  N         58.6090   17.6210   54.5570 N.3   170  GLY170     -0.1225
      8  CA        58.2430   19.0080   54.3430 C.3   170  GLY170      0.1811
      9  C         57.0930   19.1670   53.3650 C.2   170  GLY170      0.2280
     10  O         56.1790   19.9590   53.6020 O.2   170  GLY170     -0.2866
     11  N         56.6200   17.7130   58.7700 N.3   175  SER175     -0.1217
     12  CA        57.7950   18.1500   59.5230 C.3   175  SER175      0.1889
     13  C         57.4350   18.8310   60.8410 C.2   175  SER175      0.2288
     14  O         58.1720   18.7310   61.8220 O.2   175  SER175     -0.2866
     15  CB        58.6440   19.0980   58.6740 C.3   175  SER175      0.2089
     16  OG        59.1110   18.4490   57.5080 O.3   175  SER175     -0.2183
     17  N         62.9190   17.5080   60.6380 N.3   270  GLY270     -0.1225
     18  CA        62.0690   18.0720   61.6710 C.3   270  GLY270      0.1811
     19  C         62.7400   19.2270   62.3870 C.2   270  GLY270      0.2280
     20  O         63.8730   19.5920   62.0730 O.2   270  GLY270     -0.2866
     21  N         64.2350   25.2370   62.2350 N.3   284  ASN284     -0.1225
     22  CA        63.4590   24.4240   61.3010 C.3   284  ASN284      0.1785
     23  C         64.2570   24.0060   60.0680 C.2   284  ASN284      0.2597
     24  O         64.1750   22.8610   59.6210 O.2   284  ASN284     -0.2718
     25  CB        62.2010   25.1760   60.8580 C.3   284  ASN284      0.1169
     26  CG        61.1750   25.3020   61.9650 C.2   284  ASN284      0.2627
     27  OD1       61.0420   24.4150   62.8080 O.2   284  ASN284     -0.2716
     28  ND2       60.4370   26.4050   61.9640 N.am  284  ASN284     -0.0877
     29  N         65.0260   24.9430   59.5240 N.am  285  ASN285     -0.1960
     30  CA        65.7660   24.7190   58.2840 C.3   285  ASN285      0.1819
     31  C         66.8300   23.6250   58.4040 C.2   285  ASN285      0.2622
     32  O         67.7950   23.7610   59.1560 O.2   285  ASN285     -0.2715
     33  CB        66.4160   26.0260   57.8310 C.3   285  ASN285      0.1195
     34  CG        67.0810   25.9070   56.4820 C.2   285  ASN285      0.2630
     35  OD1       68.2150   25.4460   56.3770 O.2   285  ASN285     -0.2716
     36  ND2       66.3760   26.3240   55.4370 N.am  285  ASN285     -0.0877
     37  N         66.6480   22.5480   57.6480 N.am  286  SER286     -0.1950
     38  CA        67.5340   21.3900   57.7090 C.3   286  SER286      0.1924
     39  C         68.9850   21.7350   57.3740 C.2   286  SER286      0.2314
     40  O         69.9090   21.2460   58.0250 O.2   286  SER286     -0.2863
     41  CB        67.0280   20.2970   56.7640 C.3   286  SER286      0.2116
     42  OG        67.8840   19.1660   56.7830 O.3   286  SER286     -0.2180
     43  N         66.4410   29.6450   51.8790 N.3   364  GLU364     -0.1245
     44  CA        65.0420   29.2850   52.0600 C.3   364  GLU364      0.1567
     45  C         64.1470   30.4870   51.7830 C.2   364  GLU364      0.2260
     46  O         63.0550   30.3460   51.2310 O.2   364  GLU364     -0.2867
     47  CB        64.7960   28.7530   53.4730 C.3   364  GLU364      0.0388
     48  CG        63.3710   28.2830   53.7130 C.3   364  GLU364      0.1160
     49  CD        62.9700   27.1320   52.8060 C.2   364  GLU364      0.3649
     50  OE1       63.8500   26.3270   52.4280 O.co2 364  GLU364     -0.2457
     51  OE2       61.7720   27.0340   52.4680 O.co2 364  GLU364     -0.2457
     52  N         60.0420   26.0040   47.6050 N.3   444  PRO444     -0.2102
     53  CA        59.7860   25.3770   48.9080 C.3   444  PRO444      0.1504
     54  C         59.4050   23.9060   48.7660 C.2   444  PRO444      0.2576
     55  O         58.8640   23.5150   47.7320 O.2   444  PRO444     -0.2718
     56  CB        58.6200   26.1980   49.4730 C.3   444  PRO444      0.0282
     57  CG        58.7080   27.5130   48.7660 C.3   444  PRO444      0.0208
     58  CD        59.1890   27.1840   47.3860 C.3   444  PRO444      0.0893
     59  N         59.6960   23.1050   49.7880 N.am  445  ASP445     -0.1960
     60  CA        59.3960   21.6740   49.7640 C.3   445  ASP445      0.1840
     61  C         57.9290   21.3750   49.4510 C.2   445  ASP445      0.2621
     62  O         57.6180   20.3640   48.8250 O.2   445  ASP445     -0.2715
     63  CB        59.7730   21.0330   51.1010 C.3   445  ASP445      0.1450
     64  CG        61.2690   20.8570   51.2620 C.2   445  ASP445      0.3671
     65  OD1       61.9780   20.7970   50.2340 O.co2 445  ASP445     -0.2456
     66  OD2       61.7350   20.7690   52.4180 O.co2 445  ASP445     -0.2456
     67  N         57.0370   22.2620   49.8810 N.am  446  GLU446     -0.1977
     68  CA        55.5980   22.0560   49.7270 C.3   446  GLU446      0.1602
     69  C         55.0740   22.2590   48.3050 C.2   446  GLU446      0.2287
     70  O         53.9150   21.9510   48.0280 O.2   446  GLU446     -0.2864
     71  CB        54.8330   22.9930   50.6700 C.3   446  GLU446      0.0415
     72  CG        54.8860   22.6030   52.1370 C.3   446  GLU446      0.1163
     73  CD        54.2640   23.6550   53.0360 C.2   446  GLU446      0.3649
     74  OE1       53.6480   24.6030   52.5040 O.co2 446  GLU446     -0.2457
     75  OE2       54.3960   23.5370   54.2720 O.co2 446  GLU446     -0.2457
@<TRIPOS>BOND
     1    58    52    1
     2    58    57    1
     3    52    53    1
     4    55    54    2
     5    70    69    2
     6    69    68    1
     7    57    56    1
     8    54    53    1
     9    54    59   am
    10    62    61    2
    11    53    56    1
    12    61    60    1
    13    61    67   am
    14    68    67    1
    15    68    71    1
    16    60    59    1
    17    60    63    1
    18    65    64   ar
    19    71    72    1
    20    63    64    1
    21    46    45    2
    22    64    66   ar
    23    45    44    1
    24    43    44    1
    25    44    47    1
    26    72    73    1
    27    50    49   ar
    28    51    49   ar
    29    74    73   ar
    30    49    48    1
    31    73    75   ar
    32     9    10    2
    33     9     8    1
    34    47    48    1
    35     3     4    2
    36     3     2    1
    37     8     7    1
    38     1     2    1
    39     2     5    1
    40     5     6    1
    41    36    34   am
    42    35    34    2
    43    34    33    1
    44    41    42    1
    45    41    38    1
    46    39    38    1
    47    39    40    2
    48    16    15    1
    49    37    38    1
    50    37    31   am
    51    33    30    1
    52    30    31    1
    53    30    29    1
    54    31    32    2
    55    15    12    1
    56    11    12    1
    57    12    13    1
    58    29    23   am
    59    24    23    2
    60    23    22    1
    61    17    18    1
    62    13    14    2
    63    25    22    1
    64    25    26    1
    65    22    21    1
    66    18    19    1
    67    28    26   am
    68    26    27    2
    69    20    19    2
