@<TRIPOS>MOLECULE
tmp/4nfyA00.pdb
 86 85 0 0 0
SMALL
GASTEIGER

@<TRIPOS>ATOM
      1  N         29.7900   19.9300   27.1390 N.3    99  PRO99      -0.2116
      2  CA        28.9950   19.0650   26.2600 C.3    99  PRO99       0.1372
      3  C         28.6130   19.7200   24.9510 C.2    99  PRO99       0.2244
      4  O         28.3330   20.9160   24.9350 O.2    99  PRO99      -0.2868
      5  CB        27.7250   18.7770   27.0900 C.3    99  PRO99       0.0268
      6  CG        28.0940   19.1040   28.4960 C.3    99  PRO99       0.0207
      7  CD        29.0600   20.2510   28.3720 C.3    99  PRO99       0.0892
      8  N         18.5900    8.4030   18.6540 N.3   139  GLY139     -0.1225
      9  CA        19.2020    9.3510   19.5600 C.3   139  GLY139      0.1811
     10  C         19.1750   10.6800   18.8610 C.2   139  GLY139      0.2280
     11  O         19.7070   10.8260   17.7780 O.2   139  GLY139     -0.2866
     12  N         20.0940   13.6360   20.3780 N.3   141  GLY141     -0.1210
     13  CA        20.8680   14.5580   21.2000 C.3   141  GLY141      0.1956
     14  C         21.6630   15.5280   20.3350 C.2   141  GLY141      0.2612
     15  O         21.2100   15.8970   19.2600 O.2   141  GLY141     -0.2717
     16  N         22.8400   15.9520   20.8050 N.am  142  TYR142     -0.1962
     17  CA        23.6700   16.9360   20.0860 C.3   142  TYR142      0.1771
     18  C         24.0690   16.4270   18.7010 C.2   142  TYR142      0.2619
     19  O         23.9020   17.1130   17.6850 O.2   142  TYR142     -0.2715
     20  CB        24.9550   17.2380   20.8660 C.3   142  TYR142      0.0574
     21  CG        24.7700   17.9920   22.1710 C.ar  142  TYR142     -0.0198
     22  CD1       24.3720   19.3190   22.1740 C.ar  142  TYR142     -0.0009
     23  CD2       25.0320   17.3880   23.3990 C.ar  142  TYR142     -0.0009
     24  CE1       24.2070   20.0170   23.3620 C.ar  142  TYR142      0.0417
     25  CE2       24.8700   18.0810   24.5840 C.ar  142  TYR142      0.0417
     26  CZ        24.4630   19.3950   24.5540 C.ar  142  TYR142      0.1957
     27  OH        24.3100   20.1040   25.7120 O.3   142  TYR142     -0.2866
     28  N         24.5940   15.2050   18.6900 N.am  143  VAL143     -0.1977
     29  CA        25.0880   14.5440   17.4820 C.3   143  VAL143      0.1596
     30  C         23.9250   14.2670   16.5340 C.2   143  VAL143      0.2287
     31  O         23.9240   14.6820   15.3680 O.2   143  VAL143     -0.2864
     32  CB        25.7880   13.2030   17.8380 C.3   143  VAL143      0.0276
     33  CG1       26.1280   12.4090   16.5890 C.3   143  VAL143      0.0022
     34  CG2       27.0400   13.4520   18.6700 C.3   143  VAL143      0.0022
     35  N         13.9810    8.4110   19.8640 N.3   162  ASP162     -0.1239
     36  CA        14.7230    8.7630   21.0490 C.3   162  ASP162      0.1674
     37  C         13.7660    8.7050   22.2240 C.2   162  ASP162      0.2266
     38  O         12.8380    9.5020   22.2860 O.2   162  ASP162     -0.2867
     39  CB        15.3250   10.1650   20.9270 C.3   162  ASP162      0.1410
     40  CG        16.3690   10.4340   21.9820 C.2   162  ASP162      0.3668
     41  OD1       16.1870   10.0040   23.1420 O.co2 162  ASP162     -0.2456
     42  OD2       17.3800   11.0800   21.6470 O.co2 162  ASP162     -0.2456
     43  N         14.4260    9.3330   25.4050 N.3   164  PHE164     -0.1227
     44  CA        14.7340   10.3310   26.4410 C.3   164  PHE164      0.1736
     45  C         14.3340   11.7580   26.0630 C.2   164  PHE164      0.2595
     46  O         14.1890   12.6170   26.9320 O.2   164  PHE164     -0.2718
     47  CB        16.2310   10.3060   26.7500 C.3   164  PHE164      0.0547
     48  CG        16.7700    8.9300   26.9850 C.ar  164  PHE164     -0.0202
     49  CD1       16.3920    8.2120   28.1040 C.ar  164  PHE164     -0.0042
     50  CD2       17.6410    8.3460   26.0770 C.ar  164  PHE164     -0.0042
     51  CE1       16.8790    6.9400   28.3220 C.ar  164  PHE164     -0.0003
     52  CE2       18.1370    7.0760   26.2900 C.ar  164  PHE164     -0.0003
     53  CZ        17.7540    6.3720   27.4170 C.ar  164  PHE164     -0.0000
     54  N         14.1850   12.0110   24.7690 N.am  165  ILE165     -0.1980
     55  CA        13.8700   13.3330   24.2600 C.3   165  ILE165      0.1595
     56  C         12.4400   13.3030   23.7500 C.2   165  ILE165      0.2287
     57  O         11.9640   12.2760   23.2630 O.2   165  ILE165     -0.2864
     58  CB        14.8330   13.7090   23.1020 C.3   165  ILE165      0.0276
     59  CG1       15.5660   15.0300   23.3680 C.3   165  ILE165      0.0022
     60  CG2       14.1300   13.7280   21.7440 C.3   165  ILE165      0.0022
     61  CD1       16.9800   14.8270   23.8930 C.3   165  ILE165      0.0001
     62  N         23.2170    6.9360   17.7460 N.3   187  HIS187     -0.1226
     63  CA        23.7810    7.9470   18.6500 C.3   187  HIS187      0.1752
     64  C         23.1210    7.8840   20.0130 C.2   187  HIS187      0.2596
     65  O         22.7130    8.9200   20.5560 O.2   187  HIS187     -0.2718
     66  CB        23.5570    9.3500   18.1110 C.3   187  HIS187      0.0759
     67  CG        23.6260    9.4400   16.6310 C.ar  187  HIS187      0.0818
     68  ND1       24.8170    9.4230   15.9450 N.ar  187  HIS187     -0.2268
     69  CD2       22.6500    9.5420   15.6990 C.ar  187  HIS187      0.1154
     70  CE1       24.5730    9.5090   14.6510 C.ar  187  HIS187      0.1986
     71  NE2       23.2650    9.5760   14.4740 N.ar  187  HIS187     -0.2212
     72  N         23.0020    6.6770   20.5530 N.am  188  LEU188     -0.1966
     73  CA        22.3220    6.4520   21.8230 C.3   188  LEU188      0.1713
     74  C         23.3390    6.2130   22.9230 C.2   188  LEU188      0.2458
     75  O         24.3380    5.5350   22.6950 O.2   188  LEU188     -0.2730
     76  CB        21.4370    5.2140   21.7390 C.3   188  LEU188      0.0310
     77  CG        20.2260    5.2420   20.8030 C.3   188  LEU188      0.0022
     78  CD1       19.6700    3.8370   20.6850 C.3   188  LEU188      0.0001
     79  CD2       19.1490    6.2090   21.2740 C.3   188  LEU188      0.0001
     80  N         23.0720    6.7350   24.1330 N.am  189  PRO189     -0.2727
     81  CA        23.9380    6.4130   25.2680 C.3   189  PRO189      0.1402
     82  C         23.7910    4.9500   25.7030 C.2   189  PRO189      0.2269
     83  O         22.6950    4.3980   25.6180 O.2   189  PRO189     -0.2865
     84  CB        23.4500    7.3650   26.3620 C.3   189  PRO189      0.0296
     85  CG        22.0380    7.6630   26.0080 C.3   189  PRO189      0.0237
     86  CD        21.9860    7.6570   24.5080 C.3   189  PRO189      0.0939
@<TRIPOS>BOND
     1    71    70   ar
     2    71    69   ar
     3    70    68   ar
     4    31    30    2
     5    69    67   ar
     6    68    67   ar
     7    30    29    1
     8    33    32    1
     9    67    66    1
    10    29    32    1
    11    29    28    1
    12    19    18    2
    13    62    63    1
    14    11    10    2
    15    32    34    1
    16    66    63    1
    17    63    64    1
    18     8     9    1
    19    28    18   am
    20    18    17    1
    21    10     9    1
    22    15    14    2
    23    35    36    1
    24    64    72   am
    25    64    65    2
    26    17    16    1
    27    17    20    1
    28    14    16   am
    29    14    13    1
    30    12    13    1
    31    72    73    1
    32    78    77    1
    33    77    79    1
    34    77    76    1
    35    20    21    1
    36    39    36    1
    37    39    40    1
    38    36    37    1
    39    42    40   ar
    40    76    73    1
    41    60    58    1
    42    73    74    1
    43    40    41   ar
    44    21    22   ar
    45    21    23   ar
    46    22    24   ar
    47    37    38    2
    48    75    74    2
    49    74    80   am
    50    58    59    1
    51    58    55    1
    52    57    56    2
    53    24    26   ar
    54    59    61    1
    55    23    25   ar
    56    56    55    1
    57    80    86    1
    58    80    81    1
    59    55    54    1
    60    86    85    1
    61    26    25   ar
    62    26    27    1
    63    54    45   am
    64     4     3    2
    65     3     2    1
    66    81    82    1
    67    81    84    1
    68    43    44    1
    69    83    82    2
    70    85    84    1
    71    45    44    1
    72    45    46    2
    73    50    52   ar
    74    50    48   ar
    75     2     5    1
    76     2     1    1
    77    52    53   ar
    78    44    47    1
    79    47    48    1
    80    48    49   ar
    81     5     6    1
    82     1     7    1
    83    53    51   ar
    84    49    51   ar
    85     7     6    1
