@<TRIPOS>MOLECULE
tmp/4ng3A00.pdb
 121 113 0 0 0
SMALL
GASTEIGER

@<TRIPOS>ATOM
      1  N         39.4330  -68.9150   47.8750 N.3     8  GLU8       -0.1245
      2  CA        38.7000  -67.9800   47.0150 C.3     8  GLU8        0.1567
      3  C         39.1420  -66.5450   47.2700 C.2     8  GLU8        0.2260
      4  O         38.3440  -65.6830   47.6270 O.2     8  GLU8       -0.2867
      5  CB        37.1730  -68.1150   47.1790 C.3     8  GLU8        0.0388
      6  CG        36.3750  -67.4370   46.0450 C.3     8  GLU8        0.1160
      7  CD        34.8680  -67.4460   46.2820 C.2     8  GLU8        0.3649
      8  OE1       34.2850  -68.5430   46.4470 O.co2   8  GLU8       -0.2457
      9  OE2       34.2660  -66.3530   46.3140 O.co2   8  GLU8       -0.2457
     10  N         40.5010  -63.0300   46.2670 N.3    10  ALA10      -0.1245
     11  CA        40.4790  -62.1740   45.0950 C.3    10  ALA10       0.1562
     12  C         41.6940  -61.2560   45.0260 C.2    10  ALA10       0.2260
     13  O         42.1930  -60.7900   46.0440 O.2    10  ALA10      -0.2867
     14  CB        39.1800  -61.3540   45.0700 C.3    10  ALA10       0.0290
     15  N         28.5370  -53.3350   40.2030 N.3    35  LEU35      -0.1245
     16  CA        29.8400  -53.5450   40.8260 C.3    35  LEU35       0.1561
     17  C         30.9240  -52.7030   40.1520 C.2    35  LEU35       0.2260
     18  O         31.7300  -52.0540   40.8210 O.2    35  LEU35      -0.2867
     19  CB        30.2280  -55.0280   40.7610 C.3    35  LEU35       0.0270
     20  CG        31.6860  -55.3590   41.0640 C.3    35  LEU35       0.0019
     21  CD1       31.9510  -55.1930   42.5490 C.3    35  LEU35       0.0001
     22  CD2       32.0310  -56.7860   40.6130 C.3    35  LEU35       0.0001
     23  N         32.6550  -47.5680   46.6370 N.3    46  ARG46      -0.1245
     24  CA        33.5570  -48.4340   47.3850 C.3    46  ARG46       0.1563
     25  C         34.9980  -48.1090   46.9970 C.2    46  ARG46       0.2260
     26  O         35.6850  -48.9280   46.3850 O.2    46  ARG46      -0.2867
     27  CB        33.2280  -49.8990   47.0810 C.3    46  ARG46       0.0307
     28  CG        31.7880  -50.2660   47.3970 C.3    46  ARG46       0.0489
     29  CD        31.4180  -51.6440   46.8650 C.3    46  ARG46       0.2205
     30  NE        31.9240  -52.7530   47.6850 N.pl3  46  ARG46      -0.0865
     31  CZ        31.6680  -54.0340   47.4280 C.cat  46  ARG46       0.5346
     32  NH1       30.9200  -54.3580   46.3780 N.pl3  46  ARG46       0.1354
     33  NH2       32.1490  -54.9950   48.2120 N.pl3  46  ARG46       0.1354
     34  N         39.7190  -61.1730   40.3210 N.3    77  THR77      -0.1203
     35  CA        38.4010  -60.9480   40.8980 C.3    77  THR77       0.1994
     36  C         37.3430  -60.8400   39.8130 C.2    77  THR77       0.2617
     37  O         37.6420  -60.4540   38.6760 O.2    77  THR77      -0.2717
     38  CB        38.3880  -59.6670   41.7480 C.3    77  THR77       0.1784
     39  OG1       37.1630  -59.5830   42.4830 O.3    77  THR77      -0.2211
     40  CG2       38.5540  -58.4210   40.8710 C.3    77  THR77       0.0376
     41  N         36.1090  -61.1870   40.1610 N.am   78  ALA78      -0.1979
     42  CA        35.0060  -61.0250   39.2220 C.3    78  ALA78       0.1597
     43  C         34.9080  -59.5510   38.8460 C.2    78  ALA78       0.2287
     44  O         35.1690  -58.6770   39.6810 O.2    78  ALA78      -0.2864
     45  CB        33.7000  -61.5190   39.8390 C.3    78  ALA78       0.0319
     46  N         33.4080  -69.0500   39.7190 N.3   174  HIS174     -0.1241
     47  CA        33.0880  -68.0110   40.6930 C.3   174  HIS174      0.1621
     48  C         31.8510  -67.2400   40.2190 C.2   174  HIS174      0.2264
     49  O         31.5280  -67.2430   39.0220 O.2   174  HIS174     -0.2867
     50  CB        34.3080  -67.0890   40.8340 C.3   174  HIS174      0.0745
     51  CG        34.1520  -66.0120   41.8630 C.ar  174  HIS174      0.0817
     52  ND1       33.5160  -64.8190   41.5990 N.ar  174  HIS174     -0.2268
     53  CD2       34.5570  -65.9460   43.1540 C.ar  174  HIS174      0.1154
     54  CE1       33.5220  -64.0700   42.6880 C.ar  174  HIS174      0.1986
     55  NE2       34.1540  -64.7280   43.6440 N.ar  174  HIS174     -0.2212
     56  N         24.0190  -58.6520   43.8160 N.3   193  SER193     -0.1202
     57  CA        25.3170  -59.0300   44.3670 C.3   193  SER193      0.2020
     58  C         25.2930  -60.3270   45.1720 C.2   193  SER193      0.2618
     59  O         24.4400  -61.2030   44.9690 O.2   193  SER193     -0.2717
     60  CB        25.8510  -57.8620   45.2250 C.3   193  SER193      0.2103
     61  OG        27.2150  -58.0390   45.6040 O.3   193  SER193     -0.2182
     62  N         26.2470  -60.4440   46.0890 N.am  194  ALA194     -0.1979
     63  CA        26.4350  -61.6620   46.8800 C.3   194  ALA194      0.1597
     64  C         25.2380  -62.0640   47.7360 C.2   194  ALA194      0.2287
     65  O         25.0440  -63.2550   48.0280 O.2   194  ALA194     -0.2864
     66  CB        27.6690  -61.5090   47.7560 C.3   194  ALA194      0.0319
     67  N         24.3140  -63.5310   43.0370 N.3   198  TYR198     -0.1241
     68  CA        25.5120  -64.3150   42.7450 C.3   198  TYR198      0.1605
     69  C         25.2240  -65.8170   42.8290 C.2   198  TYR198      0.2264
     70  O         25.6410  -66.5880   41.9700 O.2   198  TYR198     -0.2867
     71  CB        26.6600  -63.9600   43.7000 C.3   198  TYR198      0.0534
     72  CG        27.4390  -62.7130   43.3220 C.ar  198  TYR198     -0.0201
     73  CD1       27.0000  -61.8700   42.3070 C.ar  198  TYR198     -0.0009
     74  CD2       28.6400  -62.4020   43.9590 C.ar  198  TYR198     -0.0009
     75  CE1       27.7250  -60.7280   41.9450 C.ar  198  TYR198      0.0417
     76  CE2       29.3660  -61.2610   43.6080 C.ar  198  TYR198      0.0417
     77  CZ        28.8970  -60.4290   42.6060 C.ar  198  TYR198      0.1957
     78  OH        29.6080  -59.3020   42.2500 O.3   198  TYR198     -0.2866
     79  N         30.7860  -70.5360   48.2050 N.3   227  HIS227     -0.1241
     80  CA        29.5260  -70.2310   48.8930 C.3   227  HIS227      0.1621
     81  C         28.7320  -71.4930   49.2100 C.2   227  HIS227      0.2264
     82  O         27.5190  -71.5700   48.9840 O.2   227  HIS227     -0.2867
     83  CB        28.7530  -69.1950   48.0820 C.3   227  HIS227      0.0745
     84  CG        29.6500  -68.1260   47.5480 C.ar  227  HIS227      0.0817
     85  ND1       29.9560  -68.0050   46.2090 N.ar  227  HIS227     -0.2268
     86  CD2       30.4020  -67.2000   48.1910 C.ar  227  HIS227      0.1154
     87  CE1       30.8210  -67.0180   46.0470 C.ar  227  HIS227      0.1986
     88  NE2       31.1060  -66.5110   47.2330 N.ar  227  HIS227     -0.2212
     89  N         32.1610  -67.2180   52.3790 N.3   273  GLY273     -0.1225
     90  CA        30.9660  -66.4420   52.6930 C.3   273  GLY273      0.1811
     91  C         29.8280  -67.2090   53.3330 C.2   273  GLY273      0.2280
     92  O         28.7190  -66.6840   53.4600 O.2   273  GLY273     -0.2866
     93  N         37.2750  -65.6000   51.0660 N.3   297  ASP297     -0.1239
     94  CA        36.6700  -64.6090   50.1630 C.3   297  ASP297      0.1674
     95  C         37.2040  -63.1910   50.4480 C.2   297  ASP297      0.2266
     96  O         36.4770  -62.2000   50.2970 O.2   297  ASP297     -0.2867
     97  CB        35.1280  -64.6390   50.2520 C.3   297  ASP297      0.1410
     98  CG        34.4430  -64.4930   48.9010 C.2   297  ASP297      0.3668
     99  OD1       35.0600  -63.9660   47.9480 O.co2 297  ASP297     -0.2456
    100  OD2       33.2580  -64.8960   48.8040 O.co2 297  ASP297     -0.2456
    101  N         36.5590  -59.2790   50.1700 N.3   300  TYR300     -0.1227
    102  CA        35.1230  -59.0480   50.3020 C.3   300  TYR300      0.1736
    103  C         34.5970  -59.5300   51.6540 C.2   300  TYR300      0.2595
    104  O         33.5330  -59.1020   52.0990 O.2   300  TYR300     -0.2718
    105  CB        34.3640  -59.6940   49.1380 C.3   300  TYR300      0.0548
    106  CG        34.8460  -59.1910   47.7980 C.ar  300  TYR300     -0.0200
    107  CD1       34.5810  -57.8810   47.3890 C.ar  300  TYR300     -0.0009
    108  CD2       35.6140  -60.0010   46.9610 C.ar  300  TYR300     -0.0009
    109  CE1       35.0360  -57.4060   46.1770 C.ar  300  TYR300      0.0417
    110  CE2       36.0830  -59.5270   45.7420 C.ar  300  TYR300      0.0417
    111  CZ        35.7840  -58.2300   45.3590 C.ar  300  TYR300      0.1957
    112  OH        36.2260  -57.7430   44.1560 O.3   300  TYR300     -0.2866
    113  N         35.3500  -60.4260   52.2940 N.am  301  GLN301     -0.1979
    114  CA        35.0920  -60.8640   53.6710 C.3   301  GLN301      0.1601
    115  C         36.3870  -60.7200   54.4500 C.2   301  GLN301      0.2287
    116  O         37.4700  -60.8760   53.8800 O.2   301  GLN301     -0.2864
    117  CB        34.6860  -62.3410   53.7250 C.3   301  GLN301      0.0394
    118  CG        33.4630  -62.7130   52.9230 C.3   301  GLN301      0.0908
    119  CD        32.2450  -62.9090   53.7900 C.2   301  GLN301      0.2608
    120  OE1       32.3290  -62.8990   55.0250 O.2   301  GLN301     -0.2717
    121  NE2       31.0990  -63.0860   53.1530 N.am  301  GLN301     -0.0878
@<TRIPOS>BOND
     1    37    36    2
     2    43    42    1
     3    43    44    2
     4    49    48    2
     5    42    45    1
     6    42    41    1
     7    46    47    1
     8    36    41   am
     9    36    35    1
    10    17    18    2
    11    17    16    1
    12    15    16    1
    13    48    47    1
    14    34    35    1
    15    22    20    1
    16    47    50    1
    17    19    16    1
    18    19    20    1
    19    50    51    1
    20    40    38    1
    21    35    38    1
    22    20    21    1
    23    52    51   ar
    24    52    54   ar
    25    38    39    1
    26    51    53   ar
    27    75    73   ar
    28    75    77   ar
    29    70    69    2
    30    78    77    1
    31    73    72   ar
    32    77    76   ar
    33    54    55   ar
    34    68    69    1
    35    68    67    1
    36    68    71    1
    37    53    55   ar
    38    72    71    1
    39    72    74   ar
    40    76    74   ar
    41    56    57    1
    42   112   111    1
    43    57    58    1
    44    57    60    1
    45    59    58    2
    46    12    11    1
    47    12    13    2
    48    14    11    1
    49    11    10    1
    50    58    62   am
    51    60    61    1
    52   111   110   ar
    53   111   109   ar
    54   110   108   ar
    55     6     7    1
    56     6     5    1
    57    87    85   ar
    58    87    88   ar
    59    62    63    1
    60   109   107   ar
    61    85    84   ar
    62     7     9   ar
    63     7     8   ar
    64    32    31    1
    65    26    25    2
    66    23    24    1
    67    29    28    1
    68    29    30    1
    69    63    64    1
    70    63    66    1
    71   108   106   ar
    72    25    24    1
    73     2     5    1
    74     2     3    1
    75     2     1    1
    76    27    24    1
    77    27    28    1
    78    88    86   ar
    79     3     4    2
    80   107   106   ar
    81    31    30    2
    82    31    33    1
    83    84    83    1
    84    84    86   ar
    85    64    65    2
    86   106   105    1
    87    99    98   ar
    88    83    80    1
    89    79    80    1
    90   100    98   ar
    91    80    81    1
    92    98    97    1
    93    82    81    2
    94   105   102    1
    95    94    97    1
    96    94    95    1
    97    94    93    1
    98   101   102    1
    99    96    95    2
   100   102   103    1
   101   103   104    2
   102   103   113   am
   103   113   114    1
   104    89    90    1
   105    90    91    1
   106   118   117    1
   107   118   119    1
   108   121   119   am
   109    91    92    2
   110   114   117    1
   111   114   115    1
   112   119   120    2
   113   116   115    2
