@<TRIPOS>MOLECULE
tmp/4ng4B00.pdb
 156 147 0 0 0
SMALL
GASTEIGER

@<TRIPOS>ATOM
      1  N        -43.4210   33.1740   34.0840 N.3   189  GLY189     -0.1210
      2  CA       -42.7090   34.2840   34.6780 C.3   189  GLY189      0.1956
      3  C        -43.4220   34.9190   35.8350 C.2   189  GLY189      0.2612
      4  O        -44.5130   34.5090   36.2100 O.2   189  GLY189     -0.2717
      5  N        -42.7940   35.9390   36.3920 N.am  190  SER190     -0.1952
      6  CA       -43.2570   36.5320   37.6270 C.3   190  SER190      0.1924
      7  C        -44.4460   37.4400   37.3880 C.2   190  SER190      0.2314
      8  O        -45.2490   37.6290   38.3000 O.2   190  SER190     -0.2863
      9  CB       -42.1190   37.3380   38.2650 C.3   190  SER190      0.2116
     10  OG       -40.8420   36.8620   37.8290 O.3   190  SER190     -0.2180
     11  N        -44.6820   40.6070   30.0450 N.3   195  LYS195     -0.1245
     12  CA       -44.8110   39.6370   28.9280 C.3   195  LYS195      0.1561
     13  C        -46.0920   39.7540   28.0860 C.2   195  LYS195      0.2260
     14  O        -46.3320   38.9530   27.1760 O.2   195  LYS195     -0.2867
     15  CB       -44.5890   38.2070   29.4660 C.3   195  LYS195      0.0271
     16  CG       -43.1660   38.0700   30.0340 C.3   195  LYS195      0.0035
     17  CD       -42.6130   36.6770   30.0230 C.3   195  LYS195      0.0206
     18  CE       -41.1250   36.7430   30.2260 C.3   195  LYS195      0.1093
     19  NZ       -40.5580   35.4200   30.5590 N.3   195  LYS195     -0.1314
     20  N        -46.7900   30.2760   36.1550 N.3   213  GLY213     -0.1210
     21  CA       -46.3330   31.1220   37.2510 C.3   213  GLY213      0.1956
     22  C        -47.2240   32.3070   37.5390 C.2   213  GLY213      0.2612
     23  O        -48.4560   32.2310   37.3980 O.2   213  GLY213     -0.2717
     24  N        -46.5890   33.4010   37.9760 N.am  214  GLY214     -0.1956
     25  CA       -47.2640   34.6690   38.2270 C.3   214  GLY214      0.1869
     26  C        -48.3020   34.9240   37.1700 C.2   214  GLY214      0.2309
     27  O        -49.4750   35.1370   37.4820 O.2   214  GLY214     -0.2863
     28  N        -51.1810   32.6290   37.5730 N.3   217  ASN217     -0.1240
     29  CA       -51.8860   33.0600   38.7870 C.3   217  ASN217      0.1653
     30  C        -52.7400   34.3130   38.5250 C.2   217  ASN217      0.2266
     31  O        -53.8540   34.4260   39.0240 O.2   217  ASN217     -0.2867
     32  CB       -50.9060   33.2930   39.9480 C.3   217  ASN217      0.1155
     33  CG       -50.1080   32.0380   40.3230 C.2   217  ASN217      0.2627
     34  OD1      -48.9850   32.1380   40.8330 O.2   217  ASN217     -0.2716
     35  ND2      -50.6780   30.8670   40.0710 N.am  217  ASN217     -0.0877
     36  N        -48.4930   34.9320   44.0850 N.3   231  LEU231     -0.1245
     37  CA       -47.9990   36.0550   43.2940 C.3   231  LEU231      0.1561
     38  C        -48.9760   36.3610   42.1750 C.2   231  LEU231      0.2260
     39  O        -49.3630   35.4660   41.4330 O.2   231  LEU231     -0.2867
     40  CB       -46.6170   35.7350   42.7060 C.3   231  LEU231      0.0270
     41  CG       -45.7470   36.9520   42.3540 C.3   231  LEU231      0.0019
     42  CD1      -45.3510   37.7360   43.6440 C.3   231  LEU231      0.0001
     43  CD2      -44.5190   36.5140   41.5630 C.3   231  LEU231      0.0001
     44  N        -42.4740   29.4200   51.4730 N.3   266  LEU266     -0.1245
     45  CA       -41.6540   28.9490   50.3510 C.3   266  LEU266      0.1561
     46  C        -40.2620   28.4750   50.7800 C.2   266  LEU266      0.2260
     47  O        -39.3250   29.2730   50.8960 O.2   266  LEU266     -0.2867
     48  CB       -41.5340   30.0370   49.2870 C.3   266  LEU266      0.0270
     49  CG       -40.6900   29.7450   48.0380 C.3   266  LEU266      0.0019
     50  CD1      -40.9430   28.3540   47.4520 C.3   266  LEU266      0.0001
     51  CD2      -40.9420   30.8550   46.9940 C.3   266  LEU266      0.0001
     52  N        -49.6550   29.4570   45.3400 N.3   286  ILE286     -0.1231
     53  CA       -49.3780   28.4920   44.2850 C.3   286  ILE286      0.1692
     54  C        -47.9330   28.6090   43.8360 C.2   286  ILE286      0.2592
     55  O        -47.5290   29.6660   43.3450 O.2   286  ILE286     -0.2718
     56  CB       -50.2890   28.7210   43.0600 C.3   286  ILE286      0.0266
     57  CG1      -51.7480   28.5060   43.4650 C.3   286  ILE286      0.0019
     58  CG2      -49.8930   27.7800   41.9130 C.3   286  ILE286      0.0020
     59  CD1      -52.7300   28.7920   42.3870 C.3   286  ILE286      0.0001
     60  N        -47.1740   27.5200   43.9810 N.am  287  PHE287     -0.1962
     61  CA       -45.7610   27.4580   43.5670 C.3   287  PHE287      0.1771
     62  C        -45.4680   26.5180   42.3970 C.2   287  PHE287      0.2619
     63  O        -44.3360   26.4790   41.9100 O.2   287  PHE287     -0.2715
     64  CB       -44.8980   27.0260   44.7450 C.3   287  PHE287      0.0574
     65  CG       -45.0310   27.8960   45.9410 C.ar  287  PHE287     -0.0200
     66  CD1      -44.9170   29.2680   45.8310 C.ar  287  PHE287     -0.0042
     67  CD2      -45.2440   27.3440   47.1920 C.ar  287  PHE287     -0.0042
     68  CE1      -45.0270   30.0840   46.9500 C.ar  287  PHE287     -0.0003
     69  CE2      -45.3530   28.1480   48.3190 C.ar  287  PHE287     -0.0003
     70  CZ       -45.2410   29.5240   48.1940 C.ar  287  PHE287     -0.0000
     71  N        -46.4590   25.7470   41.9660 N.am  288  ASP288     -0.1971
     72  CA       -46.2760   24.8180   40.8410 C.3   288  ASP288      0.1709
     73  C        -47.6240   24.3450   40.3320 C.2   288  ASP288      0.2293
     74  O        -48.6410   24.4600   41.0090 O.2   288  ASP288     -0.2864
     75  CB       -45.4420   23.5930   41.2630 C.3   288  ASP288      0.1436
     76  CG       -44.5680   23.0350   40.1440 C.2   288  ASP288      0.3671
     77  OD1      -44.5550   23.5930   39.0280 O.co2 288  ASP288     -0.2456
     78  OD2      -43.8800   22.0130   40.3810 O.co2 288  ASP288     -0.2456
     79  N        -40.6740   30.2910   26.9050 N.3   310  ASN310     -0.1225
     80  CA       -39.9960   31.3170   27.6440 C.3   310  ASN310      0.1785
     81  C        -40.6000   31.4560   29.0230 C.2   310  ASN310      0.2598
     82  O        -41.6480   32.0680   29.1780 O.2   310  ASN310     -0.2718
     83  CB       -40.1520   32.6400   26.9090 C.3   310  ASN310      0.1169
     84  CG       -39.7130   33.8210   27.7410 C.2   310  ASN310      0.2627
     85  OD1      -40.4030   34.8460   27.7880 O.2   310  ASN310     -0.2716
     86  ND2      -38.5670   33.6850   28.4120 N.am  310  ASN310     -0.0877
     87  N        -39.9410   30.8790   30.0180 N.am  311  GLY311     -0.1943
     88  CA       -40.3210   31.0660   31.4120 C.3   311  GLY311      0.1998
     89  C        -40.7080   29.7830   32.0980 C.2   311  GLY311      0.2481
     90  O        -41.5560   29.0530   31.5930 O.2   311  GLY311     -0.2729
     91  N        -40.1090   29.5020   33.2640 N.am  312  PRO312     -0.2715
     92  CA       -40.4750   28.3040   34.0270 C.3   312  PRO312      0.1536
     93  C        -41.8750   28.4640   34.6150 C.2   312  PRO312      0.2598
     94  O        -42.2890   29.5890   34.8940 O.2   312  PRO312     -0.2715
     95  CB       -39.4310   28.2580   35.1290 C.3   312  PRO312      0.0310
     96  CG       -39.0820   29.7030   35.3690 C.3   312  PRO312      0.0237
     97  CD       -39.2660   30.4230   34.0490 C.3   312  PRO312      0.0939
     98  N        -42.5890   27.3520   34.7720 N.am  313  ILE313     -0.1964
     99  CA       -44.0080   27.3510   35.1610 C.3   313  ILE313      0.1727
    100  C        -44.2390   27.0020   36.6390 C.2   313  ILE313      0.2617
    101  O        -45.3860   26.8740   37.0920 O.2   313  ILE313     -0.2715
    102  CB       -44.8420   26.4170   34.2440 C.3   313  ILE313      0.0290
    103  CG1      -44.3260   24.9790   34.2880 C.3   313  ILE313      0.0022
    104  CG2      -44.8400   26.9410   32.8150 C.3   313  ILE313      0.0023
    105  CD1      -45.1520   24.0950   35.1460 C.3   313  ILE313      0.0001
    106  N        -43.1460   26.8500   37.3810 N.am  314  GLY314     -0.1940
    107  CA       -43.2040   26.8430   38.8370 C.3   314  GLY314      0.2014
    108  C        -41.8970   27.3190   39.4420 C.2   314  GLY314      0.2638
    109  O        -40.9140   27.5820   38.7330 O.2   314  GLY314     -0.2714
    110  N        -41.8700   27.4180   40.7610 N.am  315  VAL315     -0.1977
    111  CA       -40.6740   27.8520   41.4570 C.3   315  VAL315      0.1596
    112  C        -39.6790   26.7020   41.4300 C.2   315  VAL315      0.2287
    113  O        -39.3910   26.0900   42.4540 O.2   315  VAL315     -0.2864
    114  CB       -40.9900   28.2640   42.9050 C.3   315  VAL315      0.0276
    115  CG1      -39.7800   28.9310   43.5510 C.3   315  VAL315      0.0022
    116  CG2      -42.1880   29.2000   42.9260 C.3   315  VAL315      0.0022
    117  N        -36.5440   26.4240   41.3380 N.3   317  GLU317     -0.1245
    118  CA       -35.2770   26.5460   42.0780 C.3   317  GLU317      0.1567
    119  C        -35.3080   25.7510   43.3770 C.2   317  GLU317      0.2260
    120  O        -34.3290   25.1080   43.7340 O.2   317  GLU317     -0.2867
    121  CB       -34.9360   28.0130   42.3910 C.3   317  GLU317      0.0388
    122  CG       -34.8340   28.9350   41.1460 C.3   317  GLU317      0.1160
    123  CD       -36.1450   29.6840   40.7970 C.2   317  GLU317      0.3649
    124  OE1      -37.2310   29.3210   41.3180 O.co2 317  GLU317     -0.2457
    125  OE2      -36.0880   30.6390   39.9870 O.co2 317  GLU317     -0.2457
    126  N        -34.6060   32.9830   27.5860 N.3   343  GLY343     -0.1210
    127  CA       -34.8750   33.5250   28.9230 C.3   343  GLY343      0.1956
    128  C        -33.8200   33.1110   29.9400 C.2   343  GLY343      0.2612
    129  O        -33.4060   31.9550   29.9740 O.2   343  GLY343     -0.2717
    130  N        -33.4070   34.0620   30.7830 N.am  344  GLY344     -0.1942
    131  CA       -32.3810   33.8240   31.7850 C.3   344  GLY344      0.2014
    132  C        -32.7340   32.6590   32.6800 C.2   344  GLY344      0.2639
    133  O        -31.9660   31.7020   32.7880 O.2   344  GLY344     -0.2714
    134  N        -33.9100   32.7200   33.3010 N.am  345  ASP345     -0.1957
    135  CA       -34.3060   31.7030   34.2730 C.3   345  ASP345      0.1840
    136  C        -34.6460   30.3460   33.6410 C.2   345  ASP345      0.2622
    137  O        -34.3810   29.3080   34.2480 O.2   345  ASP345     -0.2715
    138  CB       -35.4680   32.2040   35.1470 C.3   345  ASP345      0.1450
    139  CG       -35.0380   33.2560   36.1850 C.2   345  ASP345      0.3671
    140  OD1      -34.0880   33.0220   36.9730 O.co2 345  ASP345     -0.2456
    141  OD2      -35.6800   34.3220   36.2220 O.co2 345  ASP345     -0.2456
    142  N        -35.2120   30.3630   32.4350 N.am  346  THR346     -0.1951
    143  CA       -35.5720   29.1430   31.6940 C.3   346  THR346      0.1897
    144  C        -34.3370   28.3330   31.3130 C.2   346  THR346      0.2313
    145  O        -34.3150   27.1020   31.4750 O.2   346  THR346     -0.2863
    146  CB       -36.3340   29.4670   30.3770 C.3   346  THR346      0.1794
    147  OG1      -37.3880   30.4110   30.6220 O.3   346  THR346     -0.2208
    148  CG2      -36.9270   28.1980   29.7720 C.3   346  THR346      0.0378
    149  N        -36.5710   38.3190   23.3700 N.3   370  LEU370     -0.1245
    150  CA       -37.9290   38.6670   23.7790 C.3   370  LEU370      0.1561
    151  C        -38.5580   39.7030   22.8410 C.2   370  LEU370      0.2260
    152  O        -39.6410   39.4560   22.3130 O.2   370  LEU370     -0.2867
    153  CB       -37.9580   39.1330   25.2420 C.3   370  LEU370      0.0270
    154  CG       -37.6720   37.9860   26.2360 C.3   370  LEU370      0.0019
    155  CD1      -37.1760   38.4580   27.6410 C.3   370  LEU370      0.0001
    156  CD2      -38.9030   37.1000   26.3600 C.3   370  LEU370      0.0001
@<TRIPOS>BOND
     1   152   151    2
     2   151   150    1
     3   149   150    1
     4   150   153    1
     5   153   154    1
     6   154   156    1
     7   154   155    1
     8    79    80    1
     9    83    80    1
    10    83    84    1
    11    14    13    2
    12   126   127    1
    13    80    81    1
    14    84    85    2
    15    84    86   am
    16    13    12    1
    17   127   128    1
    18    12    15    1
    19    12    11    1
    20    81    82    2
    21    81    87   am
    22    15    16    1
    23   148   146    1
    24   128   129    2
    25   128   130   am
    26    87    88    1
    27    17    16    1
    28    17    18    1
    29    18    19    1
    30   146   147    1
    31   146   143    1
    32   130   131    1
    33   144   145    2
    34   144   143    1
    35    88    89    1
    36    90    89    2
    37   143   142    1
    38   131   132    1
    39    89    91   am
    40   142   136   am
    41   132   133    2
    42   132   134   am
    43   104   102    1
    44    91    92    1
    45    91    97    1
    46   134   135    1
    47   136   137    2
    48   136   135    1
    49    92    93    1
    50    92    95    1
    51    97    96    1
    52     1     2    1
    53   102   103    1
    54   102    99    1
    55   135   138    1
    56   103   105    1
    57    93    98   am
    58    93    94    2
    59     2     3    1
    60    98    99    1
    61    95    96    1
    62   138   139    1
    63    99   100    1
    64     3     4    2
    65     3     5   am
    66    20    21    1
    67   139   141   ar
    68   139   140   ar
    69     5     6    1
    70   100   101    2
    71   100   106   am
    72    26    27    2
    73    26    25    1
    74    21    22    1
    75   106   107    1
    76     7     6    1
    77     7     8    2
    78    23    22    2
    79    22    24   am
    80    28    29    1
    81     6     9    1
    82    10     9    1
    83    24    25    1
    84    30    29    1
    85    30    31    2
    86   109   108    2
    87    29    32    1
    88   107   108    1
    89    77    76   ar
    90   108   110   am
    91    32    33    1
    92   125   123   ar
    93    35    33   am
    94    76    78   ar
    95    76    75    1
    96    33    34    2
    97    73    72    1
    98    73    74    2
    99   110   111    1
   100   123   122    1
   101   123   124   ar
   102    72    75    1
   103    72    71    1
   104   122   121    1
   105   117   118    1
   106   112   111    1
   107   112   113    2
   108    39    38    2
   109   111   114    1
   110    43    41    1
   111    63    62    2
   112    58    56    1
   113    71    62   am
   114   118   121    1
   115   118   119    1
   116    38    37    1
   117    41    40    1
   118    41    42    1
   119    59    57    1
   120    62    61    1
   121    40    37    1
   122   114   116    1
   123   114   115    1
   124    56    57    1
   125    56    53    1
   126    37    36    1
   127    55    54    2
   128   119   120    2
   129    61    60    1
   130    61    64    1
   131    54    60   am
   132    54    53    1
   133    53    52    1
   134    64    65    1
   135    66    65   ar
   136    66    68   ar
   137    65    67   ar
   138    68    70   ar
   139    51    49    1
   140    67    69   ar
   141    50    49    1
   142    49    48    1
   143    70    69   ar
   144    48    45    1
   145    45    46    1
   146    45    44    1
   147    46    47    2
