@<TRIPOS>MOLECULE
tmp/4ng9A00.pdb
 191 189 0 0 0
SMALL
GASTEIGER

@<TRIPOS>ATOM
      1  N          4.7280   33.9660   17.2680 N.3    41  HIS41      -0.1241
      2  CA         4.5750   35.3000   17.8640 C.3    41  HIS41       0.1621
      3  C          5.6610   36.3240   17.4740 C.2    41  HIS41       0.2264
      4  O          5.4430   37.5240   17.5930 O.2    41  HIS41      -0.2867
      5  CB         4.3410   35.2150   19.3830 C.3    41  HIS41       0.0745
      6  CG         5.5970   35.1380   20.2070 C.ar   41  HIS41       0.0817
      7  ND1        6.0140   33.9520   20.7770 N.ar   41  HIS41      -0.2268
      8  CD2        6.4740   36.1100   20.5400 C.ar   41  HIS41       0.1154
      9  CE1        7.1250   34.2370   21.4300 C.ar   41  HIS41       0.1986
     10  NE2        7.4340   35.5250   21.3240 N.ar   41  HIS41      -0.2212
     11  N          4.2490   38.6730   14.6020 N.3    44  ASP44      -0.1225
     12  CA         2.9830   39.3810   14.7920 C.3    44  ASP44       0.1805
     13  C          2.9970   40.8290   14.2810 C.2    44  ASP44       0.2597
     14  O          1.9720   41.3050   13.7870 O.2    44  ASP44      -0.2718
     15  CB         2.6070   39.3850   16.2760 C.3    44  ASP44       0.1424
     16  CG         1.9420   38.1390   16.8060 C.2    44  ASP44       0.3668
     17  OD1        1.8920   37.1150   16.0630 O.co2  44  ASP44      -0.2456
     18  OD2        1.4850   38.1700   17.9530 O.co2  44  ASP44      -0.2456
     19  N          4.1550   41.5200   14.4030 N.am   45  LYS45      -0.1979
     20  CA         4.3020   42.9370   14.0420 C.3    45  LYS45       0.1596
     21  C          5.2070   43.1960   12.8540 C.2    45  LYS45       0.2287
     22  O          5.6680   44.3210   12.7010 O.2    45  LYS45      -0.2864
     23  CB         4.7560   43.7840   15.2610 C.3    45  LYS45       0.0298
     24  CG         3.9710   43.5680   16.5120 C.3    45  LYS45       0.0038
     25  CD         2.5630   44.1000   16.5080 C.3    45  LYS45       0.0206
     26  CE         1.6930   43.4800   17.5860 C.3    45  LYS45       0.1093
     27  NZ         0.9750   42.2120   17.2050 N.3    45  LYS45      -0.1314
     28  N         -2.9360   29.2180   14.9410 N.3    82  TYR82      -0.1241
     29  CA        -2.2730   30.2720   15.7020 C.3    82  TYR82       0.1605
     30  C         -3.0480   31.5760   15.4880 C.2    82  TYR82       0.2264
     31  O         -3.3550   31.9370   14.3410 O.2    82  TYR82      -0.2867
     32  CB        -0.7870   30.4250   15.3130 C.3    82  TYR82       0.0534
     33  CG        -0.1540   31.6490   15.9450 C.ar   82  TYR82      -0.0201
     34  CD1        0.1890   31.6630   17.3000 C.ar   82  TYR82      -0.0009
     35  CD2       -0.0340   32.8420   15.2320 C.ar   82  TYR82      -0.0009
     36  CE1        0.6760   32.8230   17.9120 C.ar   82  TYR82       0.0417
     37  CE2        0.4630   34.0010   15.8360 C.ar   82  TYR82       0.0417
     38  CZ         0.8070   33.9860   17.1750 C.ar   82  TYR82       0.1957
     39  OH         1.3090   35.1250   17.7600 O.3    82  TYR82      -0.2866
     40  N         -1.4100   37.5880   19.0440 N.3    85  GLY85      -0.1210
     41  CA        -1.7270   38.1650   20.3460 C.3    85  GLY85       0.1956
     42  C         -2.1370   37.1500   21.3940 C.2    85  GLY85       0.2613
     43  O         -2.4280   37.5220   22.5360 O.2    85  GLY85      -0.2717
     44  N         -2.2080   35.8540   20.9980 N.am   86  THR86      -0.1938
     45  CA        -2.5280   34.7350   21.8900 C.3    86  THR86       0.2028
     46  C         -1.2930   33.8240   22.0270 C.2    86  THR86       0.2642
     47  O         -0.2540   34.1260   21.4420 O.2    86  THR86      -0.2714
     48  CB        -3.8440   34.0470   21.5210 C.3    86  THR86       0.1808
     49  OG1       -3.6660   33.3150   20.3050 O.3    86  THR86      -0.2208
     50  CG2       -5.0210   35.0340   21.4230 C.3    86  THR86       0.0379
     51  N         -1.3850   32.7560   22.8410 N.am   87  THR87      -0.1950
     52  CA        -0.2480   31.9010   23.1740 C.3    87  THR87       0.1897
     53  C         -0.1990   30.5370   22.5140 C.2    87  THR87       0.2313
     54  O          0.8830   29.9990   22.3620 O.2    87  THR87      -0.2863
     55  CB        -0.1460   31.7560   24.6980 C.3    87  THR87       0.1794
     56  OG1       -1.3530   31.1590   25.1910 O.3    87  THR87      -0.2208
     57  CG2        0.1560   33.0820   25.3990 C.3    87  THR87       0.0378
     58  N          2.2950   28.2420   19.1400 N.3    90  ASP90      -0.1239
     59  CA         3.3740   29.2080   18.9450 C.3    90  ASP90       0.1674
     60  C          4.6210   28.6270   18.2640 C.2    90  ASP90       0.2266
     61  O          5.6820   28.4430   18.8780 O.2    90  ASP90      -0.2867
     62  CB         3.6880   29.9440   20.2640 C.3    90  ASP90       0.1410
     63  CG         4.5530   31.1740   20.1070 C.2    90  ASP90       0.3668
     64  OD1        4.6270   31.7210   18.9640 O.co2  90  ASP90      -0.2456
     65  OD2        5.1380   31.6130   21.1170 O.co2  90  ASP90      -0.2456
     66  N         -2.9350   32.8380   30.7220 N.3   165  PRO165     -0.2116
     67  CA        -3.3670   31.8880   29.6910 C.3   165  PRO165      0.1372
     68  C         -3.2330   30.4640   30.2100 C.2   165  PRO165      0.2244
     69  O         -2.4540   30.1970   31.1390 O.2   165  PRO165     -0.2868
     70  CB        -2.4070   32.1570   28.5180 C.3   165  PRO165      0.0268
     71  CG        -1.6220   33.3630   28.8980 C.3   165  PRO165      0.0207
     72  CD        -1.6200   33.4140   30.3850 C.3   165  PRO165      0.0892
     73  N         15.6580   31.4720   33.9550 N.3   182  ASP182     -0.1225
     74  CA        14.5980   31.4270   32.9470 C.3   182  ASP182      0.1805
     75  C         15.1290   31.9340   31.6080 C.2   182  ASP182      0.2598
     76  O         16.2190   32.5000   31.5470 O.2   182  ASP182     -0.2718
     77  CB        13.4270   32.3600   33.3910 C.3   182  ASP182      0.1424
     78  CG        12.0480   32.0660   32.8260 C.2   182  ASP182      0.3668
     79  OD1       11.9320   31.1660   31.9430 O.co2 182  ASP182     -0.2456
     80  OD2       11.0960   32.7820   33.2000 O.co2 182  ASP182     -0.2456
     81  N         14.3590   31.7030   30.5420 N.am  183  SER183     -0.1938
     82  CA        14.5940   32.2700   29.2190 C.3   183  SER183      0.2055
     83  C         13.6850   33.5190   29.2690 C.2   183  SER183      0.2643
     84  O         12.7330   33.5270   30.0630 O.2   183  SER183     -0.2714
     85  CB        14.2150   31.3060   28.1040 C.3   183  SER183      0.2130
     86  OG        12.8500   30.9540   28.1740 O.3   183  SER183     -0.2179
     87  N         14.0010   34.5630   28.4880 N.am  184  CYS184     -0.1953
     88  CA        13.2700   35.8370   28.4920 C.3   184  CYS184      0.1843
     89  C         12.6890   36.1560   27.1400 C.2   184  CYS184      0.2625
     90  O         12.9370   35.4290   26.1890 O.2   184  CYS184     -0.2714
     91  CB        14.1790   36.9670   28.9700 C.3   184  CYS184      0.0997
     92  SG        15.1230   36.5770   30.4590 S.3   184  CYS184     -0.0797
     93  N         11.9390   37.2720   27.0430 N.am  185  LYS185     -0.1977
     94  CA        11.2970   37.7260   25.8130 C.3   185  LYS185      0.1596
     95  C         12.1980   37.7840   24.5720 C.2   185  LYS185      0.2287
     96  O         11.7390   37.3680   23.5090 O.2   185  LYS185     -0.2864
     97  CB        10.4700   39.0180   26.0170 C.3   185  LYS185      0.0298
     98  CG        11.2570   40.3110   26.1690 C.3   185  LYS185      0.0038
     99  CD        10.2980   41.4980   26.1140 C.3   185  LYS185      0.0206
    100  CE        10.9050   42.7770   26.6240 C.3   185  LYS185      0.1093
    101  NZ         9.9350   43.9020   26.5430 N.3   185  LYS185     -0.1314
    102  N         12.7620   34.3660   22.7350 N.3   188  SER188     -0.1217
    103  CA        11.5920   33.9050   21.9850 C.3   188  SER188      0.1889
    104  C         11.9980   33.2920   20.6750 C.2   188  SER188      0.2288
    105  O         12.7950   33.8850   19.9300 O.2   188  SER188     -0.2866
    106  CB        10.6520   35.0700   21.7060 C.3   188  SER188      0.2089
    107  OG         9.9740   35.4520   22.8890 O.3   188  SER188     -0.2183
    108  N         11.2000   28.6070   22.8710 N.3   206  VAL206     -0.1231
    109  CA        10.9840   29.6960   23.8670 C.3   206  VAL206      0.1692
    110  C          9.7370   30.4660   23.4030 C.2   206  VAL206      0.2593
    111  O          9.7280   31.0200   22.3050 O.2   206  VAL206     -0.2718
    112  CB        12.1930   30.6540   23.9830 C.3   206  VAL206      0.0266
    113  CG1       11.9190   31.7280   25.0390 C.3   206  VAL206      0.0020
    114  CG2       13.4800   29.8810   24.2890 C.3   206  VAL206      0.0020
    115  N          8.6710   30.4140   24.1940 N.am  207  SER207     -0.1938
    116  CA         7.3780   30.9500   23.7850 C.3   207  SER207      0.2055
    117  C          6.8480   32.0880   24.6560 C.2   207  SER207      0.2643
    118  O          6.6630   33.1880   24.1540 O.2   207  SER207     -0.2714
    119  CB         6.3620   29.8070   23.6720 C.3   207  SER207      0.2130
    120  OG         5.0670   30.2620   23.3010 O.3   207  SER207     -0.2179
    121  N          6.5610   31.8160   25.9390 N.am  208  TRP208     -0.1959
    122  CA         5.9980   32.8060   26.8560 C.3   208  TRP208      0.1771
    123  C          6.2040   32.4840   28.3420 C.2   208  TRP208      0.2620
    124  O          6.7840   31.4560   28.6990 O.2   208  TRP208     -0.2715
    125  CB         4.5160   33.0610   26.5560 C.3   208  TRP208      0.0590
    126  CG         3.6070   31.8970   26.7930 C.ar  208  TRP208      0.0006
    127  CD1        3.3040   30.8990   25.9120 C.ar  208  TRP208      0.0946
    128  CD2        2.7650   31.6910   27.9420 C.ar  208  TRP208      0.0152
    129  NE1        2.4000   30.0330   26.4740 N.ar  208  TRP208     -0.2442
    130  CE2        2.0230   30.5160   27.7090 C.ar  208  TRP208      0.0810
    131  CE3        2.6000   32.3660   29.1680 C.ar  208  TRP208      0.0012
    132  CZ2        1.1040   30.0060   28.6490 C.ar  208  TRP208      0.0191
    133  CZ3        1.6950   31.8630   30.0970 C.ar  208  TRP208      0.0001
    134  CH2        0.9650   30.6900   29.8370 C.ar  208  TRP208      0.0015
    135  N          5.7720   33.4250   29.1700 N.am  209  GLY209     -0.1940
    136  CA         5.7980   33.3700   30.6270 C.3   209  GLY209      0.2014
    137  C          5.2710   34.6870   31.1730 C.2   209  GLY209      0.2639
    138  O          4.8200   35.5430   30.4010 O.2   209  GLY209     -0.2714
    139  N          5.3290   34.8640   32.4980 N.am  210  GLN210     -0.1963
    140  CA         4.9020   36.1010   33.1720 C.3   210  GLN210      0.1733
    141  C          6.1960   36.7620   33.6290 C.2   210  GLN210      0.2617
    142  O          6.7880   36.2590   34.5790 O.2   210  GLN210     -0.2715
    143  CB         4.0300   35.7890   34.4070 C.3   210  GLN210      0.0408
    144  CG         3.0150   34.6540   34.2420 C.3   210  GLN210      0.0908
    145  CD         1.6420   35.0710   33.7600 C.2   210  GLN210      0.2608
    146  OE1        0.7560   34.2250   33.5840 O.2   210  GLN210     -0.2717
    147  NE2        1.4160   36.3680   33.5480 N.am  210  GLN210     -0.0878
    148  N          6.6570   37.8160   32.9360 N.am  211  GLY211     -0.1940
    149  CA         7.9170   38.5120   33.2290 C.3   211  GLY211      0.2014
    150  C          9.0710   37.5260   33.3060 C.2   211  GLY211      0.2639
    151  O          8.8110   36.3370   33.5340 O.2   211  GLY211     -0.2714
    152  N         10.3400   37.9370   33.1470 N.am  212  CYS212     -0.1967
    153  CA        11.4400   36.9720   33.1910 C.3   212  CYS212      0.1712
    154  C         11.9040   36.5930   34.5970 C.2   212  CYS212      0.2296
    155  O         12.1540   37.4860   35.4050 O.2   212  CYS212     -0.2864
    156  CB        12.6040   37.4060   32.3030 C.3   212  CYS212      0.0983
    157  SG        13.4880   36.0240   31.5310 S.3   212  CYS212     -0.0798
    158  N          7.0690   29.6290   35.8900 N.3   218  PHE218     -0.1227
    159  CA         7.9800   28.8710   35.0450 C.3   218  PHE218      0.1736
    160  C          7.9080   29.4030   33.6170 C.2   218  PHE218      0.2596
    161  O          6.9290   30.0560   33.2380 O.2   218  PHE218     -0.2718
    162  CB         7.5700   27.3870   35.0550 C.3   218  PHE218      0.0547
    163  CG         7.7150   26.6920   36.3890 C.ar  218  PHE218     -0.0202
    164  CD1        8.9320   26.1420   36.7770 C.ar  218  PHE218     -0.0042
    165  CD2        6.6330   26.5870   37.2580 C.ar  218  PHE218     -0.0042
    166  CE1        9.0640   25.4990   38.0090 C.ar  218  PHE218     -0.0003
    167  CE2        6.7660   25.9430   38.4900 C.ar  218  PHE218     -0.0003
    168  CZ         7.9830   25.4140   38.8630 C.ar  218  PHE218     -0.0000
    169  N          8.9230   29.0770   32.8260 N.am  219  GLY219     -0.1942
    170  CA         8.9530   29.3760   31.4040 C.3   219  GLY219      0.2014
    171  C          7.9930   28.4380   30.7070 C.2   219  GLY219      0.2639
    172  O          7.7910   27.3060   31.1490 O.2   219  GLY219     -0.2714
    173  N          7.3230   28.9290   29.6680 N.am  220  VAL220     -0.1963
    174  CA         6.3850   28.1460   28.8640 C.3   220  VAL220      0.1727
    175  C          6.9660   28.0520   27.4320 C.2   220  VAL220      0.2616
    176  O          7.4330   29.0540   26.8640 O.2   220  VAL220     -0.2715
    177  CB         4.9030   28.6090   28.9460 C.3   220  VAL220      0.0290
    178  CG1        3.9830   27.6040   28.2560 C.3   220  VAL220      0.0023
    179  CG2        4.4690   28.7730   30.4070 C.3   220  VAL220      0.0023
    180  N          7.0160   26.7950   26.9190 N.am  221  TYR221     -0.1974
    181  CA         7.6390   26.3830   25.6770 C.3   221  TYR221      0.1639
    182  C          6.6590   25.6410   24.7890 C.2   221  TYR221      0.2290
    183  O          5.8710   24.8360   25.2760 O.2   221  TYR221     -0.2864
    184  CB         8.8390   25.4600   25.9840 C.3   221  TYR221      0.0560
    185  CG         9.8930   26.1240   26.8430 C.ar  221  TYR221     -0.0198
    186  CD1        9.7670   26.1650   28.2380 C.ar  221  TYR221     -0.0009
    187  CD2       10.9760   26.7790   26.2660 C.ar  221  TYR221     -0.0009
    188  CE1       10.6910   26.8460   29.0280 C.ar  221  TYR221      0.0417
    189  CE2       11.9100   27.4540   27.0460 C.ar  221  TYR221      0.0417
    190  CZ        11.7620   27.4920   28.4290 C.ar  221  TYR221      0.1957
    191  OH        12.6970   28.1600   29.1980 O.3   221  TYR221     -0.2866
@<TRIPOS>BOND
     1    22    21    2
     2    21    20    1
     3    14    13    2
     4    20    19    1
     5    20    23    1
     6    13    19   am
     7    13    12    1
     8    31    30    2
     9    11    12    1
    10    12    15    1
    11    28    29    1
    12    35    37   ar
    13    35    33   ar
    14    23    24    1
    15    32    29    1
    16    32    33    1
    17    30    29    1
    18    37    38   ar
    19    33    34   ar
    20    17    16   ar
    21    15    16    1
    22    25    24    1
    23    25    26    1
    24    16    18   ar
    25    38    39    1
    26    38    36   ar
    27    27    26    1
    28     1     2    1
    29    34    36   ar
    30     3     4    2
    31     3     2    1
    32     2     5    1
    33    60    61    2
    34    60    59    1
    35    59    58    1
    36    59    62    1
    37    64    63   ar
    38    40    41    1
    39     5     6    1
    40   105   104    2
    41    63    62    1
    42    63    65   ar
    43     6     8   ar
    44     6     7   ar
    45    49    48    1
    46    41    42    1
    47     8    10   ar
    48   104   103    1
    49     7     9   ar
    50    44    42   am
    51    44    45    1
    52    10     9   ar
    53    42    43    2
    54    50    48    1
    55    47    46    2
    56    48    45    1
    57   106   103    1
    58   106   107    1
    59    45    46    1
    60   103   102    1
    61    46    51   am
    62   111   110    2
    63    54    53    2
    64    53    52    1
    65    51    52    1
    66   108   109    1
    67    52    55    1
    68   120   119    1
    69   110   109    1
    70   110   115   am
    71    96    95    2
    72   119   116    1
    73   116   115    1
    74   116   117    1
    75   109   112    1
    76   112   114    1
    77   112   113    1
    78   118   117    2
    79    95    94    1
    80   117   121   am
    81    55    56    1
    82    55    57    1
    83   182   183    2
    84   182   181    1
    85   181   184    1
    86   181   180    1
    87    94    97    1
    88    94    93    1
    89   127   129   ar
    90   127   126   ar
    91   121   122    1
    92   184   185    1
    93    97    98    1
    94    99    98    1
    95    99   100    1
    96    90    89    2
    97   187   185   ar
    98   187   189   ar
    99   129   130   ar
   100   101   100    1
   101   125   126    1
   102   125   122    1
   103   126   128   ar
   104   185   186   ar
   105   122   123    1
   106   176   175    2
   107   180   175   am
   108    93    89   am
   109   189   190   ar
   110    89    88    1
   111   175   174    1
   112   130   128   ar
   113   130   132   ar
   114   128   131   ar
   115    85    86    1
   116    85    82    1
   117   186   188   ar
   118   178   177    1
   119   123   124    2
   120   123   135   am
   121   190   188   ar
   122   190   191    1
   123    87    88    1
   124    87    83   am
   125    88    91    1
   126    70    71    1
   127    70    67    1
   128   132   134   ar
   129   174   177    1
   130   174   173    1
   131    71    72    1
   132   177   179    1
   133    91    92    1
   134   131   133   ar
   135   135   136    1
   136    82    83    1
   137    82    81    1
   138    83    84    2
   139   173   171   am
   140    67    68    1
   141    67    66    1
   142   134   133   ar
   143    68    69    2
   144    72    66    1
   145   138   137    2
   146    92   157    1
   147    81    75   am
   148   136   137    1
   149   171   172    2
   150   171   170    1
   151   137   139   am
   152   170   169    1
   153   157   156    1
   154    76    75    2
   155    75    74    1
   156    79    78   ar
   157   156   153    1
   158   139   140    1
   159    78    80   ar
   160    78    77    1
   161   169   160   am
   162   148   149    1
   163   148   141   am
   164    74    77    1
   165    74    73    1
   166   152   153    1
   167   152   150   am
   168   140   141    1
   169   140   143    1
   170   153   154    1
   171   149   150    1
   172   161   160    2
   173   150   151    2
   174   147   145   am
   175   146   145    2
   176   160   159    1
   177   141   142    2
   178   145   144    1
   179   144   143    1
   180   154   155    2
   181   159   162    1
   182   159   158    1
   183   162   163    1
   184   163   164   ar
   185   163   165   ar
   186   164   166   ar
   187   165   167   ar
   188   166   168   ar
   189   167   168   ar
