@<TRIPOS>MOLECULE
tmp/4ngaA00.pdb
 207 204 0 0 0
SMALL
GASTEIGER

@<TRIPOS>ATOM
      1  N         15.3260   40.2440   16.6710 N.3    25  LEU25      -0.1231
      2  CA        13.9040   39.9380   16.7230 C.3    25  LEU25       0.1693
      3  C         13.6500   38.7660   17.6870 C.2    25  LEU25       0.2592
      4  O         12.8780   38.8880   18.6340 O.2    25  LEU25      -0.2718
      5  CB        13.3620   39.6030   15.2990 C.3    25  LEU25       0.0284
      6  CG        11.8720   39.1730   15.2390 C.3    25  LEU25       0.0019
      7  CD1       10.9330   40.3360   15.5960 C.3    25  LEU25       0.0001
      8  CD2       11.5040   38.5770   13.8760 C.3    25  LEU25       0.0001
      9  N         14.2620   37.6150   17.4000 N.am   26  CYS26      -0.1970
     10  CA        14.0140   36.3400   18.0710 C.3    26  CYS26       0.1712
     11  C         15.1600   35.3990   17.8150 C.2    26  CYS26       0.2296
     12  O         16.0720   35.6910   17.0430 O.2    26  CYS26      -0.2864
     13  CB        12.7200   35.7380   17.5130 C.3    26  CYS26       0.0983
     14  SG        11.2140   36.2730   18.3610 S.3    26  CYS26      -0.0798
     15  N          4.6740   33.7330   17.4980 N.3    41  HIS41      -0.1226
     16  CA         4.5010   35.0590   18.1030 C.3    41  HIS41       0.1752
     17  C          5.5760   36.0900   17.7410 C.2    41  HIS41       0.2596
     18  O          5.3410   37.2850   17.8750 O.2    41  HIS41      -0.2718
     19  CB         4.2440   34.9490   19.6160 C.3    41  HIS41       0.0759
     20  CG         5.4890   34.9070   20.4480 C.ar   41  HIS41       0.0818
     21  ND1        6.0340   33.7040   20.8810 N.ar   41  HIS41      -0.2268
     22  CD2        6.2340   35.9230   20.9340 C.ar   41  HIS41       0.1154
     23  CE1        7.0980   34.0260   21.5900 C.ar   41  HIS41       0.1986
     24  NE2        7.2650   35.3490   21.6380 N.ar   41  HIS41      -0.2212
     25  N          6.7410   35.6270   17.2530 N.am   42  CYS42      -0.1970
     26  CA         7.8490   36.4680   16.7980 C.3    42  CYS42       0.1712
     27  C          7.4340   37.3070   15.5940 C.2    42  CYS42       0.2296
     28  O          8.1060   38.2830   15.2850 O.2    42  CYS42      -0.2864
     29  CB         9.0560   35.5960   16.4410 C.3    42  CYS42       0.0983
     30  SG         9.8660   34.8320   17.8650 S.3    42  CYS42      -0.0798
     31  N          4.1490   38.5100   14.9950 N.3    44  ASP44      -0.1225
     32  CA         2.8830   39.1830   15.2870 C.3    44  ASP44       0.1805
     33  C          2.8530   40.6490   14.8480 C.2    44  ASP44       0.2597
     34  O          1.8120   41.1210   14.3980 O.2    44  ASP44      -0.2718
     35  CB         2.5130   39.0650   16.7900 C.3    44  ASP44       0.1424
     36  CG         1.7940   37.7900   17.2060 C.2    44  ASP44       0.3668
     37  OD1        1.7340   36.8440   16.3930 O.co2  44  ASP44      -0.2456
     38  OD2        1.3730   37.7020   18.3730 O.co2  44  ASP44      -0.2456
     39  N          3.9860   41.3470   14.9810 N.am   45  LYS45      -0.1979
     40  CA         4.1340   42.7800   14.6860 C.3    45  LYS45       0.1596
     41  C          4.9540   43.0630   13.4270 C.2    45  LYS45       0.2287
     42  O          5.2990   44.2140   13.1790 O.2    45  LYS45      -0.2864
     43  CB         4.7460   43.5170   15.9090 C.3    45  LYS45       0.0298
     44  CG         3.9130   43.4050   17.1920 C.3    45  LYS45       0.0038
     45  CD         4.6680   43.9280   18.4150 C.3    45  LYS45       0.0206
     46  CE         3.9920   43.5570   19.7190 C.3    45  LYS45       0.1093
     47  NZ         4.8480   43.8620   20.9000 N.3    45  LYS45      -0.1314
     48  N         -1.5140   37.2570   19.1880 N.3    85  GLY85      -0.1210
     49  CA        -1.8200   37.8590   20.4830 C.3    85  GLY85       0.1956
     50  C         -2.2280   36.8420   21.5280 C.2    85  GLY85       0.2613
     51  O         -2.5000   37.2150   22.6690 O.2    85  GLY85      -0.2717
     52  N         -2.2730   35.5410   21.1450 N.am   86  THR86      -0.1938
     53  CA        -2.5620   34.4180   22.0520 C.3    86  THR86       0.2028
     54  C         -1.3410   33.4780   22.1110 C.2    86  THR86       0.2642
     55  O         -0.3850   33.6750   21.3670 O.2    86  THR86      -0.2714
     56  CB        -3.8940   33.7280   21.7410 C.3    86  THR86       0.1808
     57  OG1       -3.7840   33.1020   20.4690 O.3    86  THR86      -0.2208
     58  CG2       -5.0920   34.6960   21.7700 C.3    86  THR86       0.0379
     59  N         -1.3780   32.4840   23.0100 N.am   87  THR87      -0.1950
     60  CA        -0.2900   31.5590   23.3380 C.3    87  THR87       0.1897
     61  C         -0.2930   30.1750   22.6810 C.2    87  THR87       0.2313
     62  O          0.7720   29.5750   22.5980 O.2    87  THR87      -0.2863
     63  CB        -0.2400   31.3670   24.8810 C.3    87  THR87       0.1794
     64  OG1       -1.4920   30.8170   25.3340 O.3    87  THR87      -0.2208
     65  CG2        0.0610   32.6560   25.6170 C.3    87  THR87       0.0378
     66  N          2.2420   27.9560   19.3160 N.3    90  ASP90      -0.1239
     67  CA         3.3140   28.9170   19.1220 C.3    90  ASP90       0.1674
     68  C          4.5440   28.3560   18.4080 C.2    90  ASP90       0.2266
     69  O          5.6100   28.1470   19.0120 O.2    90  ASP90      -0.2867
     70  CB         3.6570   29.6430   20.4330 C.3    90  ASP90       0.1410
     71  CG         4.5260   30.8630   20.2210 C.2    90  ASP90       0.3668
     72  OD1        4.5980   31.3570   19.0590 O.co2  90  ASP90      -0.2456
     73  OD2        5.1160   31.3390   21.2030 O.co2  90  ASP90      -0.2456
     74  N         -6.2520   36.1390   34.4300 N.3   167  ASP167     -0.1239
     75  CA        -6.1110   36.2060   32.9700 C.3   167  ASP167      0.1674
     76  C         -4.8750   35.4500   32.4140 C.2   167  ASP167      0.2266
     77  O         -4.5800   35.5620   31.2130 O.2   167  ASP167     -0.2867
     78  CB        -6.1930   37.6640   32.4560 C.3   167  ASP167      0.1410
     79  CG        -7.5690   38.1870   32.2340 C.2   167  ASP167      0.3668
     80  OD1       -8.5360   37.4660   32.3570 O.co2 167  ASP167     -0.2456
     81  OD2       -7.6300   39.4250   31.8530 O.co2 167  ASP167     -0.2456
     82  N         -2.7800   32.5100   30.8420 N.3   169  PRO169     -0.2116
     83  CA        -3.2590   31.4760   29.9130 C.3   169  PRO169      0.1372
     84  C         -3.1500   30.0570   30.4480 C.2   169  PRO169      0.2244
     85  O         -2.3650   29.7870   31.3630 O.2   169  PRO169     -0.2868
     86  CB        -2.4130   31.7030   28.6540 C.3   169  PRO169      0.0268
     87  CG        -1.7930   33.0530   28.8390 C.3   169  PRO169      0.0207
     88  CD        -1.6050   33.2110   30.2960 C.3   169  PRO169      0.0892
     89  N         15.7140   31.3760   34.0230 N.3   186  ASP186     -0.1225
     90  CA        14.6370   31.3050   33.0320 C.3   186  ASP186      0.1805
     91  C         15.1450   31.7350   31.6830 C.2   186  ASP186      0.2598
     92  O         16.2580   32.2630   31.5710 O.2   186  ASP186     -0.2718
     93  CB        13.5050   32.2720   33.4400 C.3   186  ASP186      0.1424
     94  CG        12.1110   31.9500   32.9400 C.2   186  ASP186      0.3668
     95  OD1       11.9610   30.9760   32.1520 O.co2 186  ASP186     -0.2456
     96  OD2       11.1720   32.6960   33.2940 O.co2 186  ASP186     -0.2456
     97  N         14.3350   31.4970   30.6500 N.am  187  SER187     -0.1938
     98  CA        14.5700   32.0690   29.3330 C.3   187  SER187      0.2055
     99  C         13.6350   33.2960   29.3750 C.2   187  SER187      0.2643
    100  O         12.6990   33.3300   30.2070 O.2   187  SER187     -0.2714
    101  CB        14.2060   31.1020   28.2090 C.3   187  SER187      0.2130
    102  OG        12.8760   30.6310   28.3220 O.3   187  SER187     -0.2179
    103  N         13.8910   34.3170   28.5420 N.am  188  CYS188     -0.1953
    104  CA        12.9590   35.4370   28.5660 C.3   188  CYS188      0.1843
    105  C         12.5770   35.9110   27.1670 C.2   188  CYS188      0.2625
    106  O         12.8450   35.1880   26.2060 O.2   188  CYS188     -0.2714
    107  CB        13.3880   36.5510   29.5260 C.3   188  CYS188      0.0997
    108  SG        13.3490   36.0620   31.2860 S.3   188  CYS188     -0.0797
    109  N         11.8340   37.0190   27.0530 N.am  189  LYS189     -0.1977
    110  CA        11.2610   37.4860   25.8000 C.3   189  LYS189      0.1596
    111  C         12.1690   37.5210   24.5910 C.2   189  LYS189      0.2287
    112  O         11.7240   37.1160   23.5320 O.2   189  LYS189     -0.2864
    113  CB        10.4440   38.7790   25.9770 C.3   189  LYS189      0.0298
    114  CG        11.2100   40.0730   26.0830 C.3   189  LYS189      0.0038
    115  CD        10.2710   41.2570   25.9700 C.3   189  LYS189      0.0206
    116  CE        10.7750   42.4550   26.7380 C.3   189  LYS189      0.1093
    117  NZ         9.9420   43.6610   26.4860 N.3   189  LYS189     -0.1314
    118  N         12.7530   34.1730   22.8130 N.3   192  SER192     -0.1217
    119  CA        11.5700   33.6640   22.0930 C.3   192  SER192      0.1889
    120  C         11.9640   33.0500   20.7690 C.2   192  SER192      0.2288
    121  O         12.7560   33.6390   20.0200 O.2   192  SER192     -0.2866
    122  CB        10.5850   34.7960   21.8050 C.3   192  SER192      0.2089
    123  OG         9.9670   35.2780   22.9880 O.3   192  SER192     -0.2183
    124  N         11.1790   28.4000   22.9950 N.3   210  VAL210     -0.1231
    125  CA        10.9400   29.4700   23.9900 C.3   210  VAL210      0.1692
    126  C          9.6910   30.1910   23.5310 C.2   210  VAL210      0.2593
    127  O          9.6340   30.6720   22.4070 O.2   210  VAL210     -0.2718
    128  CB        12.1380   30.4440   24.1260 C.3   210  VAL210      0.0266
    129  CG1       11.8480   31.5080   25.1840 C.3   210  VAL210      0.0020
    130  CG2       13.4380   29.6880   24.4330 C.3   210  VAL210      0.0020
    131  N          8.6530   30.1440   24.3390 N.am  211  SER211     -0.1938
    132  CA         7.3440   30.6620   23.9380 C.3   211  SER211      0.2055
    133  C          6.8200   31.8110   24.8080 C.2   211  SER211      0.2643
    134  O          6.6620   32.9240   24.3120 O.2   211  SER211     -0.2714
    135  CB         6.3390   29.5090   23.8890 C.3   211  SER211      0.2130
    136  OG         5.0560   29.9640   23.4850 O.3   211  SER211     -0.2179
    137  N          6.5010   31.5280   26.0880 N.am  212  TRP212     -0.1959
    138  CA         5.9280   32.5210   26.9940 C.3   212  TRP212      0.1771
    139  C          6.1530   32.2240   28.4890 C.2   212  TRP212      0.2620
    140  O          6.7460   31.2090   28.8540 O.2   212  TRP212     -0.2715
    141  CB         4.4320   32.7520   26.6870 C.3   212  TRP212      0.0590
    142  CG         3.5230   31.5880   26.9260 C.ar  212  TRP212      0.0006
    143  CD1        3.2290   30.5850   26.0480 C.ar  212  TRP212      0.0946
    144  CD2        2.7130   31.3500   28.0970 C.ar  212  TRP212      0.0152
    145  NE1        2.3240   29.7090   26.6120 N.ar  212  TRP212     -0.2442
    146  CE2        1.9770   30.1640   27.8640 C.ar  212  TRP212      0.0810
    147  CE3        2.5580   32.0130   29.3330 C.ar  212  TRP212      0.0012
    148  CZ2        1.0820   29.6360   28.8120 C.ar  212  TRP212      0.0191
    149  CZ3        1.6600   31.5020   30.2600 C.ar  212  TRP212      0.0001
    150  CH2        0.9370   30.3220   29.9980 C.ar  212  TRP212      0.0015
    151  N          5.7080   33.1590   29.3200 N.am  213  GLY213     -0.1940
    152  CA         5.7640   33.0810   30.7720 C.3   213  GLY213      0.2014
    153  C          5.2730   34.3810   31.3590 C.2   213  GLY213      0.2639
    154  O          4.7310   35.2250   30.6320 O.2   213  GLY213     -0.2714
    155  N          5.4930   34.5620   32.6720 N.am  214  GLN214     -0.1963
    156  CA         5.1450   35.7850   33.4120 C.3   214  GLN214      0.1733
    157  C          6.4100   36.5960   33.6620 C.2   214  GLN214      0.2617
    158  O          7.4160   36.0660   34.1400 O.2   214  GLN214     -0.2715
    159  CB         4.4380   35.4600   34.7400 C.3   214  GLN214      0.0408
    160  CG         3.2230   34.5330   34.6050 C.3   214  GLN214      0.0908
    161  CD         2.0270   35.1320   33.8830 C.2   214  GLN214      0.2608
    162  OE1        1.8960   36.3560   33.6990 O.2   214  GLN214     -0.2717
    163  NE2        1.1050   34.2650   33.4800 N.am  214  GLN214     -0.0878
    164  N          6.3570   37.8660   33.2860 N.am  215  GLY215     -0.1940
    165  CA         7.4680   38.7900   33.4480 C.3   215  GLY215      0.2014
    166  C          8.7090   38.2400   32.7940 C.2   215  GLY215      0.2639
    167  O          8.7480   38.1230   31.5630 O.2   215  GLY215     -0.2714
    168  N          9.7090   37.8730   33.6380 N.am  216  CYS216     -0.1967
    169  CA        11.0030   37.3190   33.2440 C.3   216  CYS216      0.1712
    170  C         11.6970   36.8060   34.5100 C.2   216  CYS216      0.2296
    171  O         12.1250   37.6060   35.3370 O.2   216  CYS216     -0.2864
    172  CB        11.8360   38.3800   32.5250 C.3   216  CYS216      0.0983
    173  SG        13.5350   37.8820   32.1610 S.3   216  CYS216     -0.0798
    174  N          7.1060   29.3830   36.0860 N.3   222  PHE222     -0.1227
    175  CA         8.0000   28.6180   35.2050 C.3   222  PHE222      0.1736
    176  C          7.9320   29.1460   33.7570 C.2   222  PHE222      0.2596
    177  O          7.0050   29.8680   33.3960 O.2   222  PHE222     -0.2718
    178  CB         7.6260   27.1170   35.2300 C.3   222  PHE222      0.0547
    179  CG         7.7890   26.4450   36.5750 C.ar  222  PHE222     -0.0202
    180  CD1        8.9950   25.8620   36.9360 C.ar  222  PHE222     -0.0042
    181  CD2        6.7380   26.4100   37.4850 C.ar  222  PHE222     -0.0042
    182  CE1        9.1490   25.2550   38.1850 C.ar  222  PHE222     -0.0003
    183  CE2        6.8890   25.7900   38.7300 C.ar  222  PHE222     -0.0003
    184  CZ         8.0910   25.2170   39.0710 C.ar  222  PHE222     -0.0000
    185  N          8.9120   28.7670   32.9470 N.am  223  GLY223     -0.1942
    186  CA         8.9200   29.0590   31.5210 C.3   223  GLY223      0.2014
    187  C          7.9560   28.1080   30.8320 C.2   223  GLY223      0.2639
    188  O          7.7810   26.9650   31.2660 O.2   223  GLY223     -0.2714
    189  N          7.2780   28.5850   29.8100 N.am  224  VAL224     -0.1963
    190  CA         6.3600   27.7650   29.0250 C.3   224  VAL224      0.1727
    191  C          6.9530   27.6580   27.6140 C.2   224  VAL224      0.2616
    192  O          7.3450   28.6650   27.0250 O.2   224  VAL224     -0.2715
    193  CB         4.8800   28.2520   29.0470 C.3   224  VAL224      0.0290
    194  CG1        3.9620   27.2430   28.3330 C.3   224  VAL224      0.0023
    195  CG2        4.4080   28.4830   30.4870 C.3   224  VAL224      0.0023
    196  N          7.0470   26.4170   27.1060 N.am  225  TYR225     -0.1974
    197  CA         7.6740   26.0880   25.8290 C.3   225  TYR225      0.1639
    198  C          6.6920   25.4090   24.9270 C.2   225  TYR225      0.2290
    199  O          5.8760   24.6200   25.4020 O.2   225  TYR225     -0.2864
    200  CB         8.9040   25.1720   26.0730 C.3   225  TYR225      0.0560
    201  CG         9.9710   25.8410   26.9150 C.ar  225  TYR225     -0.0198
    202  CD1        9.8750   25.8720   28.3100 C.ar  225  TYR225     -0.0009
    203  CD2       11.0260   26.5240   26.3210 C.ar  225  TYR225     -0.0009
    204  CE1       10.8080   26.5590   29.0840 C.ar  225  TYR225      0.0417
    205  CE2       11.9880   27.1730   27.0860 C.ar  225  TYR225      0.0417
    206  CZ        11.8610   27.2200   28.4660 C.ar  225  TYR225      0.1957
    207  OH        12.7940   27.9190   29.2100 O.3   225  TYR225     -0.2866
@<TRIPOS>BOND
     1    42    41    2
     2    41    40    1
     3     8     6    1
     4    34    33    2
     5    40    39    1
     6    40    43    1
     7    33    39   am
     8    33    32    1
     9    31    32    1
    10     6     5    1
    11     6     7    1
    12    28    27    2
    13    32    35    1
    14     5     2    1
    15    27    26    1
    16    43    44    1
    17    37    36   ar
    18    29    26    1
    19    29    30    1
    20     1     2    1
    21     2     3    1
    22    35    36    1
    23    26    25    1
    24    12    11    2
    25    44    45    1
    26    36    38   ar
    27    25    17   am
    28     9     3   am
    29     9    10    1
    30    15    16    1
    31    13    10    1
    32    13    14    1
    33     3     4    2
    34    17    18    2
    35    17    16    1
    36    11    10    1
    37    30    14    1
    38    16    19    1
    39    68    69    2
    40    68    67    1
    41    45    46    1
    42    72    71   ar
    43    67    66    1
    44    67    70    1
    45    48    49    1
    46    19    20    1
    47    46    47    1
    48   121   120    2
    49    71    70    1
    50    71    73   ar
    51    20    21   ar
    52    20    22   ar
    53    57    56    1
    54    49    50    1
    55   120   119    1
    56    21    23   ar
    57    22    24   ar
    58    52    50   am
    59    52    53    1
    60    55    54    2
    61    50    51    2
    62    23    24   ar
    63    56    58    1
    64    56    53    1
    65   122   119    1
    66   122   123    1
    67    53    54    1
    68   119   118    1
    69    54    59   am
    70   127   126    2
    71    62    61    2
    72    61    60    1
    73   124   125    1
    74    59    60    1
    75    60    63    1
    76   136   135    1
    77   126   125    1
    78   126   131   am
    79   112   111    2
    80   135   132    1
    81   132   131    1
    82   132   133    1
    83   125   128    1
    84   128   130    1
    85   128   129    1
    86   134   133    2
    87   111   110    1
    88   133   137   am
    89    63    64    1
    90    63    65    1
    91   198   199    2
    92   198   197    1
    93   110   113    1
    94   110   109    1
    95   197   200    1
    96   197   196    1
    97   115   114    1
    98   115   116    1
    99   113   114    1
   100   143   145   ar
   101   143   142   ar
   102   200   201    1
   103   137   138    1
   104   106   105    2
   105   203   201   ar
   106   203   205   ar
   107   117   116    1
   108   145   146   ar
   109   141   142    1
   110   141   138    1
   111   201   202   ar
   112   142   144   ar
   113   138   139    1
   114   192   191    2
   115   109   105   am
   116   205   206   ar
   117   196   191   am
   118   105   104    1
   119   191   190    1
   120   146   144   ar
   121   146   148   ar
   122   144   147   ar
   123   101   102    1
   124   101    98    1
   125   202   204   ar
   126   194   193    1
   127   206   204   ar
   128   206   207    1
   129   139   140    2
   130   139   151   am
   131   103   104    1
   132   103    99   am
   133   104   107    1
   134    86    87    1
   135    86    83    1
   136   148   150   ar
   137    87    88    1
   138   190   193    1
   139   190   189    1
   140   193   195    1
   141   151   152    1
   142    98    99    1
   143    98    97    1
   144   147   149   ar
   145    99   100    2
   146   107   108    1
   147   189   187   am
   148    83    84    1
   149    83    82    1
   150   150   149   ar
   151    88    82    1
   152    84    85    2
   153   154   153    2
   154    97    91   am
   155   152   153    1
   156   187   188    2
   157   187   186    1
   158    77    76    2
   159   108   173    1
   160   153   155   am
   161   186   185    1
   162   167   166    2
   163    92    91    2
   164    91    90    1
   165    81    79   ar
   166    95    94   ar
   167   173   172    1
   168    79    80   ar
   169    79    78    1
   170    76    75    1
   171    78    75    1
   172   172   169    1
   173   155   156    1
   174   166   165    1
   175   166   168   am
   176    94    96   ar
   177    94    93    1
   178   185   176   am
   179    75    74    1
   180    90    93    1
   181    90    89    1
   182   169   168    1
   183   169   170    1
   184   164   165    1
   185   164   157   am
   186   177   176    2
   187   156   157    1
   188   156   159    1
   189   163   161   am
   190   157   158    2
   191   162   161    2
   192   176   175    1
   193   161   160    1
   194   170   171    2
   195   160   159    1
   196   175   178    1
   197   175   174    1
   198   178   179    1
   199   179   180   ar
   200   179   181   ar
   201   180   182   ar
   202   181   183   ar
   203   182   184   ar
   204   183   184   ar
