@<TRIPOS>MOLECULE
tmp/4ngnA02.pdb
 87 85 0 0 0
SMALL
GASTEIGER

@<TRIPOS>ATOM
      1  N        -16.1700  -33.7550  -23.4800 N.3    73  TYR73      -0.1241
      2  CA       -17.6040  -33.9420  -23.1650 C.3    73  TYR73       0.1605
      3  C        -17.9670  -33.0210  -22.0230 C.2    73  TYR73       0.2264
      4  O        -17.0830  -32.4560  -21.3690 O.2    73  TYR73      -0.2867
      5  CB       -17.9410  -35.4290  -22.8120 C.3    73  TYR73       0.0534
      6  CG       -17.3690  -35.8970  -21.4860 C.ar   73  TYR73      -0.0201
      7  CD1      -16.0250  -36.1730  -21.3350 C.ar   73  TYR73      -0.0009
      8  CD2      -18.2140  -36.1200  -20.3790 C.ar   73  TYR73      -0.0009
      9  CE1      -15.5120  -36.6160  -20.1110 C.ar   73  TYR73       0.0417
     10  CE2      -17.7150  -36.5660  -19.1750 C.ar   73  TYR73       0.0417
     11  CZ       -16.3750  -36.8150  -19.0360 C.ar   73  TYR73       0.1957
     12  OH       -15.8710  -37.2380  -17.8020 O.3    73  TYR73      -0.2866
     13  N        -19.8400  -35.3390   -6.7020 N.3    81  GLY81      -0.1210
     14  CA       -18.9560  -35.3270   -7.8320 C.3    81  GLY81       0.1956
     15  C        -19.1710  -36.5200   -8.7410 C.2    81  GLY81       0.2612
     16  O        -18.2760  -36.8930   -9.4930 O.2    81  GLY81      -0.2717
     17  N        -20.3510  -37.1210   -8.7070 N.am   82  ASN82      -0.1960
     18  CA       -20.6510  -38.1570   -9.6890 C.3    82  ASN82       0.1819
     19  C        -21.2360  -37.5200  -10.9410 C.2    82  ASN82       0.2621
     20  O        -22.1040  -36.6610  -10.8470 O.2    82  ASN82      -0.2715
     21  CB       -21.6320  -39.1830   -9.1310 C.3    82  ASN82       0.1195
     22  CG       -21.2220  -39.6760   -7.7570 C.2    82  ASN82       0.2630
     23  OD1      -20.0730  -40.0880   -7.5550 O.2    82  ASN82      -0.2716
     24  ND2      -22.1520  -39.6090   -6.7940 N.am   82  ASN82      -0.0877
     25  N        -20.7630  -37.9550  -12.0980 N.am   83  GLU83      -0.1963
     26  CA       -21.3080  -37.4540  -13.3540 C.3    83  GLU83       0.1733
     27  C        -22.5590  -38.1890  -13.7250 C.2    83  GLU83       0.2616
     28  O        -22.5300  -39.3260  -14.1940 O.2    83  GLU83      -0.2715
     29  CB       -20.2340  -37.4870  -14.4350 C.3    83  GLU83       0.0429
     30  CG       -19.0360  -36.6760  -13.9750 C.3    83  GLU83       0.1163
     31  CD       -17.9180  -36.5150  -15.0030 C.2    83  GLU83       0.3649
     32  OE1      -17.7780  -37.3430  -15.9290 O.co2  83  GLU83      -0.2457
     33  OE2      -17.1590  -35.5430  -14.8170 O.co2  83  GLU83      -0.2457
     34  N        -23.6820  -37.5240  -13.5010 N.am   84  ILE84      -0.1963
     35  CA       -24.9800  -38.1820  -13.6510 C.3    84  ILE84       0.1727
     36  C        -25.5130  -38.0440  -15.0490 C.2    84  ILE84       0.2616
     37  O        -26.4420  -38.7450  -15.4230 O.2    84  ILE84      -0.2715
     38  CB       -26.0130  -37.7450  -12.5820 C.3    84  ILE84       0.0290
     39  CG1      -26.4260  -36.2870  -12.7940 C.3    84  ILE84       0.0022
     40  CG2      -25.4220  -37.9980  -11.1940 C.3    84  ILE84       0.0023
     41  CD1      -27.5230  -35.7380  -11.8580 C.3    84  ILE84       0.0001
     42  N        -24.9030  -37.1740  -15.8640 N.am   85  PHE85      -0.1960
     43  CA       -25.3470  -37.1140  -17.2520 C.3    85  PHE85       0.1771
     44  C        -24.1380  -36.6340  -18.0580 C.2    85  PHE85       0.2619
     45  O        -23.4330  -35.7540  -17.5790 O.2    85  PHE85      -0.2715
     46  CB       -26.4540  -36.0780  -17.4510 C.3    85  PHE85       0.0574
     47  CG       -26.6310  -35.6850  -18.8950 C.ar   85  PHE85      -0.0200
     48  CD1      -27.2680  -36.5350  -19.8010 C.ar   85  PHE85      -0.0042
     49  CD2      -26.0850  -34.4790  -19.3790 C.ar   85  PHE85      -0.0042
     50  CE1      -27.3720  -36.1950  -21.1540 C.ar   85  PHE85      -0.0003
     51  CE2      -26.1960  -34.1420  -20.7350 C.ar   85  PHE85      -0.0003
     52  CZ       -26.8410  -34.9850  -21.6160 C.ar   85  PHE85      -0.0000
     53  N        -23.9000  -37.3090  -19.1720 N.am   86  ASN86      -0.1972
     54  CA       -22.8090  -36.9730  -20.0850 C.3    86  ASN86       0.1688
     55  C        -23.2960  -36.6860  -21.4920 C.2    86  ASN86       0.2292
     56  O        -24.0990  -37.4300  -22.0350 O.2    86  ASN86      -0.2864
     57  CB       -21.8500  -38.1370  -20.1660 C.3    86  ASN86       0.1181
     58  CG       -21.0790  -38.3750  -18.8720 C.2    86  ASN86       0.2629
     59  OD1      -20.8470  -37.4830  -18.0750 O.2    86  ASN86      -0.2716
     60  ND2      -20.6710  -39.6300  -18.6830 N.am   86  ASN86      -0.0877
     61  N        -11.1420  -28.0970  -17.2340 N.3   115  MET115     -0.1245
     62  CA       -12.2930  -28.8360  -16.7230 C.3   115  MET115      0.1570
     63  C        -13.0870  -27.9640  -15.7460 C.2   115  MET115      0.2261
     64  O        -13.3030  -28.3560  -14.5870 O.2   115  MET115     -0.2867
     65  CB       -11.8000  -30.1580  -16.1040 C.3   115  MET115      0.0387
     66  CG       -11.3330  -31.1940  -17.1210 C.3   115  MET115      0.0595
     67  SD       -10.5080  -32.6520  -16.4250 S.3   115  MET115     -0.1393
     68  CE       -11.8260  -33.3420  -15.4590 C.3   115  MET115      0.0692
     69  N        -20.0460  -29.4410  -15.5770 N.3   289  LYS289     -0.1245
     70  CA       -18.6120  -29.5890  -15.6800 C.3   289  LYS289      0.1561
     71  C        -18.1970  -29.8810  -17.1250 C.2   289  LYS289      0.2260
     72  O        -18.6650  -30.8300  -17.7380 O.2   289  LYS289     -0.2867
     73  CB       -18.1230  -30.7380  -14.7910 C.3   289  LYS289      0.0271
     74  CG       -16.6030  -30.8540  -14.7840 C.3   289  LYS289      0.0035
     75  CD       -16.0760  -32.0120  -13.9240 C.3   289  LYS289      0.0206
     76  CE       -14.5920  -31.8030  -13.6690 C.3   289  LYS289      0.1093
     77  NZ       -13.8740  -32.9130  -12.9760 N.3   289  LYS289     -0.1314
     78  N        -15.2040  -30.9320  -19.9750 N.3   291  HIS291     -0.1241
     79  CA       -13.9140  -31.6080  -20.0210 C.3   291  HIS291      0.1621
     80  C        -13.3440  -31.4030  -21.4280 C.2   291  HIS291      0.2264
     81  O        -13.7440  -32.0770  -22.3790 O.2   291  HIS291     -0.2867
     82  CB       -14.0590  -33.1160  -19.7610 C.3   291  HIS291      0.0745
     83  CG       -15.0020  -33.4730  -18.6490 C.ar  291  HIS291      0.0817
     84  ND1      -16.3690  -33.4040  -18.7790 N.ar  291  HIS291     -0.2268
     85  CD2      -14.7670  -33.9520  -17.4020 C.ar  291  HIS291      0.1154
     86  CE1      -16.9430  -33.7890  -17.6470 C.ar  291  HIS291      0.1986
     87  NE2      -15.9930  -34.1240  -16.7960 N.ar  291  HIS291     -0.2212
@<TRIPOS>BOND
     1     1     2    1
     2     2     5    1
     3     2     3    1
     4     5     6    1
     5    81    80    2
     6    56    55    2
     7     3     4    2
     8    52    50   ar
     9    52    51   ar
    10    55    54    1
    11     6     7   ar
    12     6     8   ar
    13    80    79    1
    14     7     9   ar
    15    50    48   ar
    16    51    49   ar
    17     8    10   ar
    18    57    54    1
    19    57    58    1
    20     9    11   ar
    21    54    53    1
    22    79    78    1
    23    79    82    1
    24    48    47   ar
    25    82    83    1
    26    49    47   ar
    27    10    11   ar
    28    53    44   am
    29    11    12    1
    30    47    46    1
    31    58    60   am
    32    58    59    2
    33    84    83   ar
    34    84    86   ar
    35    83    85   ar
    36    44    45    2
    37    44    43    1
    38    72    71    2
    39    86    87   ar
    40    46    43    1
    41    85    87   ar
    42    43    42    1
    43    61    62    1
    44    71    70    1
    45    66    67    1
    46    66    65    1
    47    62    65    1
    48    62    63    1
    49    67    68    1
    50    32    31   ar
    51    42    36   am
    52    63    64    2
    53    70    69    1
    54    70    73    1
    55    37    36    2
    56    36    35    1
    57    31    33   ar
    58    31    30    1
    59    73    74    1
    60    74    75    1
    61    29    30    1
    62    29    26    1
    63    28    27    2
    64    75    76    1
    65    27    34   am
    66    27    26    1
    67    76    77    1
    68    35    34    1
    69    35    38    1
    70    26    25    1
    71    39    38    1
    72    39    41    1
    73    38    40    1
    74    25    19   am
    75    19    20    2
    76    19    18    1
    77    18    21    1
    78    18    17    1
    79    16    15    2
    80    21    22    1
    81    15    17   am
    82    15    14    1
    83    14    13    1
    84    22    23    2
    85    22    24   am
