@<TRIPOS>MOLECULE
tmp/4ngnA06.pdb
 220 210 0 0 0
SMALL
GASTEIGER

@<TRIPOS>ATOM
      1  N        -27.6970  -16.3430  -35.6730 N.3   153  LYS153     -0.1245
      2  CA       -27.7230  -14.8390  -35.6780 C.3   153  LYS153      0.1561
      3  C        -26.3320  -14.2510  -35.9260 C.2   153  LYS153      0.2260
      4  O        -26.2020  -13.4080  -36.8460 O.2   153  LYS153     -0.2867
      5  CB       -28.2680  -14.1780  -34.4140 C.3   153  LYS153      0.0271
      6  CG       -29.7060  -14.5800  -33.9910 C.3   153  LYS153      0.0035
      7  CD       -30.6480  -14.5210  -35.1610 C.3   153  LYS153      0.0206
      8  CE       -32.0720  -14.5880  -34.6140 C.3   153  LYS153      0.1093
      9  NZ       -32.9470  -14.6260  -35.8180 N.3   153  LYS153     -0.1314
     10  N        -21.6870  -14.8070  -35.8260 N.3   155  PHE155     -0.1227
     11  CA       -20.5520  -15.7340  -35.8170 C.3   155  PHE155      0.1736
     12  C        -20.2200  -16.2130  -34.4090 C.2   155  PHE155      0.2595
     13  O        -20.1800  -15.4260  -33.4140 O.2   155  PHE155     -0.2718
     14  CB       -19.3130  -14.9690  -36.3880 C.3   155  PHE155      0.0547
     15  CG       -18.0160  -15.7490  -36.3130 C.ar  155  PHE155     -0.0202
     16  CD1      -17.8830  -16.9570  -37.0200 C.ar  155  PHE155     -0.0042
     17  CD2      -16.8820  -15.1880  -35.6730 C.ar  155  PHE155     -0.0042
     18  CE1      -16.6830  -17.6770  -36.9730 C.ar  155  PHE155     -0.0003
     19  CE2      -15.6950  -15.9360  -35.6210 C.ar  155  PHE155     -0.0003
     20  CZ       -15.6060  -17.1720  -36.2770 C.ar  155  PHE155     -0.0000
     21  N        -19.9360  -17.5200  -34.2930 N.am  156  ARG156     -0.1980
     22  CA       -19.6840  -18.0600  -32.9380 C.3   156  ARG156      0.1597
     23  C        -18.4780  -17.5110  -32.1850 C.2   156  ARG156      0.2287
     24  O        -18.4540  -17.4790  -30.9540 O.2   156  ARG156     -0.2864
     25  CB       -19.6200  -19.6030  -33.0210 C.3   156  ARG156      0.0334
     26  CG       -18.3630  -20.1210  -33.7480 C.3   156  ARG156      0.0492
     27  CD       -18.4060  -21.6660  -33.9300 C.3   156  ARG156      0.2205
     28  NE       -19.1840  -22.0890  -35.1120 N.pl3 156  ARG156     -0.0865
     29  CZ       -18.7900  -21.8890  -36.3750 C.cat 156  ARG156      0.5346
     30  NH1      -17.6240  -21.2400  -36.5870 N.pl3 156  ARG156      0.1354
     31  NH2      -19.5150  -22.3060  -37.3970 N.pl3 156  ARG156      0.1354
     32  N        -17.0160  -25.8400  -35.5600 N.3   202  GLY202     -0.1210
     33  CA       -16.5380  -24.5200  -36.0890 C.3   202  GLY202      0.1956
     34  C        -15.5420  -23.8880  -35.1640 C.2   202  GLY202      0.2611
     35  O        -15.5570  -24.0430  -33.9220 O.2   202  GLY202     -0.2717
     36  N        -14.6250  -23.0740  -35.7450 N.am  203  ASN203     -0.1974
     37  CA       -13.6730  -22.4110  -34.9010 C.3   203  ASN203      0.1688
     38  C        -14.2810  -21.2190  -34.1990 C.2   203  ASN203      0.2292
     39  O        -15.3230  -20.7050  -34.6210 O.2   203  ASN203     -0.2864
     40  CB       -12.4450  -21.9390  -35.7610 C.3   203  ASN203      0.1181
     41  CG       -12.7120  -20.5830  -36.4930 C.2   203  ASN203      0.2629
     42  OD1      -12.6570  -19.5570  -35.8510 O.2   203  ASN203     -0.2716
     43  ND2      -12.8110  -20.6060  -37.8290 N.am  203  ASN203     -0.0877
     44  N        -20.5090  -27.5840  -47.8100 N.3   333  ASP333     -0.1239
     45  CA       -19.4020  -26.6390  -47.4420 C.3   333  ASP333      0.1674
     46  C        -18.0710  -27.4360  -47.2790 C.2   333  ASP333      0.2266
     47  O        -17.9290  -28.1610  -46.3170 O.2   333  ASP333     -0.2867
     48  CB       -19.8190  -25.9700  -46.1530 C.3   333  ASP333      0.1410
     49  CG       -18.8340  -24.9580  -45.6760 C.2   333  ASP333      0.3668
     50  OD1      -17.9000  -24.8080  -46.4380 O.co2 333  ASP333     -0.2456
     51  OD2      -19.0110  -24.5320  -44.4900 O.co2 333  ASP333     -0.2456
     52  N         -9.5050  -23.1010  -44.4980 N.3   370  GLU370     -0.1231
     53  CA       -10.4930  -21.9980  -44.3770 C.3   370  GLU370      0.1699
     54  C        -11.2590  -22.1950  -43.0720 C.2   370  GLU370      0.2592
     55  O        -11.5980  -21.2280  -42.3890 O.2   370  GLU370     -0.2718
     56  CB       -11.4070  -21.9690  -45.6270 C.3   370  GLU370      0.0402
     57  CG       -12.4180  -20.8060  -45.5830 C.3   370  GLU370      0.1161
     58  CD       -13.6820  -20.9810  -44.7530 C.2   370  GLU370      0.3649
     59  OE1      -13.9420  -22.1030  -44.1970 O.co2 370  GLU370     -0.2457
     60  OE2      -14.5210  -20.0150  -44.6600 O.co2 370  GLU370     -0.2457
     61  N        -11.5810  -23.4630  -42.7400 N.am  371  GLU371     -0.1979
     62  CA       -12.4390  -23.6600  -41.5540 C.3   371  GLU371      0.1602
     63  C        -11.7880  -23.2970  -40.2460 C.2   371  GLU371      0.2287
     64  O        -12.4370  -23.1620  -39.2110 O.2   371  GLU371     -0.2864
     65  CB       -12.9530  -25.1340  -41.5090 C.3   371  GLU371      0.0415
     66  CG       -13.8240  -25.6040  -42.6840 C.3   371  GLU371      0.1163
     67  CD       -15.2090  -24.9370  -42.6990 C.2   371  GLU371      0.3649
     68  OE1      -15.4450  -23.9690  -41.9220 O.co2 371  GLU371     -0.2457
     69  OE2      -16.0070  -25.3330  -43.5300 O.co2 371  GLU371     -0.2457
     70  N         -9.9770  -20.5010  -39.8430 N.3   373  GLY373     -0.1210
     71  CA        -9.7430  -19.0450  -39.7650 C.3   373  GLY373      0.1956
     72  C         -9.2560  -18.4180  -41.0590 C.2   373  GLY373      0.2611
     73  O         -8.5090  -17.4230  -40.9850 O.2   373  GLY373     -0.2717
     74  N         -9.6320  -18.9600  -42.1750 N.am  374  LEU374     -0.1979
     75  CA        -9.2800  -18.3780  -43.4920 C.3   374  LEU374      0.1596
     76  C         -7.7320  -18.3940  -43.6200 C.2   374  LEU374      0.2287
     77  O         -7.1150  -17.5240  -44.2280 O.2   374  LEU374     -0.2864
     78  CB        -9.8070  -16.8970  -43.5610 C.3   374  LEU374      0.0297
     79  CG       -11.2040  -16.6440  -42.9940 C.3   374  LEU374      0.0022
     80  CD1      -11.5490  -15.1470  -43.2330 C.3   374  LEU374      0.0001
     81  CD2      -12.2390  -17.5180  -43.7200 C.3   374  LEU374      0.0001
     82  N        -17.0050  -20.6650  -52.2990 N.3   399  ASP399     -0.1225
     83  CA       -17.3930  -21.6440  -51.2640 C.3   399  ASP399      0.1805
     84  C        -18.7570  -22.2090  -51.7070 C.2   399  ASP399      0.2598
     85  O        -19.0750  -22.1670  -52.9300 O.2   399  ASP399     -0.2718
     86  CB       -17.4050  -21.0760  -49.8740 C.3   399  ASP399      0.1424
     87  CG       -17.2620  -22.1070  -48.8030 C.2   399  ASP399      0.3668
     88  OD1      -17.2990  -23.2960  -49.1500 O.co2 399  ASP399     -0.2456
     89  OD2      -17.1980  -21.6960  -47.6200 O.co2 399  ASP399     -0.2456
     90  N        -19.5380  -22.6770  -50.7330 N.am  400  SER400     -0.1952
     91  CA       -20.7830  -23.4390  -51.0480 C.3   400  SER400      0.1924
     92  C        -21.5980  -22.8240  -52.1750 C.2   400  SER400      0.2314
     93  O        -21.8970  -21.6220  -52.1540 O.2   400  SER400     -0.2863
     94  CB       -21.6110  -23.4940  -49.8170 C.3   400  SER400      0.2116
     95  OG       -20.8340  -23.9740  -48.7420 O.3   400  SER400     -0.2180
     96  N        -27.2450  -22.9590  -50.4990 N.3   403  GLU403     -0.1245
     97  CA       -27.6780  -23.0460  -49.0810 C.3   403  GLU403      0.1567
     98  C        -29.2120  -23.1080  -49.0410 C.2   403  GLU403      0.2260
     99  O        -29.8270  -22.9350  -48.0030 O.2   403  GLU403     -0.2867
    100  CB       -27.1230  -21.8780  -48.2590 C.3   403  GLU403      0.0388
    101  CG       -27.6470  -20.5110  -48.7520 C.3   403  GLU403      0.1160
    102  CD       -26.8760  -19.3170  -48.1660 C.2   403  GLU403      0.3649
    103  OE1      -27.2940  -18.1390  -48.4330 O.co2 403  GLU403     -0.2457
    104  OE2      -25.8740  -19.5230  -47.4760 O.co2 403  GLU403     -0.2457
    105  N        -28.2670  -15.4870  -54.6210 N.3   409  ARG409     -0.1245
    106  CA       -27.7610  -14.5590  -53.6240 C.3   409  ARG409      0.1563
    107  C        -26.4120  -14.0510  -54.1600 C.2   409  ARG409      0.2260
    108  O        -25.5710  -14.8260  -54.5790 O.2   409  ARG409     -0.2867
    109  CB       -27.5160  -15.2820  -52.2710 C.3   409  ARG409      0.0307
    110  CG       -26.6680  -14.4310  -51.3170 C.3   409  ARG409      0.0489
    111  CD       -26.4100  -15.1910  -50.0450 C.3   409  ARG409      0.2205
    112  NE       -25.3410  -14.5360  -49.2490 N.pl3 409  ARG409     -0.0865
    113  CZ       -24.7930  -15.0770  -48.1560 C.cat 409  ARG409      0.5346
    114  NH1      -23.8210  -14.4050  -47.4950 N.pl3 409  ARG409      0.1354
    115  NH2      -25.2040  -16.2990  -47.7200 N.pl3 409  ARG409      0.1354
    116  N        -17.9350  -11.1270  -43.7620 N.3   463  SER463     -0.1202
    117  CA       -16.6830  -11.9350  -43.7230 C.3   463  SER463      0.2020
    118  C        -17.0430  -13.3570  -43.2790 C.2   463  SER463      0.2619
    119  O        -18.2070  -13.7880  -43.5310 O.2   463  SER463     -0.2717
    120  CB       -15.7010  -11.2930  -42.8040 C.3   463  SER463      0.2103
    121  OG       -14.4520  -12.0020  -42.8660 O.3   463  SER463     -0.2182
    122  N        -16.0510  -14.0990  -42.7800 N.am  464  GLY464     -0.1942
    123  CA       -16.2920  -15.5450  -42.5310 C.3   464  GLY464      0.2014
    124  C        -16.0670  -16.3450  -43.8110 C.2   464  GLY464      0.2638
    125  O        -16.5590  -17.4830  -43.9430 O.2   464  GLY464     -0.2714
    126  N        -15.2940  -15.7690  -44.7770 N.am  465  ASN465     -0.1972
    127  CA       -14.8880  -16.5340  -45.9660 C.3   465  ASN465      0.1688
    128  C        -13.6630  -15.9750  -46.6140 C.2   465  ASN465      0.2292
    129  O        -13.2200  -14.9130  -46.1730 O.2   465  ASN465     -0.2864
    130  CB       -16.0630  -16.7800  -46.9680 C.3   465  ASN465      0.1181
    131  CG       -16.0290  -18.2140  -47.4620 C.2   465  ASN465      0.2629
    132  OD1      -15.0510  -18.6580  -48.0820 O.2   465  ASN465     -0.2716
    133  ND2      -17.0750  -19.0030  -47.0350 N.am  465  ASN465     -0.0877
    134  N        -19.1480  -12.6500  -54.4440 N.3   480  ARG480     -0.1245
    135  CA       -19.5220  -14.0930  -54.2110 C.3   480  ARG480      0.1563
    136  C        -20.9730  -14.2520  -54.6820 C.2   480  ARG480      0.2260
    137  O        -21.7530  -13.2800  -54.6640 O.2   480  ARG480     -0.2867
    138  CB       -19.4130  -14.4080  -52.7030 C.3   480  ARG480      0.0307
    139  CG       -20.4660  -13.7460  -51.8370 C.3   480  ARG480      0.0489
    140  CD       -20.1520  -13.8790  -50.3410 C.3   480  ARG480      0.2205
    141  NE       -19.9250  -15.3110  -49.9120 N.pl3 480  ARG480     -0.0865
    142  CZ       -19.9300  -15.6920  -48.6270 C.cat 480  ARG480      0.5346
    143  NH1      -19.6490  -16.9920  -48.3250 N.pl3 480  ARG480      0.1354
    144  NH2      -20.0040  -14.8020  -47.6340 N.pl3 480  ARG480      0.1354
    145  N        -24.3140  -17.4400  -54.7850 N.3   482  ARG482     -0.1245
    146  CA       -24.7460  -18.8530  -54.5660 C.3   482  ARG482      0.1563
    147  C        -26.2270  -18.8700  -54.6380 C.2   482  ARG482      0.2260
    148  O        -26.8810  -17.8410  -54.6120 O.2   482  ARG482     -0.2867
    149  CB       -24.3320  -19.3470  -53.1520 C.3   482  ARG482      0.0307
    150  CG       -24.7290  -18.4750  -51.9800 C.3   482  ARG482      0.0489
    151  CD       -24.5070  -19.2540  -50.6810 C.3   482  ARG482      0.2205
    152  NE       -23.0580  -19.5110  -50.5080 N.pl3 482  ARG482     -0.0865
    153  CZ       -22.4400  -19.5770  -49.3250 C.cat 482  ARG482      0.5346
    154  NH1      -23.0640  -19.2940  -48.1850 N.pl3 482  ARG482      0.1354
    155  NH2      -21.1210  -19.8600  -49.2930 N.pl3 482  ARG482      0.1354
    156  N        -31.3570  -20.4730  -39.2690 N.3   493  SER493     -0.1202
    157  CA       -30.0180  -19.9140  -39.5950 C.3   493  SER493      0.2020
    158  C        -29.2640  -20.7100  -40.6740 C.2   493  SER493      0.2619
    159  O        -29.1900  -21.9750  -40.6630 O.2   493  SER493     -0.2717
    160  CB       -29.1270  -19.8230  -38.3390 C.3   493  SER493      0.2103
    161  OG       -29.4860  -18.7410  -37.5040 O.3   493  SER493     -0.2182
    162  N        -28.6680  -19.9890  -41.6120 N.am  494  GLY494     -0.1942
    163  CA       -28.0060  -20.6640  -42.7220 C.3   494  GLY494      0.2014
    164  C        -28.8030  -21.8930  -43.1670 C.2   494  GLY494      0.2638
    165  O        -30.0410  -21.8120  -43.3760 O.2   494  GLY494     -0.2714
    166  N        -28.1190  -23.0400  -43.2970 N.am  495  TYR495     -0.1973
    167  CA       -28.8790  -24.2870  -43.6220 C.3   495  TYR495      0.1639
    168  C        -28.7220  -25.2150  -42.4230 C.2   495  TYR495      0.2290
    169  O        -27.7010  -25.1860  -41.7130 O.2   495  TYR495     -0.2864
    170  CB       -28.4080  -24.8940  -44.9120 C.3   495  TYR495      0.0560
    171  CG       -26.9260  -25.1950  -44.9780 C.ar  495  TYR495     -0.0198
    172  CD1      -26.0250  -24.1880  -45.3100 C.ar  495  TYR495     -0.0009
    173  CD2      -26.4060  -26.4710  -44.6830 C.ar  495  TYR495     -0.0009
    174  CE1      -24.6740  -24.4570  -45.3810 C.ar  495  TYR495      0.0417
    175  CE2      -25.0340  -26.7500  -44.7870 C.ar  495  TYR495      0.0417
    176  CZ       -24.1880  -25.7160  -45.1110 C.ar  495  TYR495      0.1957
    177  OH       -22.8490  -25.9840  -45.1670 O.3   495  TYR495     -0.2866
    178  N        -25.4770  -27.4800  -41.5240 N.3   498  TYR498     -0.1227
    179  CA       -24.1310  -26.8080  -41.5200 C.3   498  TYR498      0.1736
    180  C        -23.1110  -27.3690  -40.5480 C.2   498  TYR498      0.2595
    181  O        -23.3410  -27.3560  -39.2860 O.2   498  TYR498     -0.2718
    182  CB       -24.4440  -25.3300  -41.2520 C.3   498  TYR498      0.0548
    183  CG       -23.2490  -24.3670  -41.1040 C.ar  498  TYR498     -0.0200
    184  CD1      -22.3870  -24.1220  -42.1620 C.ar  498  TYR498     -0.0009
    185  CD2      -23.0480  -23.7160  -39.8820 C.ar  498  TYR498     -0.0009
    186  CE1      -21.2810  -23.2460  -41.9610 C.ar  498  TYR498      0.0417
    187  CE2      -21.9910  -22.8200  -39.6910 C.ar  498  TYR498      0.0417
    188  CZ       -21.1420  -22.6190  -40.7530 C.ar  498  TYR498      0.1957
    189  OH       -20.0560  -21.7530  -40.4800 O.3   498  TYR498     -0.2866
    190  N        -21.9390  -27.8010  -41.0710 N.am  499  HIS499     -0.1975
    191  CA       -20.7250  -28.2180  -40.2930 C.3   499  HIS499      0.1656
    192  C        -20.9900  -29.4830  -39.4270 C.2   499  HIS499      0.2291
    193  O        -20.2610  -29.7380  -38.4640 O.2   499  HIS499     -0.2864
    194  CB       -20.2430  -27.0870  -39.4280 C.3   499  HIS499      0.0771
    195  CG       -19.5240  -25.9690  -40.2010 C.ar  499  HIS499      0.0820
    196  ND1      -18.8530  -24.9880  -39.5150 N.ar  499  HIS499     -0.2267
    197  CD2      -19.3040  -25.7360  -41.5220 C.ar  499  HIS499      0.1154
    198  CE1      -18.2690  -24.1640  -40.3650 C.ar  499  HIS499      0.1986
    199  NE2      -18.4740  -24.6290  -41.5830 N.ar  499  HIS499     -0.2212
    200  N        -18.9050  -11.1930  -37.1950 N.3   645  LYS645     -0.1231
    201  CA       -18.0190  -11.2930  -38.3510 C.3   645  LYS645      0.1693
    202  C        -18.6880  -11.6050  -39.6470 C.2   645  LYS645      0.2592
    203  O        -18.1710  -11.2440  -40.7400 O.2   645  LYS645     -0.2718
    204  CB       -16.9440  -12.3690  -38.0110 C.3   645  LYS645      0.0285
    205  CG       -15.8340  -12.4600  -39.0520 C.3   645  LYS645      0.0035
    206  CD       -14.8480  -13.5410  -38.5840 C.3   645  LYS645      0.0206
    207  CE       -13.5070  -13.3960  -39.3810 C.3   645  LYS645      0.1093
    208  NZ       -12.5620  -14.5320  -39.0820 N.3   645  LYS645     -0.1314
    209  N        -19.8510  -12.2890  -39.6280 N.am  646  TYR646     -0.1976
    210  CA       -20.4470  -12.6230  -40.9020 C.3   646  TYR646      0.1639
    211  C        -21.0750  -11.3970  -41.6140 C.2   646  TYR646      0.2290
    212  O        -21.2710  -11.4340  -42.7950 O.2   646  TYR646     -0.2864
    213  CB       -21.5780  -13.6160  -40.7030 C.3   646  TYR646      0.0560
    214  CG       -21.1510  -15.0190  -40.2610 C.ar  646  TYR646     -0.0198
    215  CD1      -20.0600  -15.6570  -40.8540 C.ar  646  TYR646     -0.0009
    216  CD2      -21.9360  -15.7160  -39.2720 C.ar  646  TYR646     -0.0009
    217  CE1      -19.6810  -16.9470  -40.4330 C.ar  646  TYR646      0.0417
    218  CE2      -21.5790  -17.0400  -38.8720 C.ar  646  TYR646      0.0417
    219  CZ       -20.4580  -17.6320  -39.4640 C.ar  646  TYR646      0.1957
    220  OH       -20.0620  -18.9090  -39.1130 O.3   646  TYR646     -0.2866
@<TRIPOS>BOND
     1   145   146    1
     2   136   137    2
     3   136   135    1
     4   147   148    2
     5   147   146    1
     6   105   106    1
     7   108   107    2
     8   146   149    1
     9   134   135    1
    10   135   138    1
    11   107   106    1
    12   106   109    1
    13   149   150    1
    14    85    84    2
    15   138   139    1
    16    82    83    1
    17   109   110    1
    18    92    93    2
    19    92    91    1
    20   150   151    1
    21   139   140    1
    22    84    83    1
    23    84    90   am
    24   110   111    1
    25    83    86    1
    26    91    90    1
    27    91    94    1
    28   151   152    1
    29   152   153    2
    30    96    97    1
    31   140   141    1
    32   111   112    1
    33   141   142    2
    34    86    87    1
    35    94    95    1
    36   153   155    1
    37   153   154    1
    38   112   113    2
    39    88    87   ar
    40    97    98    1
    41    97   100    1
    42    98    99    2
    43    87    89   ar
    44   101   100    1
    45   101   102    1
    46   142   143    1
    47   142   144    1
    48   103   102   ar
    49   102   104   ar
    50   113   115    1
    51   113   114    1
    52   132   131    2
    53    44    45    1
    54   131   133   am
    55   131   130    1
    56    45    46    1
    57    45    48    1
    58    46    47    2
    59   130   127    1
    60   128   129    2
    61   128   127    1
    62    50    49   ar
    63    48    49    1
    64   127   126    1
    65    49    51   ar
    66    56    57    1
    67    56    53    1
    68    57    58    1
    69   174   172   ar
    70   174   176   ar
    71   172   171   ar
    72   177   176    1
    73   176   175   ar
    74   171   170    1
    75   171   173   ar
    76   170   167    1
    77   175   173   ar
    78   126   124   am
    79    58    60   ar
    80    58    59   ar
    81    52    53    1
    82    53    54    1
    83    77    76    2
    84   125   124    2
    85   124   123    1
    86   116   117    1
    87   117   118    1
    88   117   120    1
    89    81    79    1
    90   167   166    1
    91   167   168    1
    92    76    75    1
    93    78    75    1
    94    78    79    1
    95   119   118    2
    96    69    67   ar
    97    75    74    1
    98   165   164    2
    99   166   164   am
   100   118   122   am
   101    80    79    1
   102   164   163    1
   103    54    61   am
   104    54    55    2
   105   121   120    1
   106   212   211    2
   107   122   123    1
   108    61    62    1
   109   163   162    1
   110    67    66    1
   111    67    68   ar
   112    66    65    1
   113   168   169    2
   114    74    72   am
   115   184   186   ar
   116   184   183   ar
   117   186   188   ar
   118   211   210    1
   119   162   158   am
   120   199   197   ar
   121   199   198   ar
   122    62    65    1
   123    62    63    1
   124   178   179    1
   125   197   195   ar
   126   179   182    1
   127   179   180    1
   128   182   183    1
   129   183   185   ar
   130   190   180   am
   131   190   191    1
   132    72    73    2
   133    72    71    1
   134   210   213    1
   135   210   209    1
   136   215   217   ar
   137   215   214   ar
   138   188   189    1
   139   188   187   ar
   140   203   202    2
   141   213   214    1
   142   158   159    2
   143   158   157    1
   144   180   181    2
   145   217   219   ar
   146   198   196   ar
   147   191   194    1
   148   191   192    1
   149   214   216   ar
   150    63    64    2
   151   195   196   ar
   152   195   194    1
   153   185   187   ar
   154    70    71    1
   155   202   209   am
   156   202   201    1
   157   157   156    1
   158   157   160    1
   159   219   220    1
   160   219   218   ar
   161   192   193    2
   162   207   208    1
   163   207   206    1
   164   216   218   ar
   165   205   206    1
   166   205   204    1
   167   201   204    1
   168   201   200    1
   169   160   161    1
   170    43    41   am
   171    31    29    1
   172    16    18   ar
   173    16    15   ar
   174    18    20   ar
   175     4     3    2
   176    30    29    1
   177    41    42    2
   178    41    40    1
   179    14    15    1
   180    14    11    1
   181    29    28    2
   182    15    17   ar
   183    20    19   ar
   184    33    32    1
   185    33    34    1
   186     3     2    1
   187    10    11    1
   188     9     8    1
   189    11    12    1
   190    40    37    1
   191    36    34   am
   192    36    37    1
   193     2     1    1
   194     2     5    1
   195    17    19   ar
   196    34    35    2
   197     7     8    1
   198     7     6    1
   199    28    27    1
   200    37    38    1
   201    39    38    2
   202     5     6    1
   203    12    21   am
   204    12    13    2
   205    21    22    1
   206    27    26    1
   207    26    25    1
   208    25    22    1
   209    22    23    1
   210    23    24    2
