@<TRIPOS>MOLECULE
tmp/4ngnA04.pdb
 94 89 0 0 0
SMALL
GASTEIGER

@<TRIPOS>ATOM
      1  N        -23.2480   -3.5670  -61.7990 N.3   418  SER418     -0.1202
      2  CA       -23.6020   -3.5520  -63.2560 C.3   418  SER418      0.2020
      3  C        -23.2120   -4.8280  -63.9830 C.2   418  SER418      0.2618
      4  O        -23.9840   -5.3690  -64.7830 O.2   418  SER418     -0.2717
      5  CB       -22.9550   -2.3540  -63.9750 C.3   418  SER418      0.2103
      6  OG       -23.4760   -2.2130  -65.3050 O.3   418  SER418     -0.2182
      7  N        -22.0160   -5.3390  -63.7240 N.am  419  LEU419     -0.1979
      8  CA       -21.5310   -6.5640  -64.3180 C.3   419  LEU419      0.1596
      9  C        -22.5390   -7.7150  -63.9530 C.2   419  LEU419      0.2287
     10  O        -22.9220   -8.5260  -64.8160 O.2   419  LEU419     -0.2864
     11  CB       -20.1770   -6.9450  -63.7640 C.3   419  LEU419      0.0297
     12  CG       -19.6800   -8.4010  -63.9720 C.3   419  LEU419      0.0022
     13  CD1      -19.4820   -8.8030  -65.4420 C.3   419  LEU419      0.0001
     14  CD2      -18.4020   -8.5830  -63.2000 C.3   419  LEU419      0.0001
     15  N        -25.9440   -7.2640  -65.7060 N.3   422  ASN422     -0.1240
     16  CA       -25.8780   -7.5510  -67.1470 C.3   422  ASN422      0.1653
     17  C        -25.7060   -9.0520  -67.4120 C.2   422  ASN422      0.2266
     18  O        -26.2970   -9.6180  -68.3950 O.2   422  ASN422     -0.2867
     19  CB       -24.7750   -6.7870  -67.8400 C.3   422  ASN422      0.1155
     20  CG       -25.0500   -5.3040  -67.9560 C.2   422  ASN422      0.2627
     21  OD1      -26.0360   -4.7710  -67.4800 O.2   422  ASN422     -0.2716
     22  ND2      -24.0760   -4.6120  -68.5830 N.am  422  ASN422     -0.0877
     23  N        -15.8000  -12.2110  -67.8970 N.3   532  GLU532     -0.1245
     24  CA       -15.9910  -10.7530  -68.2510 C.3   532  GLU532      0.1567
     25  C        -14.8060   -9.9480  -67.6230 C.2   532  GLU532      0.2260
     26  O        -14.1050   -9.1610  -68.3020 O.2   532  GLU532     -0.2867
     27  CB       -17.2800  -10.2210  -67.7500 C.3   532  GLU532      0.0388
     28  CG       -18.4480  -10.3190  -68.7220 C.3   532  GLU532      0.1160
     29  CD       -18.0560   -9.7870  -70.1180 C.2   532  GLU532      0.3649
     30  OE1      -17.4210  -10.5390  -70.8680 O.co2 532  GLU532     -0.2457
     31  OE2      -18.2770   -8.5890  -70.4060 O.co2 532  GLU532     -0.2457
     32  N        -15.0040   -4.2710  -66.3070 N.3   540  PRO540     -0.2102
     33  CA       -16.4340   -4.1160  -66.1790 C.3   540  PRO540      0.1504
     34  C        -16.9050   -3.6570  -64.7880 C.2   540  PRO540      0.2576
     35  O        -17.6530   -4.3430  -64.0810 O.2   540  PRO540     -0.2718
     36  CB       -16.9720   -5.5340  -66.4910 C.3   540  PRO540      0.0282
     37  CG       -15.8550   -6.4250  -66.0280 C.3   540  PRO540      0.0208
     38  CD       -14.5480   -5.6650  -66.2420 C.3   540  PRO540      0.0893
     39  N        -16.3990   -2.4870  -64.3740 N.am  541  PHE541     -0.1963
     40  CA       -16.7210   -1.8780  -63.1170 C.3   541  PHE541      0.1771
     41  C        -17.3630   -0.5480  -63.4370 C.2   541  PHE541      0.2619
     42  O        -16.8570    0.1740  -64.3630 O.2   541  PHE541     -0.2715
     43  CB       -15.4290   -1.5060  -62.3430 C.3   541  PHE541      0.0574
     44  CG       -14.6120   -2.6780  -61.8450 C.ar  541  PHE541     -0.0200
     45  CD1      -15.1790   -3.9070  -61.5530 C.ar  541  PHE541     -0.0042
     46  CD2      -13.2290   -2.5210  -61.6520 C.ar  541  PHE541     -0.0042
     47  CE1      -14.3600   -4.9510  -61.1030 C.ar  541  PHE541     -0.0003
     48  CE2      -12.4070   -3.5740  -61.2060 C.ar  541  PHE541     -0.0003
     49  CZ       -12.9860   -4.8050  -60.9030 C.ar  541  PHE541     -0.0000
     50  N        -18.3900   -0.1940  -62.6990 N.am  542  ASP542     -0.1971
     51  CA       -19.0510    1.1020  -62.8480 C.3   542  ASP542      0.1709
     52  C        -18.8730    1.9170  -61.5640 C.2   542  ASP542      0.2293
     53  O        -19.5910    1.7250  -60.5470 O.2   542  ASP542     -0.2864
     54  CB       -20.5230    0.9370  -63.2210 C.3   542  ASP542      0.1436
     55  CG       -21.1500    2.2450  -63.6780 C.2   542  ASP542      0.3671
     56  OD1      -20.5560    3.3180  -63.4540 O.co2 542  ASP542     -0.2456
     57  OD2      -22.2570    2.2090  -64.2460 O.co2 542  ASP542     -0.2456
     58  N        -19.8910    4.7660  -60.8580 N.3   544  ARG544     -0.1245
     59  CA       -21.0470    5.4830  -60.4210 C.3   544  ARG544      0.1563
     60  C        -21.9060    4.6900  -59.4080 C.2   544  ARG544      0.2260
     61  O        -22.6110    5.2500  -58.6090 O.2   544  ARG544     -0.2867
     62  CB       -21.9400    5.8920  -61.6320 C.3   544  ARG544      0.0307
     63  CG       -21.1730    6.8160  -62.6100 C.3   544  ARG544      0.0489
     64  CD       -21.9880    6.9580  -63.9040 C.3   544  ARG544      0.2205
     65  NE       -22.0600    5.6640  -64.5780 N.pl3 544  ARG544     -0.0865
     66  CZ       -22.7040    5.4720  -65.7330 C.cat 544  ARG544      0.5346
     67  NH1      -23.2430    6.5200  -66.3450 N.pl3 544  ARG544      0.1354
     68  NH2      -22.7520    4.2710  -66.2910 N.pl3 544  ARG544      0.1354
     69  N        -16.4630    6.4090  -71.7990 N.3   597  GLN597     -0.1231
     70  CA       -17.3890    6.2110  -72.9380 C.3   597  GLN597      0.1698
     71  C        -16.7220    6.7530  -74.2010 C.2   597  GLN597      0.2592
     72  O        -16.7590    6.1110  -75.2330 O.2   597  GLN597     -0.2718
     73  CB       -18.6730    7.0160  -72.7580 C.3   597  GLN597      0.0381
     74  CG       -19.5650    6.5910  -71.6210 C.3   597  GLN597      0.0905
     75  CD       -20.3900    5.3730  -71.9430 C.2   597  GLN597      0.2608
     76  OE1      -21.1530    4.8970  -71.1030 O.2   597  GLN597     -0.2717
     77  NE2      -20.2430    4.8520  -73.1580 N.am  597  GLN597     -0.0878
     78  N        -16.1130    7.9350  -74.0710 N.am  598  ASP598     -0.1974
     79  CA       -15.7010    8.8150  -75.1730 C.3   598  ASP598      0.1709
     80  C        -14.2440    8.8020  -75.4710 C.2   598  ASP598      0.2293
     81  O        -13.8190    9.5290  -76.3400 O.2   598  ASP598     -0.2864
     82  CB       -15.9250   10.2780  -74.7870 C.3   598  ASP598      0.1436
     83  CG       -17.3710   10.6490  -74.7120 C.2   598  ASP598      0.3671
     84  OD1      -18.2360    9.7760  -74.9490 O.co2 598  ASP598     -0.2456
     85  OD2      -17.6410   11.8300  -74.4040 O.co2 598  ASP598     -0.2456
     86  N        -10.7410    5.0570  -78.4700 N.3   601  LYS601     -0.1245
     87  CA       -10.7440    3.6000  -78.1810 C.3   601  LYS601      0.1561
     88  C         -9.5630    2.9200  -78.8370 C.2   601  LYS601      0.2260
     89  O         -9.2820    1.7630  -78.5220 O.2   601  LYS601     -0.2867
     90  CB       -12.0840    2.9460  -78.6720 C.3   601  LYS601      0.0271
     91  CG       -13.2070    3.6690  -77.9180 C.3   601  LYS601      0.0035
     92  CD       -13.3120    3.1190  -76.5060 C.3   601  LYS601      0.0206
     93  CE       -14.8190    2.9920  -76.2510 C.3   601  LYS601      0.1093
     94  NZ       -14.8560    2.8950  -74.7590 N.3   601  LYS601     -0.1314
@<TRIPOS>BOND
     1    88    89    2
     2    88    87    1
     3    90    87    1
     4    90    91    1
     5    86    87    1
     6    91    92    1
     7    92    93    1
     8    81    80    2
     9    93    94    1
    10    80    79    1
    11    72    71    2
    12    79    82    1
    13    79    78    1
    14    84    83   ar
    15    82    83    1
    16    83    85   ar
    17    71    78   am
    18    71    70    1
    19    77    75   am
    20    70    73    1
    21    70    69    1
    22    73    74    1
    23    75    74    1
    24    75    76    2
    25    30    29   ar
    26    31    29   ar
    27    29    28    1
    28    28    27    1
    29    22    20   am
    30    18    17    2
    31    26    25    2
    32    24    23    1
    33    24    27    1
    34    24    25    1
    35    20    19    1
    36    20    21    2
    37    19    16    1
    38    17    16    1
    39    16    15    1
    40    36    33    1
    41    36    37    1
    42    67    66    1
    43    32    38    1
    44    32    33    1
    45    68    66    1
    46    38    37    1
    47    33    34    1
    48    66    65    2
    49    13    12    1
    50     6     5    1
    51    10     9    2
    52    34    39   am
    53    34    35    2
    54     4     3    2
    55    65    64    1
    56    39    40    1
    57    42    41    2
    58     8     9    1
    59     8    11    1
    60     8     7    1
    61    57    55   ar
    62     3     7   am
    63     3     2    1
    64     5     2    1
    65    12    11    1
    66    12    14    1
    67    64    63    1
    68    55    56   ar
    69    55    54    1
    70    41    40    1
    71    41    50   am
    72     2     1    1
    73    54    51    1
    74    40    43    1
    75    51    50    1
    76    51    52    1
    77    63    62    1
    78    43    44    1
    79    44    46   ar
    80    44    45   ar
    81    46    48   ar
    82    62    59    1
    83    52    53    2
    84    45    47   ar
    85    48    49   ar
    86    47    49   ar
    87    58    59    1
    88    59    60    1
    89    60    61    2
