@<TRIPOS>MOLECULE
tmp/4ngpA06.pdb
 176 168 0 0 0
SMALL
GASTEIGER

@<TRIPOS>ATOM
      1  N        -21.6850  -14.9280  -36.3090 N.3   155  PHE155     -0.1227
      2  CA       -20.5070  -15.8310  -36.2560 C.3   155  PHE155      0.1736
      3  C        -20.1670  -16.2860  -34.8550 C.2   155  PHE155      0.2595
      4  O        -20.1390  -15.5080  -33.8730 O.2   155  PHE155     -0.2718
      5  CB       -19.3120  -15.0910  -36.8680 C.3   155  PHE155      0.0547
      6  CG       -17.9970  -15.8440  -36.8370 C.ar  155  PHE155     -0.0202
      7  CD1      -17.8820  -17.0250  -37.5090 C.ar  155  PHE155     -0.0042
      8  CD2      -16.8600  -15.2760  -36.2450 C.ar  155  PHE155     -0.0042
      9  CE1      -16.6980  -17.7550  -37.4970 C.ar  155  PHE155     -0.0003
     10  CE2      -15.6900  -16.0150  -36.1850 C.ar  155  PHE155     -0.0003
     11  CZ       -15.5900  -17.2180  -36.8730 C.ar  155  PHE155     -0.0000
     12  N        -19.8750  -17.5890  -34.7500 N.am  156  ARG156     -0.1980
     13  CA       -19.6310  -18.1390  -33.4060 C.3   156  ARG156      0.1597
     14  C        -18.4160  -17.5850  -32.6590 C.2   156  ARG156      0.2287
     15  O        -18.3780  -17.5410  -31.4210 O.2   156  ARG156     -0.2864
     16  CB       -19.6090  -19.6700  -33.4860 C.3   156  ARG156      0.0334
     17  CG       -18.3830  -20.2200  -34.2360 C.3   156  ARG156      0.0492
     18  CD       -18.4050  -21.7470  -34.4450 C.3   156  ARG156      0.2205
     19  NE       -19.1420  -22.1680  -35.6300 N.pl3 156  ARG156     -0.0865
     20  CZ       -18.7510  -21.9680  -36.8720 C.cat 156  ARG156      0.5346
     21  NH1      -17.6110  -21.3090  -37.0860 N.pl3 156  ARG156      0.1354
     22  NH2      -19.4920  -22.3770  -37.8580 N.pl3 156  ARG156      0.1354
     23  N        -16.9950  -25.9460  -36.1030 N.3   202  GLY202     -0.1210
     24  CA       -16.4840  -24.6560  -36.5890 C.3   202  GLY202      0.1956
     25  C        -15.5110  -24.0040  -35.6740 C.2   202  GLY202      0.2611
     26  O        -15.5610  -24.1300  -34.4010 O.2   202  GLY202     -0.2717
     27  N        -14.6100  -23.1720  -36.2660 N.am  203  ASN203     -0.1974
     28  CA       -13.6590  -22.4860  -35.4490 C.3   203  ASN203      0.1688
     29  C        -14.2650  -21.2990  -34.7010 C.2   203  ASN203      0.2292
     30  O        -15.2800  -20.7720  -35.0860 O.2   203  ASN203     -0.2864
     31  CB       -12.4090  -22.0260  -36.2500 C.3   203  ASN203      0.1181
     32  CG       -12.6440  -20.6820  -36.9900 C.2   203  ASN203      0.2629
     33  OD1      -12.6340  -19.6540  -36.3890 O.2   203  ASN203     -0.2716
     34  ND2      -12.7900  -20.7240  -38.3070 N.am  203  ASN203     -0.0877
     35  N        -20.4290  -27.7600  -48.3910 N.3   333  ASP333     -0.1239
     36  CA       -19.3590  -26.7730  -47.9930 C.3   333  ASP333      0.1674
     37  C        -18.0430  -27.5500  -47.8510 C.2   333  ASP333      0.2266
     38  O        -17.8590  -28.2350  -46.8560 O.2   333  ASP333     -0.2867
     39  CB       -19.8070  -26.0780  -46.7130 C.3   333  ASP333      0.1410
     40  CG       -18.7850  -25.0790  -46.2050 C.2   333  ASP333      0.3668
     41  OD1      -17.8650  -24.9590  -46.9850 O.co2 333  ASP333     -0.2456
     42  OD2      -18.9650  -24.6190  -45.0240 O.co2 333  ASP333     -0.2456
     43  N        -11.5630  -23.5160  -43.2630 N.3   371  GLU371     -0.1245
     44  CA       -12.3980  -23.7670  -42.0760 C.3   371  GLU371      0.1567
     45  C        -11.7420  -23.3850  -40.7760 C.2   371  GLU371      0.2260
     46  O        -12.4380  -23.2010  -39.7700 O.2   371  GLU371     -0.2867
     47  CB       -12.8660  -25.2400  -42.0710 C.3   371  GLU371      0.0388
     48  CG       -13.7940  -25.6740  -43.2090 C.3   371  GLU371      0.1160
     49  CD       -15.1840  -25.0220  -43.2360 C.2   371  GLU371      0.3649
     50  OE1      -15.4550  -24.0800  -42.4310 O.co2 371  GLU371     -0.2457
     51  OE2      -16.0420  -25.4250  -44.0300 O.co2 371  GLU371     -0.2457
     52  N         -9.9110  -20.5730  -40.3820 N.3   373  GLY373     -0.1210
     53  CA        -9.7100  -19.1150  -40.3390 C.3   373  GLY373      0.1956
     54  C         -9.2240  -18.4670  -41.6150 C.2   373  GLY373      0.2611
     55  O         -8.4830  -17.4830  -41.5450 O.2   373  GLY373     -0.2717
     56  N         -9.6250  -18.9970  -42.7380 N.am  374  LEU374     -0.1979
     57  CA        -9.2730  -18.4130  -44.0600 C.3   374  LEU374      0.1596
     58  C         -7.7370  -18.4470  -44.1910 C.2   374  LEU374      0.2287
     59  O         -7.1120  -17.5770  -44.8400 O.2   374  LEU374     -0.2864
     60  CB        -9.8170  -16.9630  -44.1410 C.3   374  LEU374      0.0297
     61  CG       -11.2080  -16.6840  -43.5600 C.3   374  LEU374      0.0022
     62  CD1      -11.5710  -15.2240  -43.7400 C.3   374  LEU374      0.0001
     63  CD2      -12.2540  -17.5550  -44.2110 C.3   374  LEU374      0.0001
     64  N        -16.9430  -20.7720  -52.8650 N.3   399  ASP399     -0.1225
     65  CA       -17.3510  -21.7600  -51.8370 C.3   399  ASP399      0.1805
     66  C        -18.7170  -22.3360  -52.2990 C.2   399  ASP399      0.2598
     67  O        -19.0530  -22.2680  -53.5120 O.2   399  ASP399     -0.2718
     68  CB       -17.3530  -21.2030  -50.4160 C.3   399  ASP399      0.1424
     69  CG       -17.2730  -22.2300  -49.3570 C.2   399  ASP399      0.3668
     70  OD1      -17.2190  -23.4100  -49.6660 O.co2 399  ASP399     -0.2456
     71  OD2      -17.2030  -21.7840  -48.1970 O.co2 399  ASP399     -0.2456
     72  N        -19.5120  -22.8210  -51.3540 N.am  400  SER400     -0.1952
     73  CA       -20.7300  -23.5700  -51.6560 C.3   400  SER400      0.1924
     74  C        -21.5560  -22.9260  -52.7960 C.2   400  SER400      0.2314
     75  O        -21.8700  -21.7200  -52.7440 O.2   400  SER400     -0.2863
     76  CB       -21.5500  -23.6890  -50.4130 C.3   400  SER400      0.2116
     77  OG       -20.7920  -24.1080  -49.3180 O.3   400  SER400     -0.2180
     78  N        -17.9720  -11.2360  -44.3910 N.3   463  SER463     -0.1202
     79  CA       -16.7710  -12.0450  -44.3090 C.3   463  SER463      0.2020
     80  C        -17.1110  -13.4550  -43.8550 C.2   463  SER463      0.2619
     81  O        -18.2760  -13.8880  -44.0390 O.2   463  SER463     -0.2717
     82  CB       -15.7110  -11.3990  -43.4050 C.3   463  SER463      0.2103
     83  OG       -14.5010  -12.1060  -43.4770 O.3   463  SER463     -0.2182
     84  N        -16.1230  -14.2060  -43.3440 N.am  464  GLY464     -0.1942
     85  CA       -16.3610  -15.6140  -43.1040 C.3   464  GLY464      0.2014
     86  C        -16.1180  -16.4330  -44.3460 C.2   464  GLY464      0.2638
     87  O        -16.5960  -17.5950  -44.4780 O.2   464  GLY464     -0.2714
     88  N        -15.3170  -15.8830  -45.2750 N.am  465  ASN465     -0.1972
     89  CA       -14.8990  -16.6340  -46.4550 C.3   465  ASN465      0.1688
     90  C        -13.6790  -16.0520  -47.1210 C.2   465  ASN465      0.2292
     91  O        -13.2340  -14.9820  -46.7320 O.2   465  ASN465     -0.2864
     92  CB       -16.0660  -16.8820  -47.4350 C.3   465  ASN465      0.1181
     93  CG       -16.0250  -18.2990  -47.9990 C.2   465  ASN465      0.2629
     94  OD1      -15.0840  -18.7110  -48.7060 O.2   465  ASN465     -0.2716
     95  ND2      -17.0300  -19.1060  -47.5710 N.am  465  ASN465     -0.0877
     96  N        -19.1290  -12.7510  -55.0600 N.3   480  ARG480     -0.1197
     97  CA       -19.5370  -14.1580  -54.8170 C.3   480  ARG480      0.1779
     98  C        -20.9790  -14.3410  -55.2980 C.2   480  ARG480      0.2305
     99  O        -21.7850  -13.4160  -55.2760 O.2   480  ARG480     -0.2863
    100  CB       -19.4280  -14.5170  -53.3200 C.2   480  ARG480     -0.0007
    101  CG       -20.4510  -13.9090  -52.4200 C.2   480  ARG480      0.0176
    102  CD       -20.1590  -14.0290  -50.9530 C.3   480  ARG480      0.2464
    103  NE       -19.9590  -15.4400  -50.5110 N.pl3 480  ARG480     -0.0815
    104  CZ       -19.9220  -15.8220  -49.2460 C.cat 480  ARG480      0.5349
    105  NH1      -19.6930  -17.1150  -48.9820 N.pl3 480  ARG480      0.1354
    106  NH2      -20.0640  -14.9500  -48.2390 N.pl3 480  ARG480      0.1354
    107  N        -24.2460  -17.6130  -55.3960 N.3   482  ARG482     -0.1245
    108  CA       -24.7140  -19.0080  -55.1460 C.3   482  ARG482      0.1563
    109  C        -26.1920  -19.0540  -55.2400 C.2   482  ARG482      0.2260
    110  O        -26.8200  -18.0390  -55.2380 O.2   482  ARG482     -0.2867
    111  CB       -24.2220  -19.4710  -53.7720 C.3   482  ARG482      0.0307
    112  CG       -24.6510  -18.6010  -52.5900 C.3   482  ARG482      0.0489
    113  CD       -24.4180  -19.3310  -51.2690 C.3   482  ARG482      0.2205
    114  NE       -22.9790  -19.6280  -51.0660 N.pl3 482  ARG482     -0.0865
    115  CZ       -22.3620  -19.6680  -49.8980 C.cat 482  ARG482      0.5346
    116  NH1      -22.9740  -19.3850  -48.7420 N.pl3 482  ARG482      0.1354
    117  NH2      -21.0710  -20.0130  -49.8760 N.pl3 482  ARG482      0.1354
    118  N        -31.1040  -16.3530  -40.7160 N.3   492  PHE492     -0.1241
    119  CA       -29.6370  -16.1130  -40.5930 C.3   492  PHE492      0.1605
    120  C        -28.9680  -17.1350  -39.6660 C.2   492  PHE492      0.2264
    121  O        -28.0980  -16.8190  -38.8570 O.2   492  PHE492     -0.2867
    122  CB       -29.3260  -14.6200  -40.2300 C.3   492  PHE492      0.0534
    123  CG       -29.7550  -13.6890  -41.3310 C.ar  492  PHE492     -0.0203
    124  CD1      -29.0580  -13.6820  -42.5540 C.ar  492  PHE492     -0.0042
    125  CD2      -30.9520  -12.9610  -41.2340 C.ar  492  PHE492     -0.0042
    126  CE1      -29.5110  -12.9170  -43.6240 C.ar  492  PHE492     -0.0003
    127  CE2      -31.4000  -12.1810  -42.3070 C.ar  492  PHE492     -0.0003
    128  CZ       -30.6780  -12.1610  -43.4990 C.ar  492  PHE492     -0.0000
    129  N        -27.9430  -23.1970  -43.3380 N.3   495  TYR495     -0.1241
    130  CA       -28.8010  -24.3960  -43.7270 C.3   495  TYR495      0.1605
    131  C        -28.6930  -25.4210  -42.6040 C.2   495  TYR495      0.2264
    132  O        -27.7430  -25.4300  -41.8780 O.2   495  TYR495     -0.2867
    133  CB       -28.4320  -24.9720  -45.0870 C.3   495  TYR495      0.0534
    134  CG       -26.9730  -25.3150  -45.2920 C.ar  495  TYR495     -0.0201
    135  CD1      -26.0920  -24.3530  -45.7410 C.ar  495  TYR495     -0.0009
    136  CD2      -26.4630  -26.5850  -45.0330 C.ar  495  TYR495     -0.0009
    137  CE1      -24.7590  -24.6460  -45.9210 C.ar  495  TYR495      0.0417
    138  CE2      -25.1100  -26.8890  -45.2020 C.ar  495  TYR495      0.0417
    139  CZ       -24.2620  -25.8990  -45.6380 C.ar  495  TYR495      0.1957
    140  OH       -22.9260  -26.1480  -45.8040 O.3   495  TYR495     -0.2866
    141  N        -21.9410  -27.9080  -41.6020 N.3   499  HIS499     -0.1241
    142  CA       -20.7450  -28.3520  -40.8330 C.3   499  HIS499      0.1621
    143  C        -20.9980  -29.6220  -39.9320 C.2   499  HIS499      0.2264
    144  O        -20.2550  -29.8780  -38.9910 O.2   499  HIS499     -0.2867
    145  CB       -20.1990  -27.2390  -39.9580 C.3   499  HIS499      0.0745
    146  CG       -19.4970  -26.1210  -40.7080 C.ar  499  HIS499      0.0817
    147  ND1      -18.8920  -25.1010  -40.0030 N.ar  499  HIS499     -0.2268
    148  CD2      -19.2710  -25.8650  -42.0200 C.ar  499  HIS499      0.1154
    149  CE1      -18.3090  -24.2760  -40.8450 C.ar  499  HIS499      0.1986
    150  NE2      -18.4550  -24.7560  -42.0590 N.ar  499  HIS499     -0.2212
    151  N        -18.9030  -11.2340  -37.6910 N.3   644  LYS644     -0.1231
    152  CA       -18.0020  -11.3860  -38.8600 C.3   644  LYS644      0.1693
    153  C        -18.6830  -11.6960  -40.1560 C.2   644  LYS644      0.2592
    154  O        -18.2040  -11.3090  -41.1870 O.2   644  LYS644     -0.2718
    155  CB       -16.9610  -12.4670  -38.5330 C.3   644  LYS644      0.0285
    156  CG       -15.8300  -12.5510  -39.5190 C.3   644  LYS644      0.0035
    157  CD       -14.7870  -13.5560  -39.0840 C.3   644  LYS644      0.0206
    158  CE       -13.5390  -13.4910  -39.9500 C.3   644  LYS644      0.1093
    159  NZ       -12.5540  -14.5480  -39.6290 N.3   644  LYS644     -0.1314
    160  N        -19.8250  -12.4090  -40.1980 N.am  645  TYR645     -0.1962
    161  CA       -20.4380  -12.6740  -41.4540 C.3   645  TYR645      0.1771
    162  C        -21.0680  -11.4960  -42.1390 C.2   645  TYR645      0.2619
    163  O        -21.1560  -11.5240  -43.3540 O.2   645  TYR645     -0.2715
    164  CB       -21.5870  -13.6820  -41.2270 C.3   645  TYR645      0.0574
    165  CG       -21.1430  -15.0670  -40.7590 C.ar  645  TYR645     -0.0198
    166  CD1      -20.0630  -15.7250  -41.3150 C.ar  645  TYR645     -0.0009
    167  CD2      -21.9030  -15.7610  -39.7950 C.ar  645  TYR645     -0.0009
    168  CE1      -19.7020  -17.0040  -40.8980 C.ar  645  TYR645      0.0417
    169  CE2      -21.5510  -17.0590  -39.3770 C.ar  645  TYR645      0.0417
    170  CZ       -20.4810  -17.6920  -39.9650 C.ar  645  TYR645      0.1957
    171  OH       -20.1100  -18.9530  -39.5160 O.3   645  TYR645     -0.2866
    172  N        -21.4910  -10.4880  -41.3620 N.am  646  ALA646     -0.1977
    173  CA       -22.2310   -9.3510  -41.9090 C.3   646  ALA646      0.1597
    174  C        -21.2570   -8.2290  -42.3090 C.2   646  ALA646      0.2287
    175  O        -20.2930   -7.9440  -41.6400 O.2   646  ALA646     -0.2864
    176  CB       -23.2100   -8.8270  -40.8820 C.3   646  ALA646      0.0319
@<TRIPOS>BOND
     1   107   108    1
     2    98    99    2
     3    98    97    1
     4   109   110    2
     5   109   108    1
     6   108   111    1
     7    96    97    1
     8    97   100    1
     9   111   112    1
    10    67    66    2
    11   100   101    2
    12    64    65    1
    13    74    75    2
    14    74    73    1
    15   112   113    1
    16   101   102    1
    17    66    65    1
    18    66    72   am
    19    65    68    1
    20    73    72    1
    21    73    76    1
    22   113   114    1
    23   114   115    2
    24   102   103    1
    25   103   104    2
    26    68    69    1
    27    76    77    1
    28   115   117    1
    29   115   116    1
    30    70    69   ar
    31    69    71   ar
    32   104   105    1
    33   104   106    1
    34    94    93    2
    35    35    36    1
    36    93    95   am
    37    93    92    1
    38    36    37    1
    39    36    39    1
    40    37    38    2
    41    92    89    1
    42    90    91    2
    43    90    89    1
    44    41    40   ar
    45    39    40    1
    46    89    88    1
    47    40    42   ar
    48   137   135   ar
    49   137   139   ar
    50   140   139    1
    51   135   134   ar
    52   139   138   ar
    53   134   133    1
    54   134   136   ar
    55    88    86   am
    56   138   136   ar
    57   133   130    1
    58    59    58    2
    59    87    86    2
    60    78    79    1
    61    86    85    1
    62    79    80    1
    63    79    82    1
    64    63    61    1
    65    58    57    1
    66    60    57    1
    67    60    61    1
    68    57    56    1
    69    81    80    2
    70    51    49   ar
    71    80    84   am
    72    62    61    1
    73   130   129    1
    74   130   131    1
    75   126   128   ar
    76   126   124   ar
    77   128   127   ar
    78    83    82    1
    79   163   162    2
    80    84    85    1
    81    43    44    1
    82    49    48    1
    83    49    50   ar
    84    48    47    1
    85    56    54   am
    86   131   132    2
    87   124   123   ar
    88   174   173    1
    89   174   175    2
    90   127   125   ar
    91   162   161    1
    92   162   172   am
    93    44    47    1
    94    44    45    1
    95   150   148   ar
    96   150   149   ar
    97   148   146   ar
    98   173   172    1
    99   173   176    1
   100    54    55    2
   101    54    53    1
   102   141   142    1
   103   161   164    1
   104   161   160    1
   105   123   125   ar
   106   123   122    1
   107   166   168   ar
   108   166   165   ar
   109   164   165    1
   110   154   153    2
   111   168   170   ar
   112   149   147   ar
   113   142   145    1
   114   142   143    1
   115    45    46    2
   116   165   167   ar
   117   118   119    1
   118   146   147   ar
   119   146   145    1
   120   119   122    1
   121   119   120    1
   122    52    53    1
   123   160   153   am
   124   153   152    1
   125   170   171    1
   126   170   169   ar
   127   158   159    1
   128   158   157    1
   129   143   144    2
   130   167   169   ar
   131   120   121    2
   132   156   157    1
   133   156   155    1
   134   152   155    1
   135   152   151    1
   136    34    32   am
   137    22    20    1
   138     7     9   ar
   139     7     6   ar
   140     9    11   ar
   141    21    20    1
   142    32    33    2
   143    32    31    1
   144    11    10   ar
   145    20    19    2
   146     5     6    1
   147     5     2    1
   148     6     8   ar
   149    24    23    1
   150    24    25    1
   151     1     2    1
   152    27    25   am
   153    27    28    1
   154     2     3    1
   155    31    28    1
   156     8    10   ar
   157    25    26    2
   158    19    18    1
   159    28    29    1
   160    30    29    2
   161     3    12   am
   162     3     4    2
   163    12    13    1
   164    18    17    1
   165    17    16    1
   166    16    13    1
   167    13    14    1
   168    14    15    2
