@<TRIPOS>MOLECULE
tmp/4ngqA06.pdb
 171 161 0 0 0
SMALL
GASTEIGER

@<TRIPOS>ATOM
      1  N        -27.6940  -16.2440  -35.6440 N.3   153  LYS153     -0.1245
      2  CA       -27.6630  -14.7420  -35.6530 C.3   153  LYS153      0.1561
      3  C        -26.2900  -14.1560  -35.9000 C.2   153  LYS153      0.2260
      4  O        -26.1220  -13.3370  -36.7920 O.2   153  LYS153     -0.2867
      5  CB       -28.2070  -14.1480  -34.3630 C.3   153  LYS153      0.0271
      6  CG       -29.6210  -14.6120  -34.0030 C.3   153  LYS153      0.0035
      7  CD       -30.5840  -14.2440  -35.1070 C.3   153  LYS153      0.0206
      8  CE       -32.0380  -14.3880  -34.6300 C.3   153  LYS153      0.1093
      9  NZ       -32.9070  -14.5910  -35.8190 N.3   153  LYS153     -0.1314
     10  N        -21.7040  -14.8410  -35.7930 N.3   155  PHE155     -0.1227
     11  CA       -20.5330  -15.7380  -35.8190 C.3   155  PHE155      0.1736
     12  C        -20.2150  -16.2210  -34.4000 C.2   155  PHE155      0.2595
     13  O        -20.1230  -15.4170  -33.4580 O.2   155  PHE155     -0.2718
     14  CB       -19.3180  -15.0380  -36.4490 C.3   155  PHE155      0.0547
     15  CG       -18.0510  -15.8230  -36.3790 C.ar  155  PHE155     -0.0202
     16  CD1      -17.9040  -17.0200  -37.0620 C.ar  155  PHE155     -0.0042
     17  CD2      -16.9320  -15.2750  -35.7570 C.ar  155  PHE155     -0.0042
     18  CE1      -16.7340  -17.7380  -37.0100 C.ar  155  PHE155     -0.0003
     19  CE2      -15.7670  -15.9930  -35.6920 C.ar  155  PHE155     -0.0003
     20  CZ       -15.6740  -17.2340  -36.3170 C.ar  155  PHE155     -0.0000
     21  N        -19.9390  -17.5200  -34.2780 N.am  156  ARG156     -0.1980
     22  CA       -19.7550  -18.1010  -32.9540 C.3   156  ARG156      0.1597
     23  C        -18.5380  -17.5140  -32.1940 C.2   156  ARG156      0.2287
     24  O        -18.5280  -17.4630  -30.9900 O.2   156  ARG156     -0.2864
     25  CB       -19.6890  -19.6340  -33.0520 C.3   156  ARG156      0.0334
     26  CG       -18.4510  -20.1630  -33.7270 C.3   156  ARG156      0.0492
     27  CD       -18.5020  -21.6830  -33.9910 C.3   156  ARG156      0.2205
     28  NE       -19.2270  -22.0740  -35.1910 N.pl3 156  ARG156     -0.0865
     29  CZ       -18.7870  -21.8690  -36.4310 C.cat 156  ARG156      0.5346
     30  NH1      -17.6190  -21.2680  -36.6470 N.pl3 156  ARG156      0.1354
     31  NH2      -19.5270  -22.2070  -37.4460 N.pl3 156  ARG156      0.1354
     32  N        -17.0390  -25.8170  -35.6170 N.3   202  GLY202     -0.1210
     33  CA       -16.4890  -24.5590  -36.1470 C.3   202  GLY202      0.1956
     34  C        -15.5190  -23.8550  -35.2140 C.2   202  GLY202      0.2611
     35  O        -15.6350  -23.9500  -33.9970 O.2   202  GLY202     -0.2717
     36  N        -14.5830  -23.0810  -35.7710 N.am  203  ASN203     -0.1974
     37  CA       -13.6390  -22.3850  -34.9520 C.3   203  ASN203      0.1688
     38  C        -14.3210  -21.2310  -34.2240 C.2   203  ASN203      0.2292
     39  O        -15.3460  -20.7350  -34.6310 O.2   203  ASN203     -0.2864
     40  CB       -12.4330  -21.9130  -35.7760 C.3   203  ASN203      0.1181
     41  CG       -12.6730  -20.5460  -36.4890 C.2   203  ASN203      0.2629
     42  OD1      -12.6800  -19.5160  -35.8640 O.2   203  ASN203     -0.2716
     43  ND2      -12.8520  -20.5720  -37.7780 N.am  203  ASN203     -0.0877
     44  N        -20.5660  -27.6290  -47.8670 N.3   333  ASP333     -0.1239
     45  CA       -19.4800  -26.7980  -47.4960 C.3   333  ASP333      0.1674
     46  C        -18.1460  -27.5390  -47.3480 C.2   333  ASP333      0.2266
     47  O        -17.9350  -28.1250  -46.3250 O.2   333  ASP333     -0.2867
     48  CB       -19.8770  -26.1190  -46.1710 C.3   333  ASP333      0.1410
     49  CG       -18.8540  -25.0750  -45.7150 C.2   333  ASP333      0.3668
     50  OD1      -17.9040  -24.9240  -46.4650 O.co2 333  ASP333     -0.2456
     51  OD2      -18.9050  -24.5600  -44.5910 O.co2 333  ASP333     -0.2456
     52  N        -11.6000  -23.4140  -42.7560 N.3   371  GLU371     -0.1245
     53  CA       -12.4080  -23.6690  -41.5560 C.3   371  GLU371      0.1567
     54  C        -11.7890  -23.3210  -40.2620 C.2   371  GLU371      0.2260
     55  O        -12.5140  -23.1820  -39.2730 O.2   371  GLU371     -0.2867
     56  CB       -12.9040  -25.1400  -41.4830 C.3   371  GLU371      0.0388
     57  CG       -13.8630  -25.6150  -42.5890 C.3   371  GLU371      0.1160
     58  CD       -15.1960  -24.9070  -42.6670 C.2   371  GLU371      0.3649
     59  OE1      -15.5020  -23.9800  -41.8730 O.co2 371  GLU371     -0.2457
     60  OE2      -15.9670  -25.2610  -43.5520 O.co2 371  GLU371     -0.2457
     61  N         -9.9330  -20.5620  -39.8570 N.3   373  GLY373     -0.1210
     62  CA        -9.7720  -19.0990  -39.8020 C.3   373  GLY373      0.1956
     63  C         -9.3300  -18.4190  -41.0710 C.2   373  GLY373      0.2611
     64  O         -8.5340  -17.4570  -41.0110 O.2   373  GLY373     -0.2717
     65  N         -9.6890  -18.9690  -42.2170 N.am  374  LEU374     -0.1979
     66  CA        -9.2910  -18.3790  -43.4730 C.3   374  LEU374      0.1596
     67  C         -7.7500  -18.4090  -43.6340 C.2   374  LEU374      0.2287
     68  O         -7.1290  -17.5370  -44.2600 O.2   374  LEU374     -0.2864
     69  CB        -9.7590  -16.9150  -43.5970 C.3   374  LEU374      0.0297
     70  CG       -11.1280  -16.5800  -43.0090 C.3   374  LEU374      0.0022
     71  CD1      -11.5180  -15.1330  -43.2160 C.3   374  LEU374      0.0001
     72  CD2      -12.1720  -17.4580  -43.6650 C.3   374  LEU374      0.0001
     73  N        -17.0190  -20.7570  -52.4020 N.3   399  ASP399     -0.1225
     74  CA       -17.4350  -21.7160  -51.4170 C.3   399  ASP399      0.1805
     75  C        -18.7980  -22.2880  -51.8230 C.2   399  ASP399      0.2598
     76  O        -19.1170  -22.2840  -53.0120 O.2   399  ASP399     -0.2718
     77  CB       -17.5010  -21.0770  -50.0340 C.3   399  ASP399      0.1424
     78  CG       -17.3180  -22.0760  -48.9070 C.2   399  ASP399      0.3668
     79  OD1      -17.4090  -23.2830  -49.1360 O.co2 399  ASP399     -0.2456
     80  OD2      -17.1220  -21.6570  -47.7090 O.co2 399  ASP399     -0.2456
     81  N        -19.5500  -22.8130  -50.8390 N.am  400  SER400     -0.1952
     82  CA       -20.8530  -23.4880  -51.0960 C.3   400  SER400      0.1924
     83  C        -21.6490  -22.8170  -52.2460 C.2   400  SER400      0.2314
     84  O        -21.9240  -21.6380  -52.2300 O.2   400  SER400     -0.2863
     85  CB       -21.6670  -23.5200  -49.8120 C.3   400  SER400      0.2116
     86  OG       -20.8630  -24.0070  -48.7220 O.3   400  SER400     -0.2180
     87  N        -17.6660  -10.9160  -43.7160 N.3   463  SER463     -0.1202
     88  CA       -16.5210  -11.7730  -43.6420 C.3   463  SER463      0.2020
     89  C        -16.9600  -13.2080  -43.3320 C.2   463  SER463      0.2619
     90  O        -18.0790  -13.6000  -43.5820 O.2   463  SER463     -0.2717
     91  CB       -15.5660  -11.2780  -42.6210 C.3   463  SER463      0.2103
     92  OG       -14.3470  -11.9940  -42.6860 O.3   463  SER463     -0.2182
     93  N        -16.0160  -14.0220  -42.8240 N.am  464  GLY464     -0.1942
     94  CA       -16.2980  -15.4350  -42.5810 C.3   464  GLY464      0.2014
     95  C        -16.0790  -16.2730  -43.8340 C.2   464  GLY464      0.2638
     96  O        -16.5530  -17.3940  -43.9270 O.2   464  GLY464     -0.2714
     97  N        -15.2690  -15.7520  -44.7630 N.am  465  ASN465     -0.1972
     98  CA       -14.8220  -16.5270  -45.9080 C.3   465  ASN465      0.1688
     99  C        -13.6000  -15.9570  -46.5990 C.2   465  ASN465      0.2292
    100  O        -13.1710  -14.9190  -46.2450 O.2   465  ASN465     -0.2864
    101  CB       -15.9400  -16.7660  -46.9230 C.3   465  ASN465      0.1181
    102  CG       -15.9490  -18.2300  -47.4400 C.2   465  ASN465      0.2629
    103  OD1      -15.0760  -18.6450  -48.1960 O.2   465  ASN465     -0.2716
    104  ND2      -16.9830  -18.9730  -47.0650 N.am  465  ASN465     -0.0877
    105  N        -19.1830  -12.6650  -54.4080 N.3   480  ARG480     -0.1245
    106  CA       -19.5910  -14.0580  -54.2180 C.3   480  ARG480      0.1563
    107  C        -21.0620  -14.2040  -54.6230 C.2   480  ARG480      0.2260
    108  O        -21.8130  -13.2470  -54.5900 O.2   480  ARG480     -0.2867
    109  CB       -19.4430  -14.4320  -52.7430 C.3   480  ARG480      0.0307
    110  CG       -20.4330  -13.7420  -51.8620 C.3   480  ARG480      0.0489
    111  CD       -20.1760  -13.8680  -50.3720 C.3   480  ARG480      0.2205
    112  NE       -19.9350  -15.2620  -49.9370 N.pl3 480  ARG480     -0.0865
    113  CZ       -19.9260  -15.6670  -48.6750 C.cat 480  ARG480      0.5346
    114  NH1      -19.7190  -16.9660  -48.3860 N.pl3 480  ARG480      0.1354
    115  NH2      -20.0550  -14.7960  -47.6870 N.pl3 480  ARG480      0.1354
    116  N        -24.2800  -17.4850  -54.7590 N.3   482  ARG482     -0.1245
    117  CA       -24.8070  -18.8680  -54.6210 C.3   482  ARG482      0.1563
    118  C        -26.2880  -18.8750  -54.6550 C.2   482  ARG482      0.2260
    119  O        -26.9130  -17.8140  -54.5120 O.2   482  ARG482     -0.2867
    120  CB       -24.4550  -19.5140  -53.2660 C.3   482  ARG482      0.0307
    121  CG       -24.7900  -18.6700  -52.0810 C.3   482  ARG482      0.0489
    122  CD       -24.5090  -19.4540  -50.8160 C.3   482  ARG482      0.2205
    123  NE       -23.0890  -19.6590  -50.6060 N.pl3 482  ARG482     -0.0865
    124  CZ       -22.4960  -19.6910  -49.4200 C.cat 482  ARG482      0.5346
    125  NH1      -23.1990  -19.5740  -48.3150 N.pl3 482  ARG482      0.1354
    126  NH2      -21.1820  -19.8800  -49.3470 N.pl3 482  ARG482      0.1354
    127  N        -29.3480  -17.9620  -38.9070 N.3   491  SER491     -0.1217
    128  CA       -29.0400  -19.3530  -39.2790 C.3   491  SER491      0.1889
    129  C        -29.2040  -19.6800  -40.8060 C.2   491  SER491      0.2288
    130  O        -30.1520  -19.2120  -41.4640 O.2   491  SER491     -0.2866
    131  CB       -29.8880  -20.3030  -38.4320 C.3   491  SER491      0.2089
    132  OG       -31.0640  -20.6800  -39.1380 O.3   491  SER491     -0.2183
    133  N        -21.9800  -27.7540  -41.1460 N.3   497  HIS497     -0.1241
    134  CA       -20.8100  -28.2330  -40.3270 C.3   497  HIS497      0.1621
    135  C        -21.0420  -29.5330  -39.4590 C.2   497  HIS497      0.2264
    136  O        -20.3590  -29.7920  -38.4300 O.2   497  HIS497     -0.2867
    137  CB       -20.3030  -27.1190  -39.4480 C.3   497  HIS497      0.0745
    138  CG       -19.5310  -26.0490  -40.1880 C.ar  497  HIS497      0.0817
    139  ND1      -18.9230  -25.0120  -39.5310 N.ar  497  HIS497     -0.2268
    140  CD2      -19.2740  -25.8540  -41.5040 C.ar  497  HIS497      0.1154
    141  CE1      -18.2660  -24.2670  -40.3900 C.ar  497  HIS497      0.1986
    142  NE2      -18.4870  -24.7280  -41.5880 N.ar  497  HIS497     -0.2212
    143  N        -20.4680   -9.0850  -35.2070 N.3   642  ASN642     -0.1225
    144  CA       -20.8160  -10.2520  -36.0040 C.3   642  ASN642      0.1785
    145  C        -19.9670  -10.3350  -37.2680 C.2   642  ASN642      0.2597
    146  O        -20.2420   -9.6970  -38.2710 O.2   642  ASN642     -0.2718
    147  CB       -22.3220  -10.2140  -36.3990 C.3   642  ASN642      0.1169
    148  CG       -22.6950  -11.3360  -37.3010 C.2   642  ASN642      0.2627
    149  OD1      -21.8930  -12.2720  -37.4930 O.2   642  ASN642     -0.2716
    150  ND2      -23.8450  -11.2500  -37.9090 N.am  642  ASN642     -0.0877
    151  N        -18.9180  -11.1530  -37.2040 N.am  643  LYS643     -0.1966
    152  CA       -17.9930  -11.3120  -38.3000 C.3   643  LYS643      0.1728
    153  C        -18.6510  -11.5840  -39.6410 C.2   643  LYS643      0.2616
    154  O        -18.1440  -11.1530  -40.6740 O.2   643  LYS643     -0.2715
    155  CB       -16.9840  -12.4660  -37.9630 C.3   643  LYS643      0.0311
    156  CG       -15.8730  -12.5900  -38.9420 C.3   643  LYS643      0.0038
    157  CD       -14.8180  -13.5510  -38.4900 C.3   643  LYS643      0.0206
    158  CE       -13.5220  -13.3770  -39.2700 C.3   643  LYS643      0.1093
    159  NZ       -12.5740  -14.5170  -39.0010 N.3   643  LYS643     -0.1314
    160  N        -19.8090  -12.2500  -39.6660 N.am  644  TYR644     -0.1974
    161  CA       -20.4670  -12.5030  -40.9620 C.3   644  TYR644      0.1639
    162  C        -21.1160  -11.3080  -41.6590 C.2   644  TYR644      0.2290
    163  O        -21.3370  -11.3520  -42.8890 O.2   644  TYR644     -0.2864
    164  CB       -21.5840  -13.5350  -40.8150 C.3   644  TYR644      0.0560
    165  CG       -21.1390  -14.9290  -40.3080 C.ar  644  TYR644     -0.0198
    166  CD1      -19.9930  -15.5400  -40.8270 C.ar  644  TYR644     -0.0009
    167  CD2      -21.9690  -15.6940  -39.4230 C.ar  644  TYR644     -0.0009
    168  CE1      -19.6260  -16.8320  -40.4170 C.ar  644  TYR644      0.0417
    169  CE2      -21.6220  -16.9960  -39.0260 C.ar  644  TYR644      0.0417
    170  CZ       -20.4590  -17.5530  -39.4840 C.ar  644  TYR644      0.1957
    171  OH       -20.0980  -18.8270  -39.1100 O.3   644  TYR644     -0.2866
@<TRIPOS>BOND
     1   116   117    1
     2   118   117    1
     3   118   119    2
     4   107   108    2
     5   107   106    1
     6   117   120    1
     7   105   106    1
     8   106   109    1
     9   120   121    1
    10    76    75    2
    11   109   110    1
    12    73    74    1
    13    83    84    2
    14    83    82    1
    15   121   122    1
    16   110   111    1
    17    75    74    1
    18    75    81   am
    19    74    77    1
    20    82    81    1
    21    82    85    1
    22   122   123    1
    23   123   124    2
    24   111   112    1
    25    77    78    1
    26   112   113    2
    27    85    86    1
    28   124   126    1
    29   124   125    1
    30    79    78   ar
    31    78    80   ar
    32   113   114    1
    33   113   115    1
    34   103   102    2
    35    44    45    1
    36    45    46    1
    37    45    48    1
    38   102   104   am
    39   102   101    1
    40    46    47    2
    41   101    98    1
    42    99   100    2
    43    99    98    1
    44    50    49   ar
    45    48    49    1
    46    98    97    1
    47    49    51   ar
    48    97    95   am
    49    68    67    2
    50    96    95    2
    51    95    94    1
    52    87    88    1
    53    72    70    1
    54    88    89    1
    55    88    91    1
    56    67    66    1
    57    69    66    1
    58    69    70    1
    59    90    89    2
    60    60    58   ar
    61    66    65    1
    62    89    93   am
    63    71    70    1
    64   163   162    2
    65    93    94    1
    66    52    53    1
    67    92    91    1
    68    58    57    1
    69    58    59   ar
    70    57    56    1
    71    65    63   am
    72   162   161    1
    73   142   140   ar
    74   142   141   ar
    75    53    56    1
    76    53    54    1
    77   140   138   ar
    78   130   129    2
    79   133   134    1
    80    63    64    2
    81    63    62    1
    82   161   164    1
    83   161   160    1
    84   166   168   ar
    85   166   165   ar
    86   164   165    1
    87   129   128    1
    88   154   153    2
    89   168   170   ar
    90   141   139   ar
    91   134   135    1
    92   134   137    1
    93   165   167   ar
    94    54    55    2
    95   138   139   ar
    96   138   137    1
    97    61    62    1
    98   160   153   am
    99   153   152    1
   100   170   171    1
   101   170   169   ar
   102   135   136    2
   103   167   169   ar
   104   128   127    1
   105   128   131    1
   106   158   159    1
   107   158   157    1
   108   132   131    1
   109   156   157    1
   110   156   155    1
   111   152   155    1
   112   152   151    1
   113   146   145    2
   114   150   148   am
   115    43    41   am
   116   149   148    2
   117    31    29    1
   118   148   147    1
   119   145   151   am
   120   145   144    1
   121    16    18   ar
   122    16    15   ar
   123    18    20   ar
   124     4     3    2
   125    30    29    1
   126    41    42    2
   127    41    40    1
   128    14    15    1
   129    14    11    1
   130    29    28    2
   131   147   144    1
   132    15    17   ar
   133    20    19   ar
   134    33    32    1
   135    33    34    1
   136   144   143    1
   137     3     2    1
   138    11    10    1
   139    11    12    1
   140     9     8    1
   141    40    37    1
   142    36    34   am
   143    36    37    1
   144    17    19   ar
   145     2     1    1
   146     2     5    1
   147    34    35    2
   148    28    27    1
   149     7     8    1
   150     7     6    1
   151    37    38    1
   152    39    38    2
   153    12    21   am
   154    12    13    2
   155     5     6    1
   156    21    22    1
   157    27    26    1
   158    26    25    1
   159    25    22    1
   160    22    23    1
   161    23    24    2
