@<TRIPOS>MOLECULE
tmp/4nh0A00.pdb
 143 137 0 0 0
SMALL
GASTEIGER

@<TRIPOS>ATOM
      1  N        -30.1020  -26.9990   50.8530 N.3   619  ASN619     -0.1225
      2  CA       -29.5770  -26.3590   49.6560 C.3   619  ASN619      0.1785
      3  C        -28.2670  -27.0210   49.2590 C.2   619  ASN619      0.2597
      4  O        -27.9490  -27.1470   48.0780 O.2   619  ASN619     -0.2718
      5  CB       -29.3750  -24.8600   49.8820 C.3   619  ASN619      0.1169
      6  CG       -30.6840  -24.1020   49.9580 C.2   619  ASN619      0.2627
      7  OD1      -31.6480  -24.4350   49.2680 O.2   619  ASN619     -0.2716
      8  ND2      -30.7260  -23.0750   50.7990 N.am  619  ASN619     -0.0877
      9  N        -27.5130  -27.4470   50.2660 N.am  620  VAL620     -0.1966
     10  CA       -26.2840  -28.1940   50.0500 C.3   620  VAL620      0.1727
     11  C        -26.2100  -29.3750   51.0130 C.2   620  VAL620      0.2616
     12  O        -26.2620  -29.2050   52.2300 O.2   620  VAL620     -0.2715
     13  CB       -25.0370  -27.2990   50.2150 C.3   620  VAL620      0.0290
     14  CG1      -25.1830  -26.3840   51.4230 C.3   620  VAL620      0.0023
     15  CG2      -23.7790  -28.1470   50.3150 C.3   620  VAL620      0.0023
     16  N        -26.1110  -30.5770   50.4580 N.am  621  LEU621     -0.1977
     17  CA       -26.0090  -31.7840   51.2630 C.3   621  LEU621      0.1596
     18  C        -24.5990  -32.3500   51.1890 C.2   621  LEU621      0.2287
     19  O        -24.1610  -32.7890   50.1310 O.2   621  LEU621     -0.2864
     20  CB       -27.0240  -32.8290   50.8000 C.3   621  LEU621      0.0297
     21  CG       -26.9220  -34.2080   51.4520 C.3   621  LEU621      0.0022
     22  CD1      -27.1890  -34.1110   52.9410 C.3   621  LEU621      0.0001
     23  CD2      -27.8800  -35.1860   50.7980 C.3   621  LEU621      0.0001
     24  N        -26.8940  -26.5380   32.3250 N.3   664  THR664     -0.1203
     25  CA       -25.5590  -26.0710   32.6760 C.3   664  THR664      0.1994
     26  C        -25.4820  -25.6610   34.1420 C.2   664  THR664      0.2618
     27  O        -26.3560  -24.9530   34.6420 O.2   664  THR664     -0.2717
     28  CB       -25.1310  -24.8830   31.7980 C.3   664  THR664      0.1784
     29  OG1      -26.1150  -23.8460   31.8830 O.3   664  THR664     -0.2211
     30  CG2      -24.9890  -25.3200   30.3490 C.3   664  THR664      0.0376
     31  N        -24.4300  -26.1190   34.8150 N.am  665  GLU665     -0.1965
     32  CA       -24.1990  -25.8280   36.2280 C.3   665  GLU665      0.1733
     33  C        -25.3890  -26.2200   37.0980 C.2   665  GLU665      0.2616
     34  O        -26.0020  -25.3710   37.7430 O.2   665  GLU665     -0.2715
     35  CB       -23.8760  -24.3450   36.4260 C.3   665  GLU665      0.0429
     36  CG       -22.6110  -23.8850   35.7230 C.3   665  GLU665      0.1163
     37  CD       -22.2310  -22.4660   36.0910 C.2   665  GLU665      0.3649
     38  OE1      -22.7020  -21.9790   37.1390 O.co2 665  GLU665     -0.2457
     39  OE2      -21.4630  -21.8370   35.3330 O.co2 665  GLU665     -0.2457
     40  N        -25.7100  -27.5090   37.1080 N.am  666  CYS666     -0.1954
     41  CA       -26.7890  -28.0190   37.9440 C.3   666  CYS666      0.1843
     42  C        -26.2510  -29.0230   38.9530 C.2   666  CYS666      0.2626
     43  O        -26.7840  -29.1580   40.0540 O.2   666  CYS666     -0.2714
     44  CB       -27.8800  -28.6620   37.0880 C.3   666  CYS666      0.0997
     45  SG       -27.3820  -30.2000   36.2930 S.3   666  CYS666     -0.0797
     46  N        -25.1910  -29.7280   38.5720 N.am  667  GLY667     -0.1940
     47  CA       -24.5560  -30.6820   39.4610 C.3   667  GLY667      0.2014
     48  C        -24.2590  -32.0230   38.8180 C.2   667  GLY667      0.2639
     49  O        -24.1710  -33.0370   39.5070 O.2   667  GLY667     -0.2714
     50  N        -24.0950  -32.0230   37.4910 N.am  668  LYS668     -0.1963
     51  CA       -23.8130  -33.2590   36.7680 C.3   668  LYS668      0.1728
     52  C        -22.4370  -33.8100   37.1260 C.2   668  LYS668      0.2617
     53  O        -22.3260  -34.9170   37.6470 O.2   668  LYS668     -0.2715
     54  CB       -23.9080  -33.0380   35.2550 C.3   668  LYS668      0.0311
     55  CG       -25.3050  -32.7220   34.7490 C.3   668  LYS668      0.0038
     56  CD       -25.2690  -32.1840   33.3260 C.3   668  LYS668      0.0206
     57  CE       -25.1130  -30.6720   33.3140 C.3   668  LYS668      0.1093
     58  NZ       -23.6920  -30.2390   33.4040 N.3   668  LYS668     -0.1314
     59  N        -21.4020  -33.0380   36.8540 N.am  669  SER669     -0.1936
     60  CA       -20.0240  -33.4630   37.0900 C.3   669  SER669      0.2055
     61  C        -19.7780  -33.8430   38.5470 C.2   669  SER669      0.2643
     62  O        -19.0350  -34.7800   38.8330 O.2   669  SER669     -0.2714
     63  CB       -19.0490  -32.3610   36.6730 C.3   669  SER669      0.2130
     64  OG       -19.2380  -31.9950   35.3180 O.3   669  SER669     -0.2179
     65  N        -20.4030  -33.1100   39.4620 N.am  670  ASN670     -0.1971
     66  CA       -20.2800  -33.3990   40.8840 C.3   670  ASN670      0.1688
     67  C        -20.8740  -34.7540   41.2390 C.2   670  ASN670      0.2292
     68  O        -20.2870  -35.5200   42.0010 O.2   670  ASN670     -0.2864
     69  CB       -20.9550  -32.3080   41.7130 C.3   670  ASN670      0.1181
     70  CG       -20.9910  -32.6400   43.1890 C.2   670  ASN670      0.2629
     71  OD1      -20.0310  -32.3890   43.9160 O.2   670  ASN670     -0.2716
     72  ND2      -22.1020  -33.2080   43.6410 N.am  670  ASN670     -0.0877
     73  N        -18.5900  -37.5370   40.0600 N.3   673  ARG673     -0.1245
     74  CA       -17.4540  -37.7440   40.9470 C.3   673  ARG673      0.1563
     75  C        -17.8990  -38.4180   42.2400 C.2   673  ARG673      0.2260
     76  O        -17.1610  -39.2110   42.8210 O.2   673  ARG673     -0.2867
     77  CB       -16.7540  -36.4160   41.2450 C.3   673  ARG673      0.0307
     78  CG       -15.9270  -35.8910   40.0810 C.3   673  ARG673      0.0489
     79  CD       -15.1840  -34.6110   40.4330 C.3   673  ARG673      0.2205
     80  NE       -15.9990  -33.4190   40.2190 N.pl3 673  ARG673     -0.0865
     81  CZ       -16.4660  -32.6460   41.1930 C.cat 673  ARG673      0.5346
     82  NH1      -16.1950  -32.9350   42.4580 N.pl3 673  ARG673      0.1354
     83  NH2      -17.1990  -31.5810   40.9030 N.pl3 673  ARG673      0.1354
     84  N        -13.2750  -32.7590   33.8520 N.3   698  SER698     -0.1217
     85  CA       -13.8790  -32.3600   35.1160 C.3   698  SER698      0.1889
     86  C        -13.6850  -33.4450   36.1660 C.2   698  SER698      0.2288
     87  O        -13.9810  -33.2460   37.3430 O.2   698  SER698     -0.2866
     88  CB       -15.3730  -32.0830   34.9320 C.3   698  SER698      0.2089
     89  OG       -15.5970  -30.8810   34.2180 O.3   698  SER698     -0.2183
     90  N        -20.5510  -35.2280   30.0490 N.3   760  ASP760     -0.1239
     91  CA       -20.8640  -34.3880   28.8960 C.3   760  ASP760      0.1674
     92  C        -21.0810  -35.2330   27.6440 C.2   760  ASP760      0.2266
     93  O        -20.3220  -35.1410   26.6810 O.2   760  ASP760     -0.2867
     94  CB       -19.7550  -33.3600   28.6590 C.3   760  ASP760      0.1410
     95  CG       -19.5870  -32.4080   29.8240 C.2   760  ASP760      0.3668
     96  OD1      -20.6070  -31.8760   30.3090 O.co2 760  ASP760     -0.2456
     97  OD2      -18.4360  -32.1930   30.2580 O.co2 760  ASP760     -0.2456
     98  N        -29.5320  -26.2380   42.4430 N.3   839  GLN839     -0.1231
     99  CA       -28.3720  -27.0810   42.1850 C.3   839  GLN839      0.1698
    100  C        -28.3890  -28.3560   43.0210 C.2   839  GLN839      0.2592
    101  O        -28.6520  -28.3220   44.2210 O.2   839  GLN839     -0.2718
    102  CB       -27.0830  -26.3040   42.4520 C.3   839  GLN839      0.0381
    103  CG       -26.8810  -25.1080   41.5370 C.3   839  GLN839      0.0905
    104  CD       -25.5820  -24.3780   41.8130 C.2   839  GLN839      0.2608
    105  OE1      -25.1330  -24.2970   42.9550 O.2   839  GLN839     -0.2717
    106  NE2      -24.9710  -23.8430   40.7640 N.am  839  GLN839     -0.0878
    107  N        -28.1120  -29.4820   42.3720 N.am  840  GLY840     -0.1957
    108  CA       -28.0310  -30.7560   43.0580 C.3   840  GLY840      0.1869
    109  C        -29.3450  -31.5080   43.1090 C.2   840  GLY840      0.2309
    110  O        -29.3620  -32.7310   43.2270 O.2   840  GLY840     -0.2863
    111  N        -32.4300  -34.9570   46.6480 N.3   855  GLN855     -0.1231
    112  CA       -31.3570  -33.9710   46.6550 C.3   855  GLN855      0.1698
    113  C        -30.0110  -34.6810   46.6970 C.2   855  GLN855      0.2593
    114  O        -29.7200  -35.4070   47.6420 O.2   855  GLN855     -0.2718
    115  CB       -31.4960  -33.0250   47.8470 C.3   855  GLN855      0.0381
    116  CG       -30.2920  -32.1270   48.0670 C.3   855  GLN855      0.0905
    117  CD       -30.2480  -30.9590   47.1080 C.2   855  GLN855      0.2608
    118  OE1      -31.2780  -30.5150   46.6060 O.2   855  GLN855     -0.2717
    119  NE2      -29.0490  -30.4540   46.8480 N.am  855  GLN855     -0.0878
    120  N        -29.1960  -34.4790   45.6680 N.am  856  THR856     -0.1939
    121  CA       -27.9010  -35.1420   45.5920 C.3   856  THR856      0.2028
    122  C        -26.8860  -34.4760   46.5130 C.2   856  THR856      0.2642
    123  O        -27.0440  -33.3170   46.8930 O.2   856  THR856     -0.2714
    124  CB       -27.3550  -35.1540   44.1550 C.3   856  THR856      0.1808
    125  OG1      -27.2950  -33.8160   43.6500 O.3   856  THR856     -0.2208
    126  CG2      -28.2520  -35.9830   43.2600 C.3   856  THR856      0.0379
    127  N        -25.8430  -35.2200   46.8660 N.am  857  ALA857     -0.1963
    128  CA       -24.8540  -34.7440   47.8230 C.3   857  ALA857      0.1728
    129  C        -23.7040  -34.0050   47.1500 C.2   857  ALA857      0.2616
    130  O        -23.3320  -34.3130   46.0200 O.2   857  ALA857     -0.2715
    131  CB       -24.3210  -35.9020   48.6410 C.3   857  ALA857      0.0334
    132  N        -23.1420  -33.0330   47.8600 N.am  858  TYR858     -0.1974
    133  CA       -22.0370  -32.2360   47.3420 C.3   858  TYR858      0.1639
    134  C        -20.6920  -32.7740   47.8170 C.2   858  TYR858      0.2290
    135  O        -20.4950  -33.0160   49.0060 O.2   858  TYR858     -0.2864
    136  CB       -22.1960  -30.7730   47.7580 C.3   858  TYR858      0.0560
    137  CG       -21.0470  -29.8840   47.3430 C.ar  858  TYR858     -0.0198
    138  CD1      -20.8480  -29.5510   46.0110 C.ar  858  TYR858     -0.0009
    139  CD2      -20.1670  -29.3680   48.2840 C.ar  858  TYR858     -0.0009
    140  CE1      -19.8010  -28.7370   45.6260 C.ar  858  TYR858      0.0417
    141  CE2      -19.1180  -28.5520   47.9080 C.ar  858  TYR858      0.0417
    142  CZ       -18.9400  -28.2400   46.5780 C.ar  858  TYR858      0.1957
    143  OH       -17.8970  -27.4290   46.1980 O.3   858  TYR858     -0.2866
@<TRIPOS>BOND
     1    93    92    2
     2    92    91    1
     3    94    91    1
     4    94    95    1
     5    91    90    1
     6    95    97   ar
     7    95    96   ar
     8    30    28    1
     9    28    29    1
    10    28    25    1
    11    24    25    1
    12    25    26    1
    13    57    56    1
    14    57    58    1
    15    56    55    1
    16    84    85    1
    17    26    27    2
    18    26    31   am
    19    89    88    1
    20    55    54    1
    21    31    32    1
    22    88    85    1
    23    85    86    1
    24    54    51    1
    25    64    63    1
    26    39    37   ar
    27    36    37    1
    28    36    35    1
    29    37    38   ar
    30    86    87    2
    31    32    35    1
    32    32    33    1
    33    45    44    1
    34    63    60    1
    35    51    52    1
    36    51    50    1
    37    59    60    1
    38    59    52   am
    39    44    41    1
    40    60    61    1
    41    33    40   am
    42    33    34    2
    43    40    41    1
    44    52    53    2
    45    50    48   am
    46    41    42    1
    47    61    62    2
    48    61    65   am
    49    46    42   am
    50    46    47    1
    51    48    47    1
    52    48    49    2
    53    42    43    2
    54    65    66    1
    55    73    74    1
    56    78    79    1
    57    78    77    1
    58    80    79    1
    59    80    81    2
    60   106   104   am
    61    66    67    1
    62    66    69    1
    63    83    81    1
    64    74    77    1
    65    74    75    1
    66    81    82    1
    67    67    68    2
    68   103   104    1
    69   103   102    1
    70    69    70    1
    71   104   105    2
    72    99    98    1
    73    99   102    1
    74    99   100    1
    75    75    76    2
    76   107   100   am
    77   107   108    1
    78   100   101    2
    79   108   109    1
    80   109   110    2
    81    70    72   am
    82    70    71    2
    83   126   124    1
    84   125   124    1
    85   124   121    1
    86   121   120    1
    87   121   122    1
    88   140   138   ar
    89   140   142   ar
    90   120   113   am
    91   138   137   ar
    92   130   129    2
    93   143   142    1
    94   122   127   am
    95   122   123    2
    96   142   141   ar
    97   118   117    2
    98   111   112    1
    99   112   113    1
   100   112   115    1
   101   113   114    2
   102   119   117   am
   103   127   128    1
   104   117   116    1
   105   129   128    1
   106   129   132   am
   107   133   136    1
   108   133   134    1
   109   133   132    1
   110   137   136    1
   111   137   139   ar
   112   134   135    2
   113   128   131    1
   114   115   116    1
   115   141   139   ar
   116     4     3    2
   117     3     2    1
   118     3     9   am
   119     7     6    2
   120     2     5    1
   121     2     1    1
   122     5     6    1
   123     6     8   am
   124    10    13    1
   125    10     9    1
   126    10    11    1
   127    19    18    2
   128    13    15    1
   129    13    14    1
   130    16    11   am
   131    16    17    1
   132    23    21    1
   133    20    17    1
   134    20    21    1
   135    11    12    2
   136    18    17    1
   137    21    22    1
