@<TRIPOS>MOLECULE
tmp/4nh0A01.pdb
 142 135 0 0 0
SMALL
GASTEIGER

@<TRIPOS>ATOM
      1  N        -68.5680   -8.4390   68.0940 N.3   315  PRO315     -0.2116
      2  CA       -67.9020   -9.6940   68.4550 C.3   315  PRO315      0.1372
      3  C        -67.0860   -9.5800   69.7360 C.2   315  PRO315      0.2244
      4  O        -66.5960   -8.4970   70.0520 O.2   315  PRO315     -0.2868
      5  CB       -66.9910   -9.9580   67.2550 C.3   315  PRO315      0.0268
      6  CG       -66.6960   -8.6050   66.7180 C.3   315  PRO315      0.0207
      7  CD       -67.9620   -7.8180   66.9040 C.3   315  PRO315      0.0892
      8  N        -67.1790  -16.4340   50.1750 N.3   379  PRO379     -0.2102
      9  CA       -66.1320  -15.4090   50.1230 C.3   379  PRO379      0.1504
     10  C        -66.3040  -14.3390   51.1980 C.2   379  PRO379      0.2576
     11  O        -67.4130  -13.8400   51.3880 O.2   379  PRO379     -0.2718
     12  CB       -66.3020  -14.8050   48.7270 C.3   379  PRO379      0.0282
     13  CG       -66.9610  -15.8770   47.9300 C.3   379  PRO379      0.0208
     14  CD       -67.8780  -16.5750   48.8870 C.3   379  PRO379      0.0893
     15  N        -65.2160  -14.0130   51.8900 N.am  380  GLN380     -0.1966
     16  CA       -65.2010  -12.9540   52.8970 C.3   380  GLN380      0.1733
     17  C        -66.2430  -13.1810   53.9900 C.2   380  GLN380      0.2617
     18  O        -66.9560  -12.2580   54.3790 O.2   380  GLN380     -0.2715
     19  CB       -65.4240  -11.5910   52.2350 C.3   380  GLN380      0.0408
     20  CG       -64.8030  -10.4170   52.9770 C.3   380  GLN380      0.0908
     21  CD       -63.3070  -10.3080   52.7510 C.2   380  GLN380      0.2608
     22  OE1      -62.7200  -11.0970   52.0120 O.2   380  GLN380     -0.2717
     23  NE2      -62.6840   -9.3230   53.3860 N.am  380  GLN380     -0.0878
     24  N        -66.3670  -14.4240   54.4060 N.am  381  THR381     -0.1937
     25  CA       -67.3440  -14.8150   55.3850 C.3   381  THR381      0.2028
     26  C        -66.7410  -14.8020   56.7630 C.2   381  THR381      0.2643
     27  O        -67.4370  -14.6550   57.7370 O.2   381  THR381     -0.2714
     28  CB       -67.8350  -16.2260   55.1110 C.3   381  THR381      0.1808
     29  OG1      -68.0300  -16.4020   53.7090 O.3   381  THR381     -0.2208
     30  CG2      -69.1130  -16.4390   55.7930 C.3   381  THR381      0.0379
     31  N        -65.4330  -14.9720   56.8420 N.am  382  GLY382     -0.1939
     32  CA       -64.7460  -14.9650   58.1150 C.3   382  GLY382      0.2014
     33  C        -63.9690  -16.2210   58.4500 C.2   382  GLY382      0.2639
     34  O        -63.6880  -16.4730   59.6030 O.2   382  GLY382     -0.2714
     35  N        -63.6590  -17.0230   57.4420 N.am  383  LYS383     -0.1963
     36  CA       -62.9210  -18.2350   57.7070 C.3   383  LYS383      0.1728
     37  C        -61.5550  -17.8500   58.2690 C.2   383  LYS383      0.2617
     38  O        -61.3060  -17.9740   59.4720 O.2   383  LYS383     -0.2715
     39  CB       -62.8020  -19.0830   56.4420 C.3   383  LYS383      0.0311
     40  CG       -64.0280  -19.9310   56.1450 C.3   383  LYS383      0.0038
     41  CD       -64.5860  -19.6270   54.7680 C.3   383  LYS383      0.0206
     42  CE       -63.5760  -18.8630   53.9240 C.3   383  LYS383      0.1093
     43  NZ       -64.2120  -17.9820   52.9010 N.3   383  LYS383     -0.1314
     44  N        -60.6870  -17.3490   57.4010 N.am  384  SER384     -0.1936
     45  CA       -59.3200  -17.0790   57.7740 C.3   384  SER384      0.2055
     46  C        -59.2140  -16.4420   59.1660 C.2   384  SER384      0.2643
     47  O        -58.2240  -16.6060   59.8480 O.2   384  SER384     -0.2714
     48  CB       -58.6250  -16.2370   56.6930 C.3   384  SER384      0.2130
     49  OG       -59.1580  -16.4460   55.3840 O.3   384  SER384     -0.2179
     50  N        -60.2440  -15.7230   59.5920 N.am  385  THR385     -0.1950
     51  CA       -60.2690  -15.1270   60.9200 C.3   385  THR385      0.1897
     52  C        -60.5490  -16.1980   61.9640 C.2   385  THR385      0.2313
     53  O        -59.9080  -16.2380   63.0130 O.2   385  THR385     -0.2863
     54  CB       -61.3320  -14.0190   61.0250 C.3   385  THR385      0.1794
     55  OG1      -61.1230  -13.0530   59.9880 O.3   385  THR385     -0.2208
     56  CG2      -61.2530  -13.3310   62.3770 C.3   385  THR385      0.0378
     57  N        -57.5760  -18.3680   62.9390 N.3   388  ARG388     -0.1245
     58  CA       -56.6180  -17.6440   63.7640 C.3   388  ARG388      0.1563
     59  C        -57.0650  -17.5600   65.2200 C.2   388  ARG388      0.2260
     60  O        -56.2350  -17.4950   66.1240 O.2   388  ARG388     -0.2867
     61  CB       -56.3900  -16.2430   63.1960 C.3   388  ARG388      0.0307
     62  CG       -55.7060  -16.2480   61.8410 C.3   388  ARG388      0.0489
     63  CD       -55.4700  -14.8420   61.3250 C.3   388  ARG388      0.2205
     64  NE       -56.7210  -14.1410   61.0640 N.pl3 388  ARG388     -0.0865
     65  CZ       -56.7970  -12.9150   60.5590 C.cat 388  ARG388      0.5346
     66  NH1      -55.6900  -12.2520   60.2550 N.pl3 388  ARG388      0.1354
     67  NH2      -57.9800  -12.3540   60.3560 N.pl3 388  ARG388      0.1354
     68  N        -55.7190  -19.1930   52.0540 N.3   411  GLY411     -0.1210
     69  CA       -56.8330  -18.2610   52.0600 C.3   411  GLY411      0.1956
     70  C        -56.5290  -16.8570   52.5560 C.2   411  GLY411      0.2612
     71  O        -57.1050  -16.4130   53.5470 O.2   411  GLY411     -0.2717
     72  N        -55.6330  -16.1490   51.8730 N.am  412  GLY412     -0.1956
     73  CA       -55.3830  -14.7510   52.1870 C.3   412  GLY412      0.1869
     74  C        -53.9980  -14.4200   52.7110 C.2   412  GLY412      0.2309
     75  O        -53.5720  -13.2650   52.6660 O.2   412  GLY412     -0.2863
     76  N        -53.1530  -14.6300   55.7700 N.3   414  THR414     -0.1218
     77  CA       -53.3510  -13.9720   57.0560 C.3   414  THR414      0.1862
     78  C        -52.7310  -14.7530   58.2090 C.2   414  THR414      0.2287
     79  O        -52.4520  -14.1910   59.2670 O.2   414  THR414     -0.2866
     80  CB       -54.8470  -13.7610   57.3500 C.3   414  THR414      0.1770
     81  OG1      -55.5330  -15.0150   57.2610 O.3   414  THR414     -0.2211
     82  CG2      -55.4520  -12.7900   56.3510 C.3   414  THR414      0.0375
     83  N        -64.5210  -23.1430   50.8870 N.3   522  ASN522     -0.1240
     84  CA       -65.6890  -22.3200   50.6040 C.3   522  ASN522      0.1653
     85  C        -66.9910  -23.0810   50.8230 C.2   522  ASN522      0.2266
     86  O        -67.8530  -22.6490   51.5860 O.2   522  ASN522     -0.2867
     87  CB       -65.6310  -21.7860   49.1730 C.3   522  ASN522      0.1155
     88  CG       -64.4930  -20.8090   48.9630 C.2   522  ASN522      0.2627
     89  OD1      -64.6260  -19.6160   49.2340 O.2   522  ASN522     -0.2716
     90  ND2      -63.3640  -21.3100   48.4760 N.am  522  ASN522     -0.0877
     91  N        -69.7140  -10.5590   58.7020 N.3   564  PRO564     -0.2102
     92  CA       -68.6300  -11.5310   58.8890 C.3   564  PRO564      0.1504
     93  C        -68.4900  -12.0040   60.3310 C.2   564  PRO564      0.2576
     94  O        -68.5560  -11.1960   61.2570 O.2   564  PRO564     -0.2718
     95  CB       -67.3840  -10.7540   58.4500 C.3   564  PRO564      0.0282
     96  CG       -67.7460   -9.3240   58.6350 C.3   564  PRO564      0.0208
     97  CD       -69.2020   -9.2390   58.2960 C.3   564  PRO564      0.0893
     98  N        -68.2990  -13.3060   60.5100 N.am  565  GLY565     -0.1957
     99  CA       -68.1490  -13.8820   61.8320 C.3   565  GLY565      0.1869
    100  C        -69.3780  -14.6510   62.2720 C.2   565  GLY565      0.2309
    101  O        -69.3130  -15.4770   63.1800 O.2   565  GLY565     -0.2863
    102  N        -71.4150  -15.9280   66.9700 N.3   576  LEU576     -0.1231
    103  CA       -70.5230  -14.9280   66.4050 C.3   576  LEU576      0.1693
    104  C        -69.0890  -15.2040   66.8380 C.2   576  LEU576      0.2593
    105  O        -68.7720  -15.1530   68.0260 O.2   576  LEU576     -0.2718
    106  CB       -70.9570  -13.5250   66.8310 C.3   576  LEU576      0.0284
    107  CG       -70.2040  -12.3380   66.2320 C.3   576  LEU576      0.0019
    108  CD1      -70.2700  -12.3780   64.7180 C.3   576  LEU576      0.0001
    109  CD2      -70.7850  -11.0370   66.7540 C.3   576  LEU576      0.0001
    110  N        -68.2290  -15.5040   65.8690 N.am  577  THR577     -0.1939
    111  CA       -66.8400  -15.8480   66.1470 C.3   577  THR577      0.2028
    112  C        -66.1100  -14.7110   66.8450 C.2   577  THR577      0.2642
    113  O        -66.1760  -13.5630   66.4110 O.2   577  THR577     -0.2714
    114  CB       -66.0750  -16.2040   64.8600 C.3   577  THR577      0.1808
    115  OG1      -65.9110  -15.0290   64.0580 O.3   577  THR577     -0.2208
    116  CG2      -66.8300  -17.2480   64.0660 C.3   577  THR577      0.0379
    117  N        -65.4130  -15.0350   67.9280 N.am  578  ALA578     -0.1963
    118  CA       -64.6420  -14.0400   68.6580 C.3   578  ALA578      0.1728
    119  C        -63.4350  -13.5980   67.8440 C.2   578  ALA578      0.2616
    120  O        -63.1480  -14.1600   66.7900 O.2   578  ALA578     -0.2715
    121  CB       -64.2020  -14.5870   70.0040 C.3   578  ALA578      0.0334
    122  N        -62.7330  -12.5850   68.3370 N.am  579  LEU579     -0.1977
    123  CA       -61.5360  -12.0890   67.6700 C.3   579  LEU579      0.1596
    124  C        -60.2880  -12.5830   68.3920 C.2   579  LEU579      0.2287
    125  O        -60.2600  -12.6330   69.6210 O.2   579  LEU579     -0.2864
    126  CB       -61.5500  -10.5600   67.6040 C.3   579  LEU579      0.0297
    127  CG       -62.1140   -9.9230   66.3310 C.3   579  LEU579      0.0022
    128  CD1      -63.5330  -10.3910   66.0550 C.3   579  LEU579      0.0001
    129  CD2      -62.0590   -8.4070   66.4240 C.3   579  LEU579      0.0001
    130  N        -62.7150   -4.4520   64.2890 N.3   588  ALA588     -0.1245
    131  CA       -62.0840   -5.2730   63.2620 C.3   588  ALA588      0.1562
    132  C        -61.0220   -4.5180   62.4660 C.2   588  ALA588      0.2260
    133  O        -60.1420   -5.1300   61.8650 O.2   588  ALA588     -0.2867
    134  CB       -63.1400   -5.8300   62.3220 C.3   588  ALA588      0.0290
    135  N        -57.5290   -4.8910   64.0230 N.3   591  LEU591     -0.1245
    136  CA       -57.2660   -6.2950   64.3130 C.3   591  LEU591      0.1561
    137  C        -55.7920   -6.6440   64.1380 C.2   591  LEU591      0.2260
    138  O        -55.2260   -7.3890   64.9370 O.2   591  LEU591     -0.2867
    139  CB       -58.1230   -7.1920   63.4180 C.3   591  LEU591      0.0270
    140  CG       -57.9190   -8.6980   63.5850 C.3   591  LEU591      0.0019
    141  CD1      -58.1880   -9.1130   65.0190 C.3   591  LEU591      0.0001
    142  CD2      -58.8080   -9.4690   62.6250 C.3   591  LEU591      0.0001
@<TRIPOS>BOND
     1    13    12    1
     2    13    14    1
     3    90    88   am
     4    12     9    1
     5    14     8    1
     6    88    87    1
     7    88    89    2
     8    87    84    1
     9     9     8    1
    10     9    10    1
    11    84    85    1
    12    84    83    1
    13    85    86    2
    14    10    11    2
    15    10    15   am
    16    72    73    1
    17    72    70   am
    18    15    16    1
    19    22    21    2
    20    68    69    1
    21    69    70    1
    22    73    74    1
    23    19    16    1
    24    19    20    1
    25    70    71    2
    26    75    74    2
    27    21    20    1
    28    21    23   am
    29    16    17    1
    30    43    42    1
    31    29    28    1
    32    42    41    1
    33    17    18    2
    34    17    24   am
    35    24    25    1
    36    41    40    1
    37    28    25    1
    38    28    30    1
    39    49    48    1
    40    25    26    1
    41    76    77    1
    42    40    39    1
    43    82    80    1
    44    39    36    1
    45    48    45    1
    46    26    31   am
    47    26    27    2
    48    31    32    1
    49    77    80    1
    50    77    78    1
    51    81    80    1
    52    44    45    1
    53    44    37   am
    54    35    36    1
    55    35    33   am
    56    36    37    1
    57    45    46    1
    58    32    33    1
    59    78    79    2
    60    37    38    2
    61    97    96    1
    62    97    91    1
    63    95    96    1
    64    95    92    1
    65    33    34    2
    66    91    92    1
    67    92    93    1
    68    46    50   am
    69    46    47    2
    70    50    51    1
    71    55    54    1
    72    66    65    1
    73    93    98   am
    74    93    94    2
    75    67    65    1
    76    98    99    1
    77    65    64    2
    78    51    54    1
    79    51    52    1
    80    54    56    1
    81    64    63    1
    82    63    62    1
    83    99   100    1
    84    62    61    1
    85   133   132    2
    86    52    53    2
    87   100   101    2
    88   134   131    1
    89   132   131    1
    90   142   140    1
    91    57    58    1
    92    61    58    1
    93   131   130    1
    94   139   140    1
    95   139   136    1
    96   140   141    1
    97    58    59    1
    98   135   136    1
    99   115   114    1
   100   116   114    1
   101   137   136    1
   102   137   138    2
   103   108   107    1
   104   114   111    1
   105    59    60    2
   106   110   111    1
   107   110   104   am
   108   128   127    1
   109   111   112    1
   110   107   109    1
   111   107   106    1
   112   127   129    1
   113   127   126    1
   114   103   106    1
   115   103   104    1
   116   103   102    1
   117   113   112    2
   118     6     7    1
   119     6     5    1
   120   120   119    2
   121   104   105    2
   122   112   117   am
   123     7     1    1
   124     5     2    1
   125   126   123    1
   126   123   122    1
   127   123   124    1
   128   119   122   am
   129   119   118    1
   130   117   118    1
   131     1     2    1
   132   124   125    2
   133     2     3    1
   134   118   121    1
   135     3     4    2
