@<TRIPOS>MOLECULE
tmp/4nh1B00.pdb
 197 188 0 0 0
SMALL
GASTEIGER

@<TRIPOS>ATOM
      1  N         71.9220    9.5250   20.4080 N.3    44  LEU44      -0.1231
      2  CA        72.8970   10.4600   19.8630 C.3    44  LEU44       0.1693
      3  C         72.5200   10.8700   18.4450 C.2    44  LEU44       0.2593
      4  O         72.8350   11.9750   18.0030 O.2    44  LEU44      -0.2718
      5  CB        74.2990    9.8490   19.8840 C.3    44  LEU44       0.0284
      6  CG        74.8690    9.5480   21.2710 C.3    44  LEU44       0.0019
      7  CD1       76.2760    8.9810   21.1630 C.3    44  LEU44       0.0001
      8  CD2       74.8540   10.7970   22.1350 C.3    44  LEU44       0.0001
      9  N         71.8450    9.9720   17.7360 N.am   45  GLY45      -0.1942
     10  CA        71.4000   10.2480   16.3830 C.3    45  GLY45       0.2014
     11  C         70.8040    9.0300   15.7070 C.2    45  GLY45       0.2639
     12  O         70.8560    7.9240   16.2430 O.2    45  GLY45      -0.2714
     13  N         70.2370    9.2380   14.5220 N.am   46  ARG46      -0.1963
     14  CA        69.6750    8.1490   13.7300 C.3    46  ARG46       0.1729
     15  C         69.4650    8.5970   12.2900 C.2    46  ARG46       0.2617
     16  O         69.3040    9.7850   12.0230 O.2    46  ARG46      -0.2715
     17  CB        68.3550    7.6630   14.3330 C.3    46  ARG46       0.0348
     18  CG        67.2510    8.7080   14.3470 C.3    46  ARG46       0.0492
     19  CD        65.9770    8.1520   14.9640 C.3    46  ARG46       0.2205
     20  NE        65.4340    7.0440   14.1840 N.pl3  46  ARG46      -0.0865
     21  CZ        64.3790    6.3210   14.5460 C.cat  46  ARG46       0.5346
     22  NH1       63.7470    6.5890   15.6810 N.pl3  46  ARG46       0.1354
     23  NH2       63.9550    5.3310   13.7740 N.pl3  46  ARG46       0.1354
     24  N         69.4640    7.6450   11.3630 N.am   47  GLY47      -0.1940
     25  CA        69.3300    7.9740    9.9560 C.3    47  GLY47       0.2014
     26  C         68.5470    6.9540    9.1520 C.2    47  GLY47       0.2639
     27  O         67.6920    6.2470    9.6850 O.2    47  GLY47      -0.2714
     28  N         68.8440    6.8840    7.8590 N.am   48  LYS48      -0.1963
     29  CA        68.1340    5.9940    6.9470 C.3    48  LYS48       0.1728
     30  C         68.5120    4.5310    7.1640 C.2    48  LYS48       0.2616
     31  O         67.6770    3.6380    7.0240 O.2    48  LYS48      -0.2715
     32  CB        68.4120    6.3950    5.4960 C.3    48  LYS48       0.0311
     33  CG        67.7010    5.5420    4.4600 C.3    48  LYS48       0.0038
     34  CD        68.0360    5.9960    3.0480 C.3    48  LYS48       0.0206
     35  CE        69.4780    5.6750    2.6890 C.3    48  LYS48       0.1093
     36  NZ        69.5690    4.8060    1.4800 N.3    48  LYS48      -0.1314
     37  N         69.7710    4.2920    7.5130 N.am   49  TYR49      -0.1960
     38  CA        70.2920    2.9320    7.5990 C.3    49  TYR49       0.1771
     39  C         70.3180    2.3740    9.0200 C.2    49  TYR49       0.2620
     40  O         70.1850    1.1650    9.2150 O.2    49  TYR49      -0.2715
     41  CB        71.7000    2.8740    7.0030 C.3    49  TYR49       0.0574
     42  CG        71.7270    2.8730    5.4910 C.ar   49  TYR49      -0.0198
     43  CD1       70.7280    2.2430    4.7610 C.ar   49  TYR49      -0.0009
     44  CD2       72.7510    3.5020    4.7950 C.ar   49  TYR49      -0.0009
     45  CE1       70.7480    2.2380    3.3780 C.ar   49  TYR49       0.0417
     46  CE2       72.7800    3.5010    3.4120 C.ar   49  TYR49       0.0417
     47  CZ        71.7760    2.8680    2.7100 C.ar   49  TYR49       0.1957
     48  OH        71.7990    2.8650    1.3340 O.3    49  TYR49      -0.2866
     49  N         70.4860    3.2440   10.0110 N.am   50  SER50      -0.1950
     50  CA        70.6750    2.7750   11.3800 C.3    50  SER50       0.1924
     51  C         70.3010    3.8010   12.4470 C.2    50  SER50       0.2314
     52  O         70.2040    4.9980   12.1740 O.2    50  SER50      -0.2863
     53  CB        72.1300    2.3490   11.5810 C.3    50  SER50       0.2116
     54  OG        73.0140    3.4270   11.3290 O.3    50  SER50      -0.2180
     55  N         71.4780    5.2540   16.3030 N.3    52  VAL52      -0.1245
     56  CA        72.6630    5.3340   17.1500 C.3    52  VAL52       0.1561
     57  C         72.3050    5.7710   18.5680 C.2    52  VAL52       0.2260
     58  O         71.6280    6.7800   18.7640 O.2    52  VAL52      -0.2867
     59  CB        73.7030    6.3100   16.5670 C.3    52  VAL52       0.0252
     60  CG1       74.9070    6.4180   17.4870 C.3    52  VAL52       0.0019
     61  CG2       74.1260    5.8610   15.1790 C.3    52  VAL52       0.0019
     62  N         79.1400    3.7540   22.6990 N.3    65  VAL65      -0.1245
     63  CA        78.1870    4.1800   21.6790 C.3    65  VAL65       0.1561
     64  C         77.6860    2.9890   20.8680 C.2    65  VAL65       0.2260
     65  O         78.4740    2.2700   20.2560 O.2    65  VAL65      -0.2867
     66  CB        78.8060    5.2170   20.7230 C.3    65  VAL65       0.0252
     67  CG1       77.8540    5.5210   19.5780 C.3    65  VAL65       0.0019
     68  CG2       79.1620    6.4870   21.4790 C.3    65  VAL65       0.0019
     69  N         75.5620    1.4440   17.7560 N.3    67  LYS67      -0.1245
     70  CA        74.9840    1.6850   16.4390 C.3    67  LYS67       0.1561
     71  C         74.1560    0.4800   16.0070 C.2    67  LYS67       0.2260
     72  O         74.6960   -0.5980   15.7620 O.2    67  LYS67      -0.2867
     73  CB        76.0810    1.9780   15.4130 C.3    67  LYS67       0.0271
     74  CG        75.5650    2.2620   14.0130 C.3    67  LYS67       0.0035
     75  CD        76.7070    2.5690   13.0570 C.3    67  LYS67       0.0206
     76  CE        76.1910    2.8770   11.6600 C.3    67  LYS67       0.1093
     77  NZ        77.2940    3.1970   10.7120 N.3    67  LYS67      -0.1314
     78  N         87.8580    4.9240   14.1400 N.3    94  ILE94      -0.1245
     79  CA        86.9670    4.5560   15.2320 C.3    94  ILE94       0.1561
     80  C         87.1320    3.0730   15.5720 C.2    94  ILE94       0.2260
     81  O         87.3870    2.2460   14.6950 O.2    94  ILE94      -0.2867
     82  CB        85.4910    4.8740   14.8880 C.3    94  ILE94       0.0252
     83  CG1       84.6230    4.8420   16.1470 C.3    94  ILE94       0.0019
     84  CG2       84.9620    3.9420   13.8060 C.3    94  ILE94       0.0019
     85  CD1       84.9650    5.9250   17.1460 C.3    94  ILE94       0.0001
     86  N         80.8780    1.0750   19.7450 N.3   112  PHE112     -0.1227
     87  CA        82.1490    1.7560   19.5270 C.3   112  PHE112      0.1736
     88  C         82.6380    2.4380   20.7960 C.2   112  PHE112      0.2595
     89  O         81.9100    2.5300   21.7850 O.2   112  PHE112     -0.2718
     90  CB        82.0230    2.7920   18.4070 C.3   112  PHE112      0.0547
     91  CG        81.5410    2.2250   17.1030 C.ar  112  PHE112     -0.0202
     92  CD1       82.4250    1.6150   16.2290 C.ar  112  PHE112     -0.0042
     93  CD2       80.2060    2.3140   16.7440 C.ar  112  PHE112     -0.0042
     94  CE1       81.9850    1.0960   15.0260 C.ar  112  PHE112     -0.0003
     95  CE2       79.7600    1.7980   15.5430 C.ar  112  PHE112     -0.0003
     96  CZ        80.6510    1.1880   14.6830 C.ar  112  PHE112     -0.0000
     97  N         83.8760    2.9150   20.7600 N.am  113  GLU113     -0.1965
     98  CA        84.4100    3.7330   21.8390 C.3   113  GLU113      0.1733
     99  C         83.6710    5.0650   21.8720 C.2   113  GLU113      0.2616
    100  O         83.1880    5.5370   20.8430 O.2   113  GLU113     -0.2715
    101  CB        85.9110    3.9550   21.6590 C.3   113  GLU113      0.0429
    102  CG        86.2810    4.5650   20.3160 C.3   113  GLU113      0.1163
    103  CD        87.7780    4.6970   20.1250 C.2   113  GLU113      0.3649
    104  OE1       88.5270    4.4590   21.0950 O.co2 113  GLU113     -0.2457
    105  OE2       88.2060    5.0390   19.0020 O.co2 113  GLU113     -0.2457
    106  N         83.5800    5.6700   23.0510 N.am  114  HIS114     -0.1959
    107  CA        82.8610    6.9300   23.1870 C.3   114  HIS114      0.1787
    108  C         83.8030    8.1250   23.1180 C.2   114  HIS114      0.2620
    109  O         84.7830    8.2040   23.8600 O.2   114  HIS114     -0.2715
    110  CB        82.0750    6.9650   24.4980 C.3   114  HIS114      0.0785
    111  CG        81.2730    8.2160   24.6840 C.ar  114  HIS114      0.0821
    112  ND1       81.6780    9.2430   25.5090 N.ar  114  HIS114     -0.2267
    113  CD2       80.0930    8.6060   24.1480 C.ar  114  HIS114      0.1154
    114  CE1       80.7790   10.2120   25.4740 C.ar  114  HIS114      0.1986
    115  NE2       79.8080    9.8500   24.6560 N.ar  114  HIS114     -0.2212
    116  N         83.4960    9.0530   22.2190 N.am  115  VAL115     -0.1977
    117  CA        84.2580   10.2860   22.0900 C.3   115  VAL115      0.1596
    118  C         83.3720   11.4800   22.4250 C.2   115  VAL115      0.2287
    119  O         82.4560   11.8090   21.6710 O.2   115  VAL115     -0.2864
    120  CB        84.8320   10.4560   20.6700 C.3   115  VAL115      0.0276
    121  CG1       85.6280   11.7480   20.5700 C.3   115  VAL115      0.0022
    122  CG2       85.6940    9.2590   20.2990 C.3   115  VAL115      0.0022
    123  N         82.1990   14.2990   21.9060 N.3   117  ASN117     -0.1240
    124  CA        82.2730   15.2350   20.7940 C.3   117  ASN117      0.1653
    125  C         81.6650   16.5960   21.0940 C.2   117  ASN117      0.2266
    126  O         80.4440   16.7370   21.1660 O.2   117  ASN117     -0.2867
    127  CB        81.5860   14.6400   19.5660 C.3   117  ASN117      0.1155
    128  CG        81.6230   15.5690   18.3650 C.2   117  ASN117      0.2627
    129  OD1       82.5280   16.3910   18.2280 O.2   117  ASN117     -0.2716
    130  ND2       80.6320   15.4420   17.4890 N.am  117  ASN117     -0.0877
    131  N         82.4370    8.8640    2.0720 N.3   155  ASP155     -0.1239
    132  CA        81.4530    9.5610    2.8960 C.3   155  ASP155      0.1674
    133  C         82.1260   10.5360    3.8600 C.2   155  ASP155      0.2266
    134  O         81.7050   10.6800    5.0080 O.2   155  ASP155     -0.2867
    135  CB        80.5990    8.5570    3.6750 C.3   155  ASP155      0.1410
    136  CG        79.2830    9.1480    4.1410 C.2   155  ASP155      0.3668
    137  OD1       78.8190   10.1290    3.5230 O.co2 155  ASP155     -0.2456
    138  OD2       78.7120    8.6300    5.1240 O.co2 155  ASP155     -0.2456
    139  N         82.6290   13.6700    5.6060 N.3   157  LYS157     -0.1245
    140  CA        81.8730   14.8740    5.9310 C.3   157  LYS157      0.1561
    141  C         82.1020   15.2450    7.3950 C.2   157  LYS157      0.2260
    142  O         82.4830   14.3910    8.1970 O.2   157  LYS157     -0.2867
    143  CB        80.3800   14.6660    5.6490 C.3   157  LYS157      0.0271
    144  CG        79.6580   13.8380    6.6980 C.3   157  LYS157      0.0035
    145  CD        78.1660   13.7580    6.4180 C.3   157  LYS157      0.0206
    146  CE        77.8710   12.9210    5.1870 C.3   157  LYS157      0.1093
    147  NZ        76.4070   12.7230    4.9990 N.3   157  LYS157     -0.1314
    148  N         79.9860   15.6740    9.5960 N.3   159  HIS159     -0.1226
    149  CA        79.0560   14.9050   10.4170 C.3   159  HIS159      0.1752
    150  C         79.5510   13.4830   10.6670 C.2   159  HIS159      0.2596
    151  O         78.9200   12.7190   11.3970 O.2   159  HIS159     -0.2718
    152  CB        77.6730   14.8530    9.7620 C.3   159  HIS159      0.0759
    153  CG        76.8440   16.0790    9.9870 C.ar  159  HIS159      0.0818
    154  ND1       76.0950   16.2710   11.1290 N.ar  159  HIS159     -0.2268
    155  CD2       76.6400   17.1720    9.2150 C.ar  159  HIS159      0.1154
    156  CE1       75.4680   17.4310   11.0510 C.ar  159  HIS159      0.1986
    157  NE2       75.7820   17.9990    9.9010 N.ar  159  HIS159     -0.2212
    158  N         80.6810   13.1290   10.0640 N.am  160  ASN160     -0.1974
    159  CA        81.2330   11.7890   10.2250 C.3   160  ASN160      0.1688
    160  C         82.6660   11.8070   10.7470 C.2   160  ASN160      0.2292
    161  O         83.3780   10.8060   10.6650 O.2   160  ASN160     -0.2864
    162  CB        81.1690   11.0240    8.9020 C.3   160  ASN160      0.1181
    163  CG        79.7520   10.6360    8.5200 C.2   160  ASN160      0.2629
    164  OD1       78.8990   10.4140    9.3830 O.2   160  ASN160     -0.2716
    165  ND2       79.4950   10.5460    7.2210 N.am  160  ASN160     -0.0877
    166  N         84.5140   12.7910   14.3540 N.3   162  MET162     -0.1245
    167  CA        84.2910   13.1520   15.7470 C.3   162  MET162      0.1570
    168  C         85.4900   13.8940   16.3170 C.2   162  MET162      0.2261
    169  O         86.6280   13.4590   16.1570 O.2   162  MET162     -0.2867
    170  CB        83.9970   11.9020   16.5750 C.3   162  MET162      0.0387
    171  CG        82.9550   10.9960   15.9460 C.3   162  MET162      0.0595
    172  SD        81.4050   11.8600   15.6380 S.3   162  MET162     -0.1393
    173  CE        80.8210   12.0830   17.3110 C.3   162  MET162      0.0692
    174  N         84.3980    8.2280   11.6650 N.3   173  ILE173     -0.1231
    175  CA        83.3700    7.2030   11.8190 C.3   173  ILE173      0.1692
    176  C         82.5610    7.0020   10.5410 C.2   173  ILE173      0.2592
    177  O         82.9180    7.5200    9.4820 O.2   173  ILE173     -0.2718
    178  CB        82.4010    7.5510   12.9630 C.3   173  ILE173      0.0266
    179  CG1       81.6420    8.8400   12.6430 C.3   173  ILE173      0.0019
    180  CG2       83.1550    7.6850   14.2760 C.3   173  ILE173      0.0020
    181  CD1       80.4890    9.1160   13.5780 C.3   173  ILE173      0.0001
    182  N         81.4740    6.2410   10.6600 N.am  174  ASP174     -0.1974
    183  CA        80.5580    5.9680    9.5540 C.3   174  ASP174      0.1709
    184  C         81.2790    5.3180    8.3760 C.2   174  ASP174      0.2293
    185  O         81.6620    5.9930    7.4200 O.2   174  ASP174     -0.2864
    186  CB        79.8590    7.2540    9.1000 C.3   174  ASP174      0.1436
    187  CG        78.5840    6.9850    8.3220 C.2   174  ASP174      0.3671
    188  OD1       78.3570    5.8160    7.9340 O.co2 174  ASP174     -0.2456
    189  OD2       77.8140    7.9460    8.0910 O.co2 174  ASP174     -0.2456
    190  N         79.3280    3.2490    3.8930 N.3   177  LEU177     -0.1245
    191  CA        79.4710    3.4690    2.4590 C.3   177  LEU177      0.1561
    192  C         80.8870    3.1420    2.0000 C.2   177  LEU177      0.2260
    193  O         81.1910    3.1930    0.8090 O.2   177  LEU177     -0.2867
    194  CB        79.1210    4.9140    2.0910 C.3   177  LEU177      0.0270
    195  CG        77.6400    5.2970    2.0180 C.3   177  LEU177      0.0019
    196  CD1       77.0260    5.4450    3.4040 C.3   177  LEU177      0.0001
    197  CD2       77.4610    6.5700    1.2110 C.3   177  LEU177      0.0001
@<TRIPOS>BOND
     1   193   192    2
     2   197   195    1
     3    48    47    1
     4    36    35    1
     5   192   191    1
     6   195   194    1
     7   195   196    1
     8   131   132    1
     9   194   191    1
    10   191   190    1
    11    35    34    1
    12    47    45   ar
    13    47    46   ar
    14   132   135    1
    15   132   133    1
    16    34    33    1
    17    45    43   ar
    18    46    44   ar
    19   137   136   ar
    20   135   136    1
    21   133   134    2
    22   136   138   ar
    23    33    32    1
    24    43    42   ar
    25    44    42   ar
    26   147   146    1
    27   146   145    1
    28    42    41    1
    29    32    29    1
    30   139   140    1
    31   143   140    1
    32   143   144    1
    33   140   141    1
    34   145   144    1
    35    29    30    1
    36    29    28    1
    37    41    38    1
    38    31    30    2
    39    30    37   am
    40   165   163   am
    41   141   142    2
    42   185   184    2
    43    37    38    1
    44    38    39    1
    45    28    26   am
    46   188   187   ar
    47   189   187   ar
    48   187   186    1
    49   184   183    1
    50   163   162    1
    51   163   164    2
    52   162   159    1
    53    39    40    2
    54    39    49   am
    55   186   183    1
    56    26    27    2
    57    26    25    1
    58   155   157   ar
    59   155   153   ar
    60   177   176    2
    61   183   182    1
    62   148   149    1
    63   152   153    1
    64   152   149    1
    65   157   156   ar
    66    25    24    1
    67   153   154   ar
    68    49    50    1
    69   158   159    1
    70   158   150   am
    71   159   160    1
    72   149   150    1
    73   176   182   am
    74   176   175    1
    75   161   160    2
    76   150   151    2
    77    77    76    1
    78   156   154   ar
    79    54    53    1
    80    24    15   am
    81    50    53    1
    82    50    51    1
    83    76    75    1
    84   174   175    1
    85   175   178    1
    86    16    15    2
    87    52    51    2
    88    15    14    1
    89   179   178    1
    90   179   181    1
    91   178   180    1
    92    75    74    1
    93    14    17    1
    94    14    13    1
    95    23    21    1
    96    84    82    1
    97    74    73    1
    98    78    79    1
    99    20    21    2
   100    20    19    1
   101    17    18    1
   102    18    19    1
   103   166   167    1
   104    13    11   am
   105    21    22    1
   106    96    94   ar
   107    96    95   ar
   108    81    80    2
   109    82    79    1
   110    82    83    1
   111    94    92   ar
   112    61    59    1
   113    79    80    1
   114    73    70    1
   115    95    93   ar
   116   172   171    1
   117   172   173    1
   118    11    12    2
   119    11    10    1
   120   167   168    1
   121   167   170    1
   122    72    71    2
   123   171   170    1
   124    71    70    1
   125    83    85    1
   126   169   168    2
   127    92    91   ar
   128    55    56    1
   129    10     9    1
   130    70    69    1
   131    59    56    1
   132    59    60    1
   133    93    91   ar
   134    91    90    1
   135    56    57    1
   136   130   128   am
   137     9     3   am
   138     4     3    2
   139   129   128    2
   140   128   127    1
   141    90    87    1
   142     3     2    1
   143    57    58    2
   144   105   103   ar
   145    87    86    1
   146    87    88    1
   147   127   124    1
   148    67    66    1
   149     2     5    1
   150     2     1    1
   151     5     6    1
   152   103   102    1
   153   103   104   ar
   154    65    64    2
   155   122   120    1
   156   102   101    1
   157   121   120    1
   158   120   117    1
   159    66    68    1
   160    66    63    1
   161    97    88   am
   162    97    98    1
   163   124   125    1
   164   124   123    1
   165    88    89    2
   166   100    99    2
   167    64    63    1
   168   125   126    2
   169     7     6    1
   170     6     8    1
   171   101    98    1
   172   119   118    2
   173    63    62    1
   174    98    99    1
   175    99   106   am
   176   117   116    1
   177   117   118    1
   178   116   108   am
   179   106   107    1
   180   108   107    1
   181   108   109    2
   182   107   110    1
   183   113   115   ar
   184   113   111   ar
   185   110   111    1
   186   115   114   ar
   187   111   112   ar
   188   114   112   ar
