@<TRIPOS>MOLECULE
tmp/4nh2B03.pdb
 117 109 0 0 0
SMALL
GASTEIGER

@<TRIPOS>ATOM
      1  N        -59.1180   -5.1970   29.0740 N.3   229  ALA229     -0.1245
      2  CA       -59.6250   -6.5200   28.7530 C.3   229  ALA229      0.1562
      3  C        -60.6620   -6.5670   27.6080 C.2   229  ALA229      0.2260
      4  O        -60.6340   -7.4820   26.8180 O.2   229  ALA229     -0.2867
      5  CB       -60.1820   -7.1860   29.9990 C.3   229  ALA229      0.0290
      6  N        -59.0380   -6.0100   24.1860 N.3   232  LEU232     -0.1231
      7  CA       -58.4160   -7.2380   23.7250 C.3   232  LEU232      0.1693
      8  C        -59.5000   -8.2200   23.3440 C.2   232  LEU232      0.2592
      9  O        -59.3910   -8.8680   22.3070 O.2   232  LEU232     -0.2718
     10  CB       -57.5000   -7.8440   24.7980 C.3   232  LEU232      0.0284
     11  CG       -56.3000   -6.9790   25.2000 C.3   232  LEU232      0.0019
     12  CD1      -55.5640   -7.5680   26.3930 C.3   232  LEU232      0.0001
     13  CD2      -55.3480   -6.7880   24.0210 C.3   232  LEU232      0.0001
     14  N        -60.5190   -8.3540   24.1960 N.am  233  GLY233     -0.1957
     15  CA       -61.6710   -9.2280   23.9320 C.3   233  GLY233      0.1869
     16  C        -62.2010   -8.9950   22.5110 C.2   233  GLY233      0.2309
     17  O        -62.2600   -9.9120   21.6930 O.2   233  GLY233     -0.2863
     18  N        -59.5700   -9.6270   19.5050 N.3   236  PHE236     -0.1241
     19  CA       -59.2940  -11.0300   19.2190 C.3   236  PHE236      0.1605
     20  C        -60.4940  -11.6310   18.5180 C.2   236  PHE236      0.2264
     21  O        -60.3360  -12.3840   17.5700 O.2   236  PHE236     -0.2867
     22  CB       -58.9350  -11.7990   20.5130 C.3   236  PHE236      0.0534
     23  CG       -57.4650  -11.6720   20.9000 C.ar  236  PHE236     -0.0203
     24  CD1      -56.6630  -10.6450   20.3530 C.ar  236  PHE236     -0.0042
     25  CD2      -56.8920  -12.5270   21.8340 C.ar  236  PHE236     -0.0042
     26  CE1      -55.3310  -10.5020   20.7070 C.ar  236  PHE236     -0.0003
     27  CE2      -55.5560  -12.3880   22.1920 C.ar  236  PHE236     -0.0003
     28  CZ       -54.7770  -11.3770   21.6300 C.ar  236  PHE236     -0.0000
     29  N        -60.1870   -8.9100   39.6180 N.3   271  GLY271     -0.1210
     30  CA       -60.3660  -10.1820   38.8730 C.3   271  GLY271      0.1956
     31  C        -61.7230  -10.1750   38.1950 C.2   271  GLY271      0.2612
     32  O        -61.8380  -10.4510   37.0030 O.2   271  GLY271     -0.2717
     33  N        -62.7320   -9.7930   38.9500 N.am  272  GLY272     -0.1956
     34  CA       -64.0620   -9.5410   38.4080 C.3   272  GLY272      0.1869
     35  C        -64.0730   -8.6040   37.2120 C.2   272  GLY272      0.2309
     36  O        -64.7240   -8.8830   36.2040 O.2   272  GLY272     -0.2863
     37  N        -61.6580   -7.8690   35.0520 N.3   274  LEU274     -0.1231
     38  CA       -60.9920   -8.4720   33.9300 C.3   274  LEU274      0.1693
     39  C        -61.9550   -9.3680   33.1950 C.2   274  LEU274      0.2591
     40  O        -62.0580   -9.3330   31.9510 O.2   274  LEU274     -0.2718
     41  CB       -59.8140   -9.2850   34.4330 C.3   274  LEU274      0.0284
     42  CG       -58.6340   -9.4900   33.4990 C.3   274  LEU274      0.0019
     43  CD1      -57.4120   -9.8480   34.3260 C.3   274  LEU274      0.0001
     44  CD2      -58.9410  -10.5890   32.5130 C.3   274  LEU274      0.0001
     45  N        -62.7240  -10.1290   33.9590 N.am  275  ILE275     -0.1980
     46  CA       -63.7770  -11.0160   33.3840 C.3   275  ILE275      0.1595
     47  C        -64.9170  -10.2390   32.6940 C.2   275  ILE275      0.2287
     48  O        -65.3740  -10.5780   31.6270 O.2   275  ILE275     -0.2864
     49  CB       -64.4420  -11.9100   34.4540 C.3   275  ILE275      0.0276
     50  CG1      -63.4500  -12.8520   35.1580 C.3   275  ILE275      0.0022
     51  CG2      -65.5520  -12.7490   33.8200 C.3   275  ILE275      0.0022
     52  CD1      -62.4820  -13.4350   34.1800 C.3   275  ILE275      0.0001
     53  N        -63.7580   -8.7720   29.3930 N.3   278  VAL278     -0.1231
     54  CA       -63.6270   -9.7800   28.3300 C.3   278  VAL278      0.1692
     55  C        -64.9790  -10.1070   27.7610 C.2   278  VAL278      0.2591
     56  O        -65.1770  -10.0170   26.5580 O.2   278  VAL278     -0.2718
     57  CB       -62.9350  -11.0730   28.8490 C.3   278  VAL278      0.0266
     58  CG1      -63.0870  -12.2130   27.8580 C.3   278  VAL278      0.0020
     59  CG2      -61.4470  -10.8290   29.0300 C.3   278  VAL278      0.0020
     60  N        -65.9370  -10.4030   28.6560 N.am  279  VAL279     -0.1980
     61  CA       -67.2740  -10.7590   28.2520 C.3   279  VAL279      0.1595
     62  C        -67.9560   -9.6030   27.5820 C.2   279  VAL279      0.2287
     63  O        -68.6030   -9.7730   26.5440 O.2   279  VAL279     -0.2864
     64  CB       -68.0840  -11.2120   29.4380 C.3   279  VAL279      0.0276
     65  CG1      -69.5570  -11.3080   29.1030 C.3   279  VAL279      0.0022
     66  CG2      -67.5600  -12.5730   29.9280 C.3   279  VAL279      0.0022
     67  N        -66.6210   -9.1020   23.9870 N.3   282  LEU282     -0.1245
     68  CA       -67.2130  -10.0980   23.0870 C.3   282  LEU282      0.1561
     69  C        -68.7040   -9.8770   22.8470 C.2   282  LEU282      0.2260
     70  O        -69.1630   -9.9270   21.7140 O.2   282  LEU282     -0.2867
     71  CB       -66.9840  -11.5150   23.6240 C.3   282  LEU282      0.0270
     72  CG       -65.5200  -11.9790   23.6050 C.3   282  LEU282      0.0019
     73  CD1      -65.2980  -13.2270   24.4640 C.3   282  LEU282      0.0001
     74  CD2      -65.0370  -12.2270   22.1920 C.3   282  LEU282      0.0001
     75  N        -73.6230   -8.9730   35.5950 N.3   310  MET310     -0.1245
     76  CA       -72.4040   -9.4250   36.1830 C.3   310  MET310      0.1570
     77  C        -72.1170   -8.7130   37.5420 C.2   310  MET310      0.2261
     78  O        -71.4590   -9.2740   38.4320 O.2   310  MET310     -0.2867
     79  CB       -71.2760   -9.2700   35.1600 C.3   310  MET310      0.0387
     80  CG       -71.4830  -10.1870   33.9600 C.3   310  MET310      0.0595
     81  SD       -70.0560  -10.3380   32.8660 S.3   310  MET310     -0.1393
     82  CE       -69.0750  -11.3840   33.9310 C.3   310  MET310      0.0692
     83  N        -70.4870  -10.7020   40.7340 N.3   314  PHE314     -0.1241
     84  CA       -69.1020  -10.4360   41.1430 C.3   314  PHE314      0.1605
     85  C        -69.0150   -9.4760   42.3150 C.2   314  PHE314      0.2264
     86  O        -67.9640   -9.2830   42.8760 O.2   314  PHE314     -0.2867
     87  CB       -68.2870   -9.9890   39.9410 C.3   314  PHE314      0.0534
     88  CG       -67.9360  -11.1410   39.0060 C.ar  314  PHE314     -0.0203
     89  CD1      -66.9810  -12.0770   39.3680 C.ar  314  PHE314     -0.0042
     90  CD2      -68.5930  -11.3310   37.8110 C.ar  314  PHE314     -0.0042
     91  CE1      -66.6500  -13.1640   38.5470 C.ar  314  PHE314     -0.0003
     92  CE2      -68.2760  -12.4010   36.9920 C.ar  314  PHE314     -0.0003
     93  CZ       -67.3360  -13.3320   37.3660 C.ar  314  PHE314     -0.0000
     94  N        -68.5260  -11.5150   47.8670 N.3   317  SER317     -0.1202
     95  CA       -67.2180  -11.3370   48.5400 C.3   317  SER317      0.2020
     96  C        -66.3740  -12.5320   48.2220 C.2   317  SER317      0.2619
     97  O        -65.1980  -12.4400   48.0920 O.2   317  SER317     -0.2717
     98  CB       -67.4210  -11.1210   50.0340 C.3   317  SER317      0.2103
     99  OG       -67.6560  -12.3530   50.6110 O.3   317  SER317     -0.2182
    100  N        -67.0050  -13.6660   48.0430 N.am  318  SER318     -0.1937
    101  CA       -66.2650  -14.8500   47.6750 C.3   318  SER318      0.2055
    102  C        -65.6960  -14.7470   46.2490 C.2   318  SER318      0.2643
    103  O        -64.7910  -15.4860   45.9150 O.2   318  SER318     -0.2714
    104  CB       -67.1260  -16.1060   47.8590 C.3   318  SER318      0.2130
    105  OG       -68.4390  -15.9760   47.3690 O.3   318  SER318     -0.2179
    106  N        -66.2080  -13.8260   45.4240 N.am  319  LEU319     -0.1963
    107  CA       -65.6220  -13.5920   44.0860 C.3   319  LEU319      0.1728
    108  C        -64.7850  -12.3500   44.0500 C.2   319  LEU319      0.2616
    109  O        -64.4170  -11.8620   42.9690 O.2   319  LEU319     -0.2715
    110  CB       -66.7560  -13.5160   43.0050 C.3   319  LEU319      0.0311
    111  CG       -67.5810  -14.8000   42.9730 C.3   319  LEU319      0.0022
    112  CD1      -68.7570  -14.6700   42.0970 C.3   319  LEU319      0.0001
    113  CD2      -66.7260  -15.9980   42.4930 C.3   319  LEU319      0.0001
    114  N        -64.4710  -11.7890   45.2150 N.am  320  GLY320     -0.1955
    115  CA       -63.5690  -10.6270   45.2290 C.3   320  GLY320      0.1869
    116  C        -64.2460   -9.2940   45.3110 C.2   320  GLY320      0.2309
    117  O        -63.5840   -8.2660   45.4480 O.2   320  GLY320     -0.2863
@<TRIPOS>BOND
     1    21    20    2
     2    20    19    1
     3    19    18    1
     4    19    22    1
     5    24    26   ar
     6    24    23   ar
     7    22    23    1
     8    26    28   ar
     9    23    25   ar
    10    28    27   ar
    11    17    16    2
    12    70    69    2
    13    25    27   ar
    14    74    72    1
    15     9     8    2
    16    16    15    1
    17    69    68    1
    18    68    71    1
    19    68    67    1
    20     8     7    1
    21     8    14   am
    22    72    71    1
    23    72    73    1
    24     7     6    1
    25     7    10    1
    26    15    14    1
    27    13    11    1
    28    10    11    1
    29    11    12    1
    30    63    62    2
    31    56    55    2
    32     4     3    2
    33    62    61    1
    34     3     2    1
    35    55    54    1
    36    55    60   am
    37    58    57    1
    38    61    60    1
    39    61    64    1
    40    54    57    1
    41    54    53    1
    42     2     1    1
    43     2     5    1
    44    57    59    1
    45    65    64    1
    46    64    66    1
    47    48    47    2
    48    40    39    2
    49    44    42    1
    50    47    46    1
    51    81    82    1
    52    81    80    1
    53    39    38    1
    54    39    45   am
    55    46    45    1
    56    46    49    1
    57    42    43    1
    58    42    41    1
    59    51    49    1
    60    38    41    1
    61    38    37    1
    62    80    79    1
    63    52    50    1
    64    49    50    1
    65    79    76    1
    66    75    76    1
    67    76    77    1
    68    36    35    2
    69    92    93   ar
    70    92    90   ar
    71    32    31    2
    72    35    34    1
    73    93    91   ar
    74    77    78    2
    75    90    88   ar
    76    31    30    1
    77    31    33   am
    78    34    33    1
    79    91    89   ar
    80    30    29    1
    81    88    89   ar
    82    88    87    1
    83    87    84    1
    84    83    84    1
    85    84    85    1
    86   112   111    1
    87    85    86    2
    88   113   111    1
    89   109   108    2
    90   111   110    1
    91   110   107    1
    92   108   107    1
    93   108   114   am
    94   107   106    1
    95   114   115    1
    96   115   116    1
    97   116   117    2
    98   106   102   am
    99   103   102    2
   100   102   101    1
   101   105   104    1
   102   101   104    1
   103   101   100    1
   104    94    95    1
   105   100    96   am
   106    97    96    2
   107    96    95    1
   108    95    98    1
   109    98    99    1
