@<TRIPOS>MOLECULE
tmp/4nh2C00.pdb
 110 106 0 0 0
SMALL
GASTEIGER

@<TRIPOS>ATOM
      1  N        -39.3170   35.1890   36.4930 N.3    61  VAL61      -0.1231
      2  CA       -38.2190   36.1410   36.6920 C.3    61  VAL61       0.1692
      3  C        -38.5880   37.3450   37.5480 C.2    61  VAL61       0.2592
      4  O        -38.0010   37.5740   38.6200 O.2    61  VAL61      -0.2718
      5  CB       -37.5930   36.6160   35.3630 C.3    61  VAL61       0.0266
      6  CG1      -36.4840   37.6820   35.6180 C.3    61  VAL61       0.0020
      7  CG2      -37.0130   35.4090   34.6140 C.3    61  VAL61       0.0020
      8  N        -39.5430   38.1380   37.0670 N.am   62  TYR62      -0.1976
      9  CA       -40.0050   39.3340   37.7820 C.3    62  TYR62       0.1639
     10  C        -41.5550   39.5140   37.8180 C.2    62  TYR62       0.2290
     11  O        -42.0620   40.2830   38.6440 O.2    62  TYR62      -0.2864
     12  CB       -39.3930   40.5860   37.1780 C.3    62  TYR62       0.0560
     13  CG       -39.8750   40.8910   35.7620 C.ar   62  TYR62      -0.0198
     14  CD1      -39.2790   40.2740   34.6570 C.ar   62  TYR62      -0.0009
     15  CD2      -40.8900   41.7950   35.5220 C.ar   62  TYR62      -0.0009
     16  CE1      -39.6860   40.5720   33.3640 C.ar   62  TYR62       0.0417
     17  CE2      -41.3240   42.0500   34.2300 C.ar   62  TYR62       0.0417
     18  CZ       -40.7210   41.4390   33.1610 C.ar   62  TYR62       0.1957
     19  OH       -41.1700   41.7210   31.8830 O.3    62  TYR62      -0.2866
     20  N        -43.9500   41.6510   40.5290 N.3    66  LEU66      -0.1245
     21  CA       -44.4150   42.9770   40.1730 C.3    66  LEU66       0.1561
     22  C        -45.9520   43.0590   40.1800 C.2    66  LEU66       0.2260
     23  O        -46.5300   44.1440   40.2280 O.2    66  LEU66      -0.2867
     24  CB       -43.8190   43.3190   38.7960 C.3    66  LEU66       0.0270
     25  CG       -43.8320   44.7870   38.3950 C.3    66  LEU66       0.0019
     26  CD1      -43.1350   45.6670   39.4230 C.3    66  LEU66       0.0001
     27  CD2      -43.1630   44.9210   37.0220 C.3    66  LEU66       0.0001
     28  N        -45.7830   43.4560   47.5760 N.3    70  GLU70      -0.1231
     29  CA       -46.1480   44.7650   48.1170 C.3    70  GLU70       0.1699
     30  C        -45.5240   45.8700   47.2940 C.2    70  GLU70       0.2593
     31  O        -44.3450   45.8260   46.9250 O.2    70  GLU70      -0.2718
     32  CB       -45.8460   44.9470   49.5940 C.3    70  GLU70       0.0402
     33  CG       -47.0730   45.3780   50.4160 C.3    70  GLU70       0.1161
     34  CD       -46.6670   46.1830   51.6310 C.2    70  GLU70       0.3649
     35  OE1      -45.5840   45.8480   52.2030 O.co2  70  GLU70      -0.2457
     36  OE2      -47.4170   47.1520   51.9900 O.co2  70  GLU70      -0.2457
     37  N        -46.3240   46.8640   46.9720 N.am   71  GLY71      -0.1942
     38  CA       -45.8280   47.9610   46.2000 C.3    71  GLY71       0.2014
     39  C        -46.6400   49.1810   46.5150 C.2    71  GLY71       0.2638
     40  O        -46.7480   49.5830   47.6690 O.2    71  GLY71      -0.2714
     41  N        -47.1590   49.8130   45.4860 N.am   72  ASN72      -0.1972
     42  CA       -48.0700   50.9350   45.6760 C.3    72  ASN72       0.1688
     43  C        -49.4860   50.5100   45.2050 C.2    72  ASN72       0.2292
     44  O        -49.8050   49.3190   45.1920 O.2    72  ASN72      -0.2864
     45  CB       -47.5240   52.2280   45.0140 C.3    72  ASN72       0.1181
     46  CG       -47.1480   52.0600   43.5470 C.2    72  ASN72       0.2629
     47  OD1      -47.9130   51.5490   42.7070 O.2    72  ASN72      -0.2716
     48  ND2      -45.9350   52.4860   43.2190 N.am   72  ASN72      -0.0877
     49  N        -48.3160   49.0200   41.1170 N.3    75  PHE75      -0.1227
     50  CA       -47.3170   47.9820   40.8720 C.3    75  PHE75       0.1736
     51  C        -46.8740   47.3490   42.1880 C.2    75  PHE75       0.2596
     52  O        -46.9800   47.9540   43.2830 O.2    75  PHE75      -0.2718
     53  CB       -46.1000   48.5550   40.1730 C.3    75  PHE75       0.0547
     54  CG       -46.3070   48.9130   38.6990 C.ar   75  PHE75      -0.0202
     55  CD1      -46.7920   50.1760   38.3520 C.ar   75  PHE75      -0.0042
     56  CD2      -45.9320   48.0520   37.6710 C.ar   75  PHE75      -0.0042
     57  CE1      -46.9560   50.5360   37.0110 C.ar   75  PHE75      -0.0003
     58  CE2      -46.0850   48.4210   36.3230 C.ar   75  PHE75      -0.0003
     59  CZ       -46.6010   49.6520   35.9950 C.ar   75  PHE75      -0.0000
     60  N        -46.3840   46.1280   42.0800 N.am   76  GLY76      -0.1942
     61  CA       -45.7730   45.4130   43.2360 C.3    76  GLY76       0.2014
     62  C        -44.3170   45.7900   43.3270 C.2    76  GLY76       0.2639
     63  O        -43.9900   46.9500   43.3560 O.2    76  GLY76      -0.2714
     64  N        -43.4070   44.8220   43.2860 N.am   77  ASN77      -0.1958
     65  CA       -41.9680   45.1590   43.3700 C.3    77  ASN77       0.1819
     66  C        -41.1590   44.0830   42.6240 C.2    77  ASN77       0.2621
     67  O        -41.6990   43.0860   42.2220 O.2    77  ASN77      -0.2715
     68  CB       -41.5300   45.2630   44.8700 C.3    77  ASN77       0.1195
     69  CG       -41.5620   43.9330   45.5230 C.2    77  ASN77       0.2630
     70  OD1      -40.6930   43.0950   45.2620 O.2    77  ASN77      -0.2716
     71  ND2      -42.5970   43.6650   46.2950 N.am   77  ASN77      -0.0877
     72  N        -39.8900   44.3810   42.3710 N.am   78  ILE78      -0.1963
     73  CA       -38.9200   43.4530   41.7730 C.3    78  ILE78       0.1727
     74  C        -37.7050   43.4550   42.6650 C.2    78  ILE78       0.2616
     75  O        -36.5980   43.5370   42.1810 O.2    78  ILE78      -0.2715
     76  CB       -38.4760   43.8450   40.3220 C.3    78  ILE78       0.0290
     77  CG1      -37.8390   45.2430   40.2480 C.3    78  ILE78       0.0022
     78  CG2      -39.6470   43.8300   39.3560 C.3    78  ILE78       0.0023
     79  CD1      -37.2050   45.5770   38.9020 C.3    78  ILE78       0.0001
     80  N        -37.9220   43.3960   43.9750 N.am   79  ASN79      -0.1972
     81  CA       -36.8280   43.3710   44.9370 C.3    79  ASN79       0.1688
     82  C        -36.0960   42.0400   44.8540 C.2    79  ASN79       0.2292
     83  O        -34.9240   41.9450   45.2330 O.2    79  ASN79      -0.2864
     84  CB       -37.3350   43.5400   46.3740 C.3    79  ASN79       0.1181
     85  CG       -37.9160   44.9030   46.6460 C.2    79  ASN79       0.2629
     86  OD1      -38.7450   45.0620   47.5730 O.2    79  ASN79      -0.2716
     87  ND2      -37.5260   45.8910   45.8680 N.am   79  ASN79      -0.0877
     88  N        -35.6350   38.4910   42.3000 N.3    81  LEU81      -0.1245
     89  CA       -35.9090   37.8140   41.0570 C.3    81  LEU81       0.1561
     90  C        -36.0730   36.3180   41.3260 C.2    81  LEU81       0.2260
     91  O        -35.5930   35.7930   42.3340 O.2    81  LEU81      -0.2867
     92  CB       -34.7930   38.1050   40.0580 C.3    81  LEU81       0.0270
     93  CG       -34.5850   39.6110   39.8140 C.3    81  LEU81       0.0019
     94  CD1      -33.4510   39.8310   38.8240 C.3    81  LEU81       0.0001
     95  CD2      -35.8370   40.3350   39.3240 C.3    81  LEU81       0.0001
     96  N        -45.8660   43.7170   30.9950 N.3   137  THR137     -0.1203
     97  CA       -45.1490   44.3390   32.0700 C.3   137  THR137      0.1994
     98  C        -45.8760   45.5720   32.5420 C.2   137  THR137      0.2617
     99  O        -45.8680   45.8970   33.7590 O.2   137  THR137     -0.2717
    100  CB       -43.7600   44.7100   31.6090 C.3   137  THR137      0.1784
    101  OG1      -43.1170   43.5660   31.0530 O.3   137  THR137     -0.2211
    102  CG2      -42.9220   45.2440   32.7750 C.3   137  THR137      0.0376
    103  N        -46.4860   46.2840   31.5930 N.am  138  LEU138     -0.1979
    104  CA       -47.0150   47.5980   31.9070 C.3   138  LEU138      0.1596
    105  C        -48.5340   47.6900   31.8280 C.2   138  LEU138      0.2287
    106  O        -49.1000   48.7000   32.2600 O.2   138  LEU138     -0.2864
    107  CB       -46.3660   48.6480   31.0040 C.3   138  LEU138      0.0297
    108  CG       -44.8620   48.8850   31.1940 C.3   138  LEU138      0.0022
    109  CD1      -44.3600   49.9250   30.1870 C.3   138  LEU138      0.0001
    110  CD2      -44.5810   49.3530   32.6200 C.3   138  LEU138      0.0001
@<TRIPOS>BOND
     1   109   108    1
     2    96    97    1
     3   107   108    1
     4   107   104    1
     5   101   100    1
     6   108   110    1
     7   103   104    1
     8   103    98   am
     9   100    97    1
    10   100   102    1
    11   105   104    1
    12   105   106    2
    13    19    18    1
    14    97    98    1
    15    98    99    2
    16    18    16   ar
    17    18    17   ar
    18    16    14   ar
    19    17    15   ar
    20     7     5    1
    21    14    13   ar
    22     5     6    1
    23     5     2    1
    24    15    13   ar
    25    13    12    1
    26    59    58   ar
    27    59    57   ar
    28    58    56   ar
    29     1     2    1
    30     2     3    1
    31    57    55   ar
    32    27    25    1
    33     8     3   am
    34     8     9    1
    35    12     9    1
    36     3     4    2
    37    56    54   ar
    38     9    10    1
    39    10    11    2
    40    55    54   ar
    41    25    24    1
    42    25    26    1
    43    54    53    1
    44    24    21    1
    45    94    93    1
    46    79    77    1
    47    95    93    1
    48    78    76    1
    49    93    92    1
    50    92    89    1
    51    53    50    1
    52    21    22    1
    53    21    20    1
    54    22    23    2
    55    77    76    1
    56    76    73    1
    57    50    49    1
    58    50    51    1
    59    89    90    1
    60    89    88    1
    61    90    91    2
    62    73    72    1
    63    73    74    1
    64    60    51   am
    65    60    61    1
    66    75    74    2
    67    51    52    2
    68    67    66    2
    69    72    66   am
    70    66    65    1
    71    74    80   am
    72    47    46    2
    73    48    46   am
    74    61    62    1
    75    64    62   am
    76    64    65    1
    77    62    63    2
    78    65    68    1
    79    46    45    1
    80    80    81    1
    81    82    81    1
    82    82    83    2
    83    68    69    1
    84    81    84    1
    85    45    42    1
    86    44    43    2
    87    43    42    1
    88    70    69    2
    89    41    42    1
    90    41    39   am
    91    69    71   am
    92    87    85   am
    93    38    39    1
    94    38    37    1
    95    84    85    1
    96    39    40    2
    97    85    86    2
    98    31    30    2
    99    37    30   am
   100    30    29    1
   101    28    29    1
   102    29    32    1
   103    32    33    1
   104    33    34    1
   105    34    36   ar
   106    34    35   ar
