@<TRIPOS>MOLECULE
tmp/4nh2F00.pdb
 95 92 0 0 0
SMALL
GASTEIGER

@<TRIPOS>ATOM
      1  N        -67.0870  -23.4480   37.1050 N.3    62  TYR62      -0.1241
      2  CA       -68.3600  -23.2540   37.7800 C.3    62  TYR62       0.1605
      3  C        -69.3020  -24.4770   37.8010 C.2    62  TYR62       0.2264
      4  O        -70.1780  -24.5430   38.6660 O.2    62  TYR62      -0.2867
      5  CB       -69.1400  -22.0640   37.1720 C.3    62  TYR62       0.0534
      6  CG       -69.6430  -22.3180   35.7610 C.ar   62  TYR62      -0.0201
      7  CD1      -70.8610  -22.9450   35.5390 C.ar   62  TYR62      -0.0009
      8  CD2      -68.8650  -21.9950   34.6510 C.ar   62  TYR62      -0.0009
      9  CE1      -71.2880  -23.2090   34.2570 C.ar   62  TYR62       0.0417
     10  CE2      -69.3040  -22.2450   33.3710 C.ar   62  TYR62       0.0417
     11  CZ       -70.5000  -22.8730   33.1790 C.ar   62  TYR62       0.1957
     12  OH       -70.9790  -23.0690   31.8980 O.3    62  TYR62      -0.2866
     13  N        -72.2910  -25.5200   40.5360 N.3    66  LEU66      -0.1245
     14  CA       -73.6720  -25.2410   40.1620 C.3    66  LEU66       0.1561
     15  C        -74.5050  -26.5240   40.1440 C.2    66  LEU66       0.2260
     16  O        -75.7230  -26.4980   40.2590 O.2    66  LEU66      -0.2867
     17  CB       -73.6840  -24.5280   38.8000 C.3    66  LEU66       0.0270
     18  CG       -74.9650  -23.8260   38.4100 C.3    66  LEU66       0.0019
     19  CD1      -75.3870  -22.8070   39.4600 C.3    66  LEU66       0.0001
     20  CD2      -74.7500  -23.1690   37.0570 C.3    66  LEU66       0.0001
     21  N        -74.8000  -26.2110   47.5820 N.3    70  GLU70      -0.1231
     22  CA       -76.0660  -25.8240   48.1500 C.3    70  GLU70       0.1699
     23  C        -76.7380  -24.7830   47.3000 C.2    70  GLU70       0.2593
     24  O        -76.1300  -23.7780   46.9610 O.2    70  GLU70      -0.2718
     25  CB       -75.8030  -25.2080   49.5340 C.3    70  GLU70       0.0402
     26  CG       -75.6920  -26.2450   50.6430 C.3    70  GLU70       0.1161
     27  CD       -76.9590  -26.3270   51.4870 C.2    70  GLU70       0.3649
     28  OE1      -77.4290  -25.2930   52.0000 O.co2  70  GLU70      -0.2457
     29  OE2      -77.5070  -27.4280   51.6160 O.co2  70  GLU70      -0.2457
     30  N        -77.9960  -25.0040   46.9660 N.am   71  GLY71      -0.1942
     31  CA       -78.7190  -24.0110   46.2210 C.3    71  GLY71       0.2014
     32  C        -80.2010  -24.1240   46.5330 C.2    71  GLY71       0.2638
     33  O        -80.5970  -24.0160   47.6880 O.2    71  GLY71      -0.2714
     34  N        -80.9640  -24.3070   45.4670 N.am   72  ASN72      -0.1972
     35  CA       -82.3890  -24.5990   45.3430 C.3    72  ASN72       0.1688
     36  C        -82.7160  -25.9970   45.2770 C.2    72  ASN72       0.2292
     37  O        -81.8480  -26.7910   45.2350 O.2    72  ASN72      -0.2864
     38  CB       -82.7050  -24.2610   43.9100 C.3    72  ASN72       0.1181
     39  CG       -82.8330  -22.9100   43.6990 C.2    72  ASN72       0.2629
     40  OD1      -83.3730  -22.3540   44.5580 O.2    72  ASN72      -0.2716
     41  ND2      -82.5630  -22.3990   42.4970 N.am   72  ASN72      -0.0877
     42  N        -80.8540  -25.6430   41.1350 N.3    75  PHE75      -0.1227
     43  CA       -79.4500  -25.2990   40.9040 C.3    75  PHE75       0.1736
     44  C        -78.6880  -25.2310   42.2280 C.2    75  PHE75       0.2596
     45  O        -79.2610  -25.0170   43.2960 O.2    75  PHE75      -0.2718
     46  CB       -79.3360  -23.9350   40.2020 C.3    75  PHE75       0.0547
     47  CG       -79.7930  -23.9190   38.7350 C.ar   75  PHE75      -0.0202
     48  CD1      -81.1270  -23.6950   38.3970 C.ar   75  PHE75      -0.0042
     49  CD2      -78.8580  -24.0160   37.7000 C.ar   75  PHE75      -0.0042
     50  CE1      -81.5250  -23.6600   37.0650 C.ar   75  PHE75      -0.0003
     51  CE2      -79.2530  -23.9760   36.3810 C.ar   75  PHE75      -0.0003
     52  CZ       -80.5980  -23.8210   36.0560 C.ar   75  PHE75      -0.0000
     53  N        -77.3720  -25.3890   42.1330 N.am   76  GLY76      -0.1942
     54  CA       -76.4430  -25.2050   43.2620 C.3    76  GLY76       0.2014
     55  C        -76.0620  -23.7400   43.3080 C.2    76  GLY76       0.2639
     56  O        -76.9000  -22.8910   43.3850 O.2    76  GLY76      -0.2714
     57  N        -74.7810  -23.4370   43.2840 N.am   77  ASN77      -0.1958
     58  CA       -74.3590  -22.0500   43.3770 C.3    77  ASN77       0.1819
     59  C        -73.0730  -21.8930   42.6170 C.2    77  ASN77       0.2621
     60  O        -72.4370  -22.8680   42.2630 O.2    77  ASN77      -0.2715
     61  CB       -74.2170  -21.6410   44.8840 C.3    77  ASN77       0.1195
     62  CG       -73.0730  -22.3510   45.5500 C.2    77  ASN77       0.2630
     63  OD1      -71.9280  -22.0010   45.3170 O.2    77  ASN77      -0.2716
     64  ND2      -73.3610  -23.3660   46.3270 N.am   77  ASN77      -0.0877
     65  N        -72.7220  -20.6550   42.3520 N.am   78  ILE78      -0.1963
     66  CA       -71.4030  -20.2910   41.8100 C.3    78  ILE78       0.1727
     67  C        -70.7880  -19.2520   42.7320 C.2    78  ILE78       0.2616
     68  O        -70.2800  -18.2490   42.2520 O.2    78  ILE78      -0.2715
     69  CB       -71.4740  -19.6740   40.3750 C.3    78  ILE78       0.0290
     70  CG1      -72.3770  -18.4220   40.3270 C.3    78  ILE78       0.0022
     71  CG2      -72.0460  -20.6840   39.3950 C.3    78  ILE78       0.0023
     72  CD1      -72.3760  -17.6890   38.9860 C.3    78  ILE78       0.0001
     73  N        -70.8300  -19.4850   44.0530 N.am   79  ASN79      -0.1972
     74  CA       -70.2440  -18.5260   45.0250 C.3    79  ASN79       0.1688
     75  C        -68.7250  -18.5390   44.9320 C.2    79  ASN79       0.2292
     76  O        -68.0670  -17.5820   45.3000 O.2    79  ASN79      -0.2864
     77  CB       -70.6440  -18.8840   46.4680 C.3    79  ASN79       0.1181
     78  CG       -72.1280  -18.7110   46.7530 C.2    79  ASN79       0.2629
     79  OD1      -72.6730  -19.3490   47.6570 O.2    79  ASN79      -0.2716
     80  ND2      -72.7880  -17.8790   45.9900 N.am   79  ASN79      -0.0877
     81  N        -74.9910  -26.0860   31.0010 N.3   137  THR137     -0.1203
     82  CA       -75.2310  -25.1340   32.0900 C.3   137  THR137      0.1994
     83  C        -76.6550  -25.1670   32.5780 C.2   137  THR137      0.2617
     84  O        -76.9210  -25.0190   33.7950 O.2   137  THR137     -0.2717
     85  CB       -74.8680  -23.7190   31.6410 C.3   137  THR137      0.1784
     86  OG1      -73.5610  -23.7480   31.0710 O.3   137  THR137     -0.2211
     87  CG2      -74.8920  -22.7530   32.7970 C.3   137  THR137      0.0376
     88  N        -77.5790  -25.3370   31.6270 N.am  138  LEU138     -0.1979
     89  CA       -78.9780  -25.1460   31.9380 C.3   138  LEU138      0.1596
     90  C        -79.7940  -26.4240   31.8700 C.2   138  LEU138      0.2287
     91  O        -80.9560  -26.4240   32.2880 O.2   138  LEU138     -0.2864
     92  CB       -79.5620  -24.0760   31.0340 C.3   138  LEU138      0.0297
     93  CG       -79.0230  -22.6570   31.2400 C.3   138  LEU138      0.0022
     94  CD1      -79.6580  -21.6980   30.2390 C.3   138  LEU138      0.0001
     95  CD2      -79.2880  -22.1930   32.6570 C.3   138  LEU138      0.0001
@<TRIPOS>BOND
     1    94    93    1
     2    81    82    1
     3    92    93    1
     4    92    89    1
     5    86    85    1
     6    93    95    1
     7    88    89    1
     8    88    83   am
     9    85    82    1
    10    85    87    1
    11    90    89    1
    12    90    91    2
    13    12    11    1
    14    82    83    1
    15    83    84    2
    16    11    10   ar
    17    11     9   ar
    18    10     8   ar
    19     9     7   ar
    20     8     6   ar
    21     7     6   ar
    22     6     5    1
    23    52    51   ar
    24    52    50   ar
    25    51    49   ar
    26    20    18    1
    27    50    48   ar
    28     1     2    1
    29     5     2    1
    30    49    47   ar
    31     2     3    1
    32     3     4    2
    33    48    47   ar
    34    18    17    1
    35    18    19    1
    36    47    46    1
    37    17    14    1
    38    72    70    1
    39    71    69    1
    40    15    14    1
    41    15    16    2
    42    14    13    1
    43    46    43    1
    44    70    69    1
    45    69    66    1
    46    43    42    1
    47    43    44    1
    48    66    65    1
    49    66    67    1
    50    53    44   am
    51    53    54    1
    52    44    45    2
    53    68    67    2
    54    60    59    2
    55    65    59   am
    56    41    39   am
    57    59    58    1
    58    67    73   am
    59    54    55    1
    60    57    55   am
    61    57    58    1
    62    55    56    2
    63    58    61    1
    64    39    38    1
    65    39    40    2
    66    38    35    1
    67    73    74    1
    68    61    62    1
    69    75    74    1
    70    75    76    2
    71    74    77    1
    72    37    36    2
    73    36    35    1
    74    63    62    2
    75    35    34    1
    76    34    32   am
    77    62    64   am
    78    80    78   am
    79    31    32    1
    80    31    30    1
    81    77    78    1
    82    32    33    2
    83    78    79    2
    84    24    23    2
    85    30    23   am
    86    23    22    1
    87    21    22    1
    88    22    25    1
    89    25    26    1
    90    26    27    1
    91    27    29   ar
    92    27    28   ar
