@<TRIPOS>MOLECULE
tmp/4nh2B00.pdb
 76 73 0 0 0
SMALL
GASTEIGER

@<TRIPOS>ATOM
      1  N        -86.4140   17.0790   40.5060 N.3    66  LEU66      -0.1245
      2  CA       -87.3210   15.9960   40.1260 C.3    66  LEU66       0.1561
      3  C        -86.6210   14.6220   40.1320 C.2    66  LEU66       0.2260
      4  O        -87.2690   13.5620   40.2260 O.2    66  LEU66      -0.2867
      5  CB       -87.9210   16.3120   38.7740 C.3    66  LEU66       0.0270
      6  CG       -89.1690   15.5510   38.3780 C.3    66  LEU66       0.0019
      7  CD1      -90.2770   15.7150   39.4160 C.3    66  LEU66       0.0001
      8  CD2      -89.6250   16.0630   37.0270 C.3    66  LEU66       0.0001
      9  N        -87.0060   14.5010   47.6020 N.3    70  GLU70      -0.1231
     10  CA       -87.9830   13.5770   48.1650 C.3    70  GLU70       0.1699
     11  C        -89.2820   13.5460   47.2990 C.2    70  GLU70       0.2593
     12  O        -89.8220   14.5720   46.9020 O.2    70  GLU70      -0.2718
     13  CB       -88.3130   13.8910   49.6650 C.3    70  GLU70       0.0402
     14  CG       -87.8380   12.8450   50.6840 C.3    70  GLU70       0.1161
     15  CD       -88.9110   11.8050   50.9930 C.2    70  GLU70       0.3649
     16  OE1      -90.0420   12.1820   51.3800 O.co2  70  GLU70      -0.2457
     17  OE2      -88.6230   10.6030   50.8490 O.co2  70  GLU70      -0.2457
     18  N        -89.7470   12.3490   46.9730 N.am   71  GLY71      -0.1942
     19  CA       -90.9350   12.2440   46.1880 C.3    71  GLY71       0.2014
     20  C        -91.6070   10.9390   46.5090 C.2    71  GLY71       0.2638
     21  O        -91.9050   10.6520   47.6600 O.2    71  GLY71      -0.2714
     22  N        -91.8570   10.1520   45.4750 N.am   72  ASN72      -0.1972
     23  CA       -92.3740    8.7960   45.6700 C.3    72  ASN72       0.1688
     24  C        -91.2880    7.7870   45.2210 C.2    72  ASN72       0.2292
     25  O        -90.1170    8.1200   45.1950 O.2    72  ASN72      -0.2864
     26  CB       -93.7580    8.6270   45.0000 C.3    72  ASN72       0.1181
     27  CG       -93.7870    9.0480   43.5120 C.2    72  ASN72       0.2629
     28  OD1      -92.9730    8.6150   42.6900 O.2    72  ASN72      -0.2716
     29  ND2      -94.7630    9.9110   43.1620 N.am   72  ASN72      -0.0877
     30  N        -90.6100    9.5770   41.0970 N.3    75  PHE75      -0.1227
     31  CA       -90.1870   10.9250   40.8540 C.3    75  PHE75       0.1736
     32  C        -89.8270   11.6120   42.1920 C.2    75  PHE75       0.2596
     33  O        -90.3290   11.2220   43.2690 O.2    75  PHE75      -0.2718
     34  CB       -91.2830   11.6940   40.1490 C.3    75  PHE75       0.0547
     35  CG       -91.5000   11.3110   38.6760 C.ar   75  PHE75      -0.0202
     36  CD1      -92.3350   10.2490   38.3350 C.ar   75  PHE75      -0.0042
     37  CD2      -90.9530   12.0730   37.6590 C.ar   75  PHE75      -0.0042
     38  CE1      -92.5750    9.9260   37.0130 C.ar   75  PHE75      -0.0003
     39  CE2      -91.1790   11.7590   36.3340 C.ar   75  PHE75      -0.0003
     40  CZ       -91.9800   10.6680   36.0050 C.ar   75  PHE75      -0.0000
     41  N        -88.9830   12.6670   42.1090 N.am   76  GLY76      -0.1942
     42  CA       -88.7210   13.5620   43.2380 C.3    76  GLY76       0.2014
     43  C        -89.8100   14.6280   43.3200 C.2    76  GLY76       0.2639
     44  O        -90.9800   14.3240   43.3420 O.2    76  GLY76      -0.2714
     45  N        -89.4450   15.8990   43.2800 N.am   77  ASN77      -0.1958
     46  CA       -90.4490   16.9680   43.3490 C.3    77  ASN77       0.1819
     47  C        -89.9330   18.2010   42.5750 C.2    77  ASN77       0.2621
     48  O        -88.7780   18.2570   42.2260 O.2    77  ASN77      -0.2715
     49  CB       -90.7720   17.3000   44.8480 C.3    77  ASN77       0.1195
     50  CG       -89.6330   17.9520   45.5400 C.2    77  ASN77       0.2630
     51  OD1      -89.3260   19.1030   45.2700 O.2    77  ASN77      -0.2716
     52  ND2      -88.8840   17.1850   46.3210 N.am   77  ASN77      -0.0877
     53  N        -90.8230   19.1450   42.3160 N.am   78  ILE78      -0.1963
     54  CA       -90.4960   20.4580   41.7540 C.3    78  ILE78       0.1727
     55  C        -91.1110   21.4790   42.6700 C.2    78  ILE78       0.2616
     56  O        -91.7050   22.4370   42.1910 O.2    78  ILE78      -0.2715
     57  CB       -91.0360   20.6830   40.3150 C.3    78  ILE78       0.0290
     58  CG1      -92.5530   20.5180   40.2410 C.3    78  ILE78       0.0022
     59  CG2      -90.4370   19.6730   39.3540 C.3    78  ILE78       0.0023
     60  CD1      -93.1640   20.8800   38.8870 C.3    78  ILE78       0.0001
     61  N        -90.9390   21.3020   43.9880 N.am   79  ASN79      -0.1972
     62  CA       -91.4470   22.2780   44.9890 C.3    79  ASN79       0.1688
     63  C        -90.6470   23.5830   44.9420 C.2    79  ASN79       0.2292
     64  O        -91.1800   24.6600   45.2890 O.2    79  ASN79      -0.2864
     65  CB       -91.3510   21.7470   46.4220 C.3    79  ASN79       0.1181
     66  CG       -92.2500   20.5620   46.6780 C.2    79  ASN79       0.2629
     67  OD1      -92.0030   19.7700   47.5890 O.2    79  ASN79      -0.2716
     68  ND2      -93.2910   20.4170   45.8840 N.am   79  ASN79      -0.0877
     69  N        -89.2040   12.5550   31.6040 N.3   138  LEU138     -0.1245
     70  CA       -90.0430   11.4120   31.9180 C.3   138  LEU138      0.1561
     71  C        -89.3550   10.0750   31.8570 C.2   138  LEU138      0.2260
     72  O        -89.9300    9.0670   32.2830 O.2   138  LEU138     -0.2867
     73  CB       -91.2600   11.4420   31.0210 C.3   138  LEU138      0.0270
     74  CG       -92.2030   12.6410   31.2250 C.3   138  LEU138      0.0019
     75  CD1      -93.3500   12.5690   30.2210 C.3   138  LEU138      0.0001
     76  CD2      -92.7360   12.6550   32.6440 C.3   138  LEU138      0.0001
@<TRIPOS>BOND
     1    75    74    1
     2    73    74    1
     3    73    70    1
     4    74    76    1
     5    69    70    1
     6    71    70    1
     7    71    72    2
     8    40    39   ar
     9    40    38   ar
    10    39    37   ar
    11    38    36   ar
    12     8     6    1
    13    37    35   ar
    14    36    35   ar
    15     6     5    1
    16     6     7    1
    17    35    34    1
    18     5     2    1
    19    60    58    1
    20    59    57    1
    21     2     3    1
    22     2     1    1
    23     3     4    2
    24    34    31    1
    25    58    57    1
    26    57    54    1
    27    31    30    1
    28    31    32    1
    29    54    53    1
    30    54    55    1
    31    41    32   am
    32    41    42    1
    33    56    55    2
    34    32    33    2
    35    48    47    2
    36    53    47   am
    37    47    46    1
    38    55    61   am
    39    28    27    2
    40    29    27   am
    41    42    43    1
    42    45    43   am
    43    45    46    1
    44    43    44    2
    45    46    49    1
    46    27    26    1
    47    61    62    1
    48    49    50    1
    49    63    62    1
    50    63    64    2
    51    62    65    1
    52    26    23    1
    53    25    24    2
    54    24    23    1
    55    51    50    2
    56    22    23    1
    57    22    20   am
    58    50    52   am
    59    68    66   am
    60    19    20    1
    61    19    18    1
    62    65    66    1
    63    20    21    2
    64    66    67    2
    65    12    11    2
    66    18    11   am
    67    11    10    1
    68     9    10    1
    69    10    13    1
    70    13    14    1
    71    14    15    1
    72    17    15   ar
    73    15    16   ar
