@<TRIPOS>MOLECULE
tmp/4nh7B00.pdb
 182 170 0 0 0
SMALL
GASTEIGER

@<TRIPOS>ATOM
      1  N         31.8980  -11.1390    3.9820 N.3    10  ILE10      -0.1245
      2  CA        31.2370  -11.9120    5.0410 C.3    10  ILE10       0.1561
      3  C         31.9210  -13.2780    5.1570 C.2    10  ILE10       0.2260
      4  O         32.2430  -13.6620    6.2760 O.2    10  ILE10      -0.2867
      5  CB        29.7150  -11.9840    4.8190 C.3    10  ILE10       0.0252
      6  CG1       29.0850  -10.5600    4.6820 C.3    10  ILE10       0.0019
      7  CG2       29.0100  -12.8560    5.9090 C.3    10  ILE10       0.0019
      8  CD1       28.7240   -9.8020    5.8950 C.3    10  ILE10       0.0001
      9  N         24.2390  -11.6970   20.2840 N.3    32  LEU32      -0.1245
     10  CA        22.9680  -12.2690   19.8290 C.3    32  LEU32       0.1561
     11  C         21.7930  -11.7140   20.5950 C.2    32  LEU32       0.2260
     12  O         20.7530  -11.4600   19.9970 O.2    32  LEU32      -0.2867
     13  CB        23.0200  -13.8010   19.8700 C.3    32  LEU32       0.0270
     14  CG        24.0250  -14.4660   18.9250 C.3    32  LEU32       0.0019
     15  CD1       24.1410  -15.9510   19.2120 C.3    32  LEU32       0.0001
     16  CD2       23.6840  -14.2390   17.4230 C.3    32  LEU32       0.0001
     17  N         21.0930   -8.3350   19.1970 N.3    35  ASN35      -0.1225
     18  CA        20.3490   -8.4760   17.9120 C.3    35  ASN35       0.1785
     19  C         18.8750   -8.6660   18.2910 C.2    35  ASN35       0.2597
     20  O         18.0100   -7.9750   17.7390 O.2    35  ASN35      -0.2718
     21  CB        20.7980   -9.7000   17.1120 C.3    35  ASN35       0.1169
     22  CG        22.1420   -9.6300   16.4610 C.2    35  ASN35       0.2627
     23  OD1       22.7440   -8.5840   16.2540 O.2    35  ASN35      -0.2716
     24  ND2       22.6340  -10.7850   16.1150 N.am   35  ASN35      -0.0877
     25  N         18.5840   -9.5830   19.2640 N.am   36  SER36      -0.1952
     26  CA        17.1990   -9.8000   19.7240 C.3    36  SER36       0.1924
     27  C         16.5550   -8.4870   20.2770 C.2    36  SER36       0.2314
     28  O         15.4080   -8.1880   19.9530 O.2    36  SER36      -0.2863
     29  CB        17.1390  -10.8980   20.7730 C.3    36  SER36       0.2116
     30  OG        17.3650  -12.1700   20.1820 O.3    36  SER36      -0.2180
     31  N         17.3980   -5.2850   19.5400 N.3    38  ASP38      -0.1225
     32  CA        17.1810   -4.3380   18.4320 C.3    38  ASP38       0.1805
     33  C         15.9150   -4.7330   17.6800 C.2    38  ASP38       0.2597
     34  O         15.1610   -3.8440   17.2540 O.2    38  ASP38      -0.2718
     35  CB        18.3820   -4.3540   17.4660 C.3    38  ASP38       0.1424
     36  CG        19.6650   -3.7360   18.0370 C.2    38  ASP38       0.3668
     37  OD1       19.5930   -3.0590   19.1020 O.co2  38  ASP38      -0.2456
     38  OD2       20.7090   -3.8890   17.4130 O.co2  38  ASP38      -0.2456
     39  N         15.6810   -6.0630   17.5220 N.am   39  ALA39      -0.1979
     40  CA        14.4900   -6.6210   16.8000 C.3    39  ALA39       0.1597
     41  C         13.2080   -6.2860   17.5550 C.2    39  ALA39       0.2287
     42  O         12.1850   -6.0020   16.9430 O.2    39  ALA39      -0.2864
     43  CB        14.6180   -8.1400   16.6840 C.3    39  ALA39       0.0319
     44  N         12.4660   -2.4440   17.4230 N.3    42  LYS42      -0.1245
     45  CA        11.8600   -2.1590   16.0920 C.3    42  LYS42       0.1561
     46  C         10.3980   -2.5530   16.0100 C.2    42  LYS42       0.2260
     47  O          9.6070   -1.7520   15.5520 O.2    42  LYS42      -0.2867
     48  CB        12.6660   -2.8300   14.9730 C.3    42  LYS42       0.0271
     49  CG        12.2870   -2.2660   13.5970 C.3    42  LYS42       0.0035
     50  CD        13.2840   -2.6830   12.4990 C.3    42  LYS42       0.0206
     51  CE        12.9270   -2.0310   11.1670 C.3    42  LYS42       0.1093
     52  NZ        13.9770   -2.2820   10.1500 N.3    42  LYS42      -0.1314
     53  N         13.3750  -14.8200   20.4230 N.3    77  ASP77      -0.1239
     54  CA        12.8340  -13.4940   20.7200 C.3    77  ASP77       0.1674
     55  C         11.5400  -13.3770   19.9910 C.2    77  ASP77       0.2266
     56  O         11.2840  -14.1270   19.0480 O.2    77  ASP77      -0.2867
     57  CB        13.8010  -12.3390   20.3420 C.3    77  ASP77       0.1410
     58  CG        14.1000  -12.2120   18.8490 C.2    77  ASP77       0.3668
     59  OD1       13.1580  -11.8990   18.0720 O.co2  77  ASP77      -0.2456
     60  OD2       15.2650  -12.3960   18.4700 O.co2  77  ASP77      -0.2456
     61  N         10.7870   -8.2020   15.5670 N.3    80  ILE80      -0.1231
     62  CA        10.2770   -7.9230   14.2150 C.3    80  ILE80       0.1692
     63  C         10.3890   -9.1730   13.2680 C.2    80  ILE80       0.2593
     64  O          9.5550   -9.3290   12.3820 O.2    80  ILE80      -0.2718
     65  CB        10.9990   -6.6320   13.6450 C.3    80  ILE80       0.0266
     66  CG1       10.3910   -6.1520   12.3030 C.3    80  ILE80       0.0019
     67  CG2       12.5660   -6.7550   13.5330 C.3    80  ILE80       0.0020
     68  CD1        9.4470   -5.0520   12.4170 C.3    80  ILE80       0.0001
     69  N         11.4120  -10.0200   13.4570 N.am   81  GLY81      -0.1942
     70  CA        11.6100  -11.1750   12.5640 C.3    81  GLY81       0.2014
     71  C         12.2480  -10.6880   11.2700 C.2    81  GLY81       0.2638
     72  O         12.4240   -9.4710   11.0620 O.2    81  GLY81      -0.2714
     73  N         12.6510  -11.6310   10.3910 N.am   82  MET82      -0.1976
     74  CA        13.2900  -11.3190    9.1080 C.3    82  MET82       0.1605
     75  C         12.5430  -11.9030    7.9230 C.2    82  MET82       0.2287
     76  O         12.0590  -13.0290    7.9820 O.2    82  MET82      -0.2864
     77  CB        14.7810  -11.7240    9.0980 C.3    82  MET82       0.0413
     78  CG        15.6310  -10.9300   10.0840 C.3    82  MET82       0.0598
     79  SD        17.2410  -11.6320   10.4460 S.3    82  MET82      -0.1393
     80  CE        16.7650  -12.9940   11.4680 C.3    82  MET82       0.0692
     81  N         15.4950  -10.2400    3.5160 N.3    86  ASP86      -0.1225
     82  CA        16.4340   -9.8960    4.6110 C.3    86  ASP86       0.1805
     83  C         17.4820  -10.9860    4.7440 C.2    86  ASP86       0.2597
     84  O         18.6460  -10.6780    4.9250 O.2    86  ASP86      -0.2718
     85  CB        15.7060   -9.8260    5.9770 C.3    86  ASP86       0.1424
     86  CG        14.9330   -8.5690    6.2560 C.2    86  ASP86       0.3668
     87  OD1       15.3090   -7.5130    5.7150 O.co2  86  ASP86      -0.2456
     88  OD2       13.9560   -8.6370    7.0510 O.co2  86  ASP86      -0.2456
     89  N         17.0510  -12.2600    4.7050 N.am   87  LEU87      -0.1979
     90  CA        17.9170  -13.4370    4.8490 C.3    87  LEU87       0.1596
     91  C         18.8840  -13.6370    3.7010 C.2    87  LEU87       0.2287
     92  O         20.0560  -13.9360    3.9290 O.2    87  LEU87      -0.2864
     93  CB        17.0720  -14.7360    5.0500 C.3    87  LEU87       0.0297
     94  CG        16.1790  -14.8350    6.2960 C.3    87  LEU87       0.0022
     95  CD1       15.3030  -16.1100    6.2200 C.3    87  LEU87       0.0001
     96  CD2       17.0000  -14.7580    7.6290 C.3    87  LEU87       0.0001
     97  N         20.1940   -7.7980    4.5390 N.3    91  LEU91      -0.1231
     98  CA        20.9750   -7.5650    5.7790 C.3    91  LEU91       0.1693
     99  C         22.4510   -7.5740    5.4810 C.2    91  LEU91       0.2592
    100  O         23.1390   -6.6840    5.9390 O.2    91  LEU91      -0.2718
    101  CB        20.5790   -8.4810    6.9200 C.3    91  LEU91       0.0284
    102  CG        19.1040   -8.3280    7.4030 C.3    91  LEU91       0.0019
    103  CD1       18.8240   -9.2920    8.5190 C.3    91  LEU91       0.0001
    104  CD2       18.7910   -6.9140    7.8680 C.3    91  LEU91       0.0001
    105  N         22.8800   -8.5200    4.6350 N.am   92  GLY92      -0.1957
    106  CA        24.2320   -8.6680    4.1000 C.3    92  GLY92       0.1869
    107  C         24.6900   -7.4240    3.3570 C.2    92  GLY92       0.2309
    108  O         25.8350   -6.9930    3.5230 O.2    92  GLY92      -0.2863
    109  N         25.4240   -4.6300    5.8910 N.3    95  ALA95      -0.1245
    110  CA        26.5660   -5.1070    6.6680 C.3    95  ALA95       0.1562
    111  C         27.9580   -5.0900    5.9380 C.2    95  ALA95       0.2260
    112  O         28.9670   -5.1280    6.6460 O.2    95  ALA95      -0.2867
    113  CB        26.2630   -6.5080    7.1840 C.3    95  ALA95       0.0290
    114  N         28.1870   -3.5500   13.6160 N.3   116  GLY116     -0.1210
    115  CA        26.8580   -4.0540   13.2810 C.3   116  GLY116      0.1956
    116  C         26.8130   -5.4840   12.7490 C.2   116  GLY116      0.2611
    117  O         25.8050   -5.8830   12.1660 O.2   116  GLY116     -0.2717
    118  N         27.8820   -6.2750   12.9570 N.am  117  VAL117     -0.1979
    119  CA        27.9430   -7.6650   12.4380 C.3   117  VAL117      0.1595
    120  C         28.1230   -8.6890   13.5500 C.2   117  VAL117      0.2287
    121  O         28.6180   -9.7910   13.3130 O.2   117  VAL117     -0.2864
    122  CB        28.9990   -7.8230   11.3030 C.3   117  VAL117      0.0276
    123  CG1       28.5310   -7.1610   10.0130 C.3   117  VAL117      0.0022
    124  CG2       30.4000   -7.3410   11.7160 C.3   117  VAL117      0.0022
    125  N         26.1390  -10.6940   14.8900 N.3   119  PHE119     -0.1227
    126  CA        25.5040  -11.9910   14.6310 C.3   119  PHE119      0.1736
    127  C         26.5720  -13.0520   14.3070 C.2   119  PHE119      0.2595
    128  O         26.4390  -14.1790   14.7670 O.2   119  PHE119     -0.2718
    129  CB        24.4630  -11.9340   13.4570 C.3   119  PHE119      0.0547
    130  CG        24.0660  -13.3280   12.9940 C.ar  119  PHE119     -0.0202
    131  CD1       23.1820  -14.1050   13.7440 C.ar  119  PHE119     -0.0042
    132  CD2       24.6540  -13.8980   11.8610 C.ar  119  PHE119     -0.0042
    133  CE1       22.8730  -15.4230   13.3550 C.ar  119  PHE119     -0.0003
    134  CE2       24.3580  -15.2130   11.4800 C.ar  119  PHE119     -0.0003
    135  CZ        23.4580  -15.9620   12.2230 C.ar  119  PHE119     -0.0000
    136  N         27.6260  -12.6790   13.5290 N.am  120  TYR120     -0.1976
    137  CA        28.6550  -13.6360   13.0940 C.3   120  TYR120      0.1639
    138  C         29.5410  -14.1060   14.2660 C.2   120  TYR120      0.2290
    139  O         30.1480  -15.1770   14.0940 O.2   120  TYR120     -0.2864
    140  CB        29.4750  -13.1380   11.8550 C.3   120  TYR120      0.0560
    141  CG        28.5780  -13.1180   10.6330 C.ar  120  TYR120     -0.0198
    142  CD1       28.2430  -14.2990    9.9770 C.ar  120  TYR120     -0.0009
    143  CD2       27.9440  -11.9430   10.2250 C.ar  120  TYR120     -0.0009
    144  CE1       27.3460  -14.3080    8.9060 C.ar  120  TYR120      0.0417
    145  CE2       27.0400  -11.9410    9.1590 C.ar  120  TYR120      0.0417
    146  CZ        26.7490  -13.1320    8.5010 C.ar  120  TYR120      0.1957
    147  OH        25.8940  -13.2090    7.4280 O.3   120  TYR120     -0.2866
    148  N         18.7810  -20.3820   11.7960 N.3   131  VAL131     -0.1245
    149  CA        17.9820  -19.2200   12.1600 C.3   131  VAL131      0.1561
    150  C         16.5580  -19.4910   11.6590 C.2   131  VAL131      0.2260
    151  O         16.3700  -19.6050   10.4460 O.2   131  VAL131     -0.2867
    152  CB        18.5920  -17.9000   11.6190 C.3   131  VAL131      0.0252
    153  CG1       17.6330  -16.7330   11.7960 C.3   131  VAL131      0.0019
    154  CG2       19.9570  -17.6140   12.2740 C.3   131  VAL131      0.0019
    155  N         17.0580  -20.4700    7.8280 N.3   143  TRP143     -0.1241
    156  CA        18.3330  -20.0530    7.2230 C.3   143  TRP143      0.1605
    157  C         19.3250  -20.9210    7.9540 C.2   143  TRP143      0.2264
    158  O         19.1810  -21.1470    9.1550 O.2   143  TRP143     -0.2867
    159  CB        18.6420  -18.5510    7.4820 C.3   143  TRP143      0.0550
    160  CG        20.0330  -18.0150    7.1090 C.ar  143  TRP143      0.0003
    161  CD1       20.3170  -17.2010    6.0550 C.ar  143  TRP143      0.0946
    162  CD2       21.2720  -18.1510    7.8440 C.ar  143  TRP143      0.0152
    163  NE1       21.6450  -16.8770    6.0460 N.ar  143  TRP143     -0.2442
    164  CE2       22.2600  -17.4470    7.1260 C.ar  143  TRP143      0.0810
    165  CE3       21.6430  -18.7870    9.0480 C.ar  143  TRP143      0.0012
    166  CZ2       23.5970  -17.3310    7.5770 C.ar  143  TRP143      0.0191
    167  CZ3       22.9840  -18.7270    9.4580 C.ar  143  TRP143      0.0001
    168  CH2       23.9340  -17.9800    8.7390 C.ar  143  TRP143      0.0015
    169  N         12.3220  -14.4230   16.0340 N.3   165  THR165     -0.1218
    170  CA        13.4700  -15.2200   15.5950 C.3   165  THR165      0.1862
    171  C         13.9540  -16.1260   16.6810 C.2   165  THR165      0.2287
    172  O         13.9840  -15.7420   17.8550 O.2   165  THR165     -0.2866
    173  CB        14.5960  -14.2220   15.1280 C.3   165  THR165      0.1770
    174  OG1       14.0740  -13.4380   14.0750 O.3   165  THR165     -0.2211
    175  CG2       15.8990  -14.8870   14.6720 C.3   165  THR165      0.0375
    176  N         17.4730  -18.3530   17.1850 N.3   167  VAL167     -0.1245
    177  CA        18.8450  -18.6150   16.7250 C.3   167  VAL167      0.1561
    178  C         19.2520  -19.9340   17.4380 C.2   167  VAL167      0.2260
    179  O         19.3390  -19.9630   18.6650 O.2   167  VAL167     -0.2867
    180  CB        19.8620  -17.4640   16.9690 C.3   167  VAL167      0.0252
    181  CG1       21.2740  -17.8780   16.4970 C.3   167  VAL167      0.0019
    182  CG2       19.4250  -16.1840   16.2880 C.3   167  VAL167      0.0019
@<TRIPOS>BOND
     1   107   108    2
     2   107   106    1
     3    81    82    1
     4    91    92    2
     5    91    90    1
     6     1     2    1
     7   106   105    1
     8    97    98    1
     9    82    83    1
    10    82    85    1
    11   105    99   am
    12     6     5    1
    13     6     8    1
    14    89    83   am
    15    89    90    1
    16    83    84    2
    17     5     2    1
    18     5     7    1
    19    90    93    1
    20     2     3    1
    21    93    94    1
    22     3     4    2
    23    99    98    1
    24    99   100    2
    25    87    86   ar
    26    98   101    1
    27   109   110    1
    28   111   112    2
    29   111   110    1
    30    85    86    1
    31   163   161   ar
    32   163   164   ar
    33   161   160   ar
    34    95    94    1
    35    86    88   ar
    36    94    96    1
    37   110   113    1
    38   101   102    1
    39   160   159    1
    40   160   162   ar
    41   164   166   ar
    42   164   162   ar
    43   156   159    1
    44   156   155    1
    45   156   157    1
    46   102   104    1
    47   102   103    1
    48   147   146    1
    49   166   168   ar
    50   162   165   ar
    51    75    76    2
    52    75    74    1
    53   157   158    2
    54   146   144   ar
    55   146   145   ar
    56   168   167   ar
    57   144   142   ar
    58   165   167   ar
    59    77    74    1
    60    77    78    1
    61    74    73    1
    62   145   143   ar
    63   142   141   ar
    64   123   122    1
    65    78    79    1
    66    52    51    1
    67   143   141   ar
    68    73    71   am
    69    79    80    1
    70   151   150    2
    71   141   140    1
    72    72    71    2
    73    51    50    1
    74    71    70    1
    75   122   124    1
    76   122   119    1
    77   134   132   ar
    78   134   135   ar
    79   152   153    1
    80   152   149    1
    81   152   154    1
    82   150   149    1
    83   148   149    1
    84   140   137    1
    85   132   130   ar
    86   117   116    2
    87   135   133   ar
    88    66    68    1
    89    66    65    1
    90    64    63    2
    91   119   118    1
    92   119   120    1
    93    50    49    1
    94    70    69    1
    95   116   118   am
    96   116   115    1
    97   130   129    1
    98   130   131   ar
    99   137   136    1
   100   137   138    1
   101    63    69   am
   102    63    62    1
   103   115   114    1
   104   121   120    2
   105   133   131   ar
   106   129   126    1
   107   136   127   am
   108    67    65    1
   109    49    48    1
   110    65    62    1
   111   174   173    1
   112   139   138    2
   113    62    61    1
   114   127   126    1
   115   127   128    2
   116   126   125    1
   117   175   173    1
   118    48    45    1
   119   173   170    1
   120    47    46    2
   121   170   169    1
   122   170   171    1
   123    46    45    1
   124    45    44    1
   125    24    22   am
   126    23    22    2
   127   182   180    1
   128    22    21    1
   129   181   180    1
   130   171   172    2
   131    43    40    1
   132   177   180    1
   133   177   176    1
   134   177   178    1
   135    40    39    1
   136    40    41    1
   137    42    41    2
   138    21    18    1
   139    34    33    2
   140    38    36   ar
   141    16    14    1
   142   178   179    2
   143    35    36    1
   144    35    32    1
   145    39    33   am
   146    33    32    1
   147    20    19    2
   148    18    19    1
   149    18    17    1
   150    36    37   ar
   151    59    58   ar
   152    19    25   am
   153    32    31    1
   154    60    58   ar
   155    58    57    1
   156    14    15    1
   157    14    13    1
   158    56    55    2
   159    25    26    1
   160    26    27    1
   161    26    29    1
   162    10    13    1
   163    10     9    1
   164    10    11    1
   165    28    27    2
   166    55    54    1
   167    12    11    2
   168    30    29    1
   169    57    54    1
   170    53    54    1
