@<TRIPOS>MOLECULE
tmp/4nh8A00.pdb
 182 171 0 0 0
SMALL
GASTEIGER

@<TRIPOS>ATOM
      1  N         -0.8750  -11.6110  -16.3500 N.3    33  LEU33      -0.1245
      2  CA        -1.4320  -12.1940  -17.5730 C.3    33  LEU33       0.1561
      3  C         -2.6930  -11.4620  -17.9880 C.2    33  LEU33       0.2260
      4  O         -2.8600  -11.1690  -19.1760 O.2    33  LEU33      -0.2867
      5  CB        -1.6440  -13.7130  -17.4330 C.3    33  LEU33       0.0270
      6  CG        -0.3670  -14.5390  -17.0440 C.3    33  LEU33       0.0019
      7  CD1       -0.6870  -16.0120  -16.9470 C.3    33  LEU33       0.0001
      8  CD2        0.8040  -14.3540  -18.0390 C.3    33  LEU33       0.0001
      9  N         -1.6970   -8.0950  -19.6180 N.3    36  ASN36      -0.1225
     10  CA        -1.2470   -8.2940  -21.0110 C.3    36  ASN36       0.1785
     11  C         -2.4770   -8.4540  -21.9150 C.2    36  ASN36       0.2597
     12  O         -2.5260   -7.8170  -22.9630 O.2    36  ASN36      -0.2718
     13  CB        -0.3420   -9.5100  -21.1120 C.3    36  ASN36       0.1169
     14  CG         1.0640   -9.2590  -20.6080 C.2    36  ASN36       0.2627
     15  OD1        1.5110   -8.1130  -20.4270 O.2    36  ASN36      -0.2716
     16  ND2        1.7960  -10.3330  -20.3960 N.am   36  ASN36      -0.0877
     17  N         -3.4920   -9.2370  -21.4580 N.am   37  SER37      -0.1952
     18  CA        -4.7550   -9.4530  -22.1830 C.3    37  SER37       0.1924
     19  C         -5.4790   -8.1070  -22.3620 C.2    37  SER37       0.2314
     20  O         -5.8870   -7.7780  -23.4680 O.2    37  SER37      -0.2863
     21  CB        -5.6350  -10.4580  -21.4510 C.3    37  SER37       0.2116
     22  OG        -5.0910  -11.7620  -21.5930 O.3    37  SER37      -0.2180
     23  N         -4.1300   -5.0700  -22.3140 N.3    39  ASP39      -0.1225
     24  CA        -3.3210   -4.2580  -23.2420 C.3    39  ASP39       0.1805
     25  C         -3.5920   -4.6720  -24.6890 C.2    39  ASP39       0.2597
     26  O         -3.7630   -3.8010  -25.5450 O.2    39  ASP39      -0.2718
     27  CB        -1.8210   -4.3800  -22.9230 C.3    39  ASP39       0.1424
     28  CG        -1.3660   -3.7370  -21.6160 C.2    39  ASP39       0.3668
     29  OD1       -2.1810   -3.0320  -20.9770 O.co2  39  ASP39      -0.2456
     30  OD2       -0.2040   -3.9460  -21.2320 O.co2  39  ASP39      -0.2456
     31  N         -3.6680   -6.0070  -24.9550 N.am   40  ALA40      -0.1979
     32  CA        -3.9470   -6.5470  -26.2970 C.3    40  ALA40       0.1597
     33  C         -5.3490   -6.1630  -26.7700 C.2    40  ALA40       0.2287
     34  O         -5.5420   -5.9070  -27.9630 O.2    40  ALA40      -0.2864
     35  CB        -3.8020   -8.0460  -26.2920 C.3    40  ALA40       0.0319
     36  N         -5.3860   -2.4960  -27.7660 N.3    43  LYS43      -0.1245
     37  CA        -4.7430   -2.3770  -29.0830 C.3    43  LYS43       0.1561
     38  C         -5.6810   -2.6340  -30.2430 C.2    43  LYS43       0.2260
     39  O         -5.7530   -1.8000  -31.1540 O.2    43  LYS43      -0.2867
     40  CB        -3.5000   -3.2670  -29.1960 C.3    43  LYS43       0.0271
     41  CG        -2.3290   -2.7590  -28.3860 C.3    43  LYS43       0.0035
     42  CD        -1.0550   -3.5690  -28.6530 C.3    43  LYS43       0.0206
     43  CE        -0.0090   -3.4730  -27.5560 C.3    43  LYS43       0.1093
     44  NZ         0.0710   -2.1570  -26.8580 N.3    43  LYS43      -0.1314
     45  N         -8.0190  -14.3740  -24.3780 N.3    78  ASP78      -0.1239
     46  CA        -8.4580  -13.0250  -24.7040 C.3    78  ASP78       0.1674
     47  C         -8.7200  -12.9540  -26.1990 C.2    78  ASP78       0.2266
     48  O         -8.1480  -13.7330  -26.9740 O.2    78  ASP78      -0.2867
     49  CB        -7.4820  -11.9300  -24.2380 C.3    78  ASP78       0.1410
     50  CG        -6.1450  -11.9230  -24.9530 C.2    78  ASP78       0.3668
     51  OD1       -6.1160  -11.5960  -26.1590 O.co2  78  ASP78      -0.2456
     52  OD2       -5.1280  -12.2480  -24.3090 O.co2  78  ASP78      -0.2456
     53  N         -5.5050   -8.2160  -29.7880 N.3    81  ILE81      -0.1231
     54  CA        -4.8290   -8.0740  -31.0830 C.3    81  ILE81       0.1692
     55  C         -4.0750   -9.3610  -31.5280 C.2    81  ILE81       0.2593
     56  O         -3.8820   -9.5590  -32.7280 O.2    81  ILE81      -0.2718
     57  CB        -3.9060   -6.8190  -31.0890 C.3    81  ILE81       0.0266
     58  CG1       -3.4990   -6.4230  -32.5450 C.3    81  ILE81       0.0019
     59  CG2       -2.6790   -6.9660  -30.1370 C.3    81  ILE81       0.0020
     60  CD1       -3.3170   -4.9940  -32.7680 C.3    81  ILE81       0.0001
     61  N         -3.6220  -10.1780  -30.5650 N.am   82  GLY82      -0.1942
     62  CA        -2.8620  -11.3800  -30.8820 C.3    82  GLY82       0.2014
     63  C         -1.4270  -11.0230  -31.2330 C.2    82  GLY82       0.2638
     64  O         -1.0310   -9.8450  -31.2030 O.2    82  GLY82      -0.2714
     65  N         -0.6350  -12.0440  -31.5640 N.am   83  MET83      -0.1976
     66  CA         0.7780  -11.8670  -31.8870 C.3    83  MET83       0.1605
     67  C          1.1490  -12.5590  -33.1750 C.2    83  MET83       0.2287
     68  O          0.7090  -13.6800  -33.4320 O.2    83  MET83      -0.2864
     69  CB         1.6500  -12.4050  -30.7330 C.3    83  MET83       0.0413
     70  CG         1.5640  -11.5400  -29.4550 C.3    83  MET83       0.0598
     71  SD         2.2610  -12.3350  -27.9780 S.3    83  MET83      -0.1393
     72  CE         0.9710  -13.5000  -27.5890 C.3    83  MET83       0.0692
     73  N          6.4620  -11.3110  -33.6880 N.3    87  ASP87      -0.1225
     74  CA         6.2520  -10.9030  -32.2910 C.3    87  ASP87       0.1805
     75  C          6.7250  -12.0110  -31.3570 C.2    87  ASP87       0.2597
     76  O          7.4510  -11.7260  -30.4040 O.2    87  ASP87      -0.2718
     77  CB         4.7620  -10.6190  -31.9980 C.3    87  ASP87       0.1424
     78  CG         4.1950   -9.3560  -32.6020 C.2    87  ASP87       0.3668
     79  OD1        4.9820   -8.4410  -32.9050 O.co2  87  ASP87      -0.2456
     80  OD2        2.9600   -9.2980  -32.7970 O.co2  87  ASP87      -0.2456
     81  N          6.3380  -13.2820  -31.6540 N.am   88  LEU88      -0.1979
     82  CA         6.6900  -14.4500  -30.8420 C.3    88  LEU88       0.1596
     83  C          8.1560  -14.7720  -30.7780 C.2    88  LEU88       0.2287
     84  O          8.6420  -15.0990  -29.7050 O.2    88  LEU88      -0.2864
     85  CB         5.9390  -15.7150  -31.2900 C.3    88  LEU88       0.0297
     86  CG         4.4430  -15.7790  -31.1260 C.3    88  LEU88       0.0022
     87  CD1        3.9230  -17.0170  -31.8250 C.3    88  LEU88       0.0001
     88  CD2        4.0300  -15.8470  -29.6360 C.3    88  LEU88       0.0001
     89  N          8.9060   -9.1090  -29.2840 N.3    92  LEU92      -0.1231
     90  CA         8.6640   -9.0320  -27.8410 C.3    92  LEU92       0.1693
     91  C          9.8970   -9.3900  -27.0100 C.2    92  LEU92       0.2592
     92  O         10.0980   -8.7700  -25.9680 O.2    92  LEU92      -0.2718
     93  CB         7.4320   -9.8220  -27.4190 C.3    92  LEU92       0.0284
     94  CG         6.1110   -9.1500  -27.8640 C.3    92  LEU92       0.0019
     95  CD1        4.9730  -10.1240  -27.8670 C.3    92  LEU92       0.0001
     96  CD2        5.7720   -7.9090  -27.0150 C.3    92  LEU92       0.0001
     97  N         10.7170  -10.3200  -27.5030 N.am   93  GLY93      -0.1957
     98  CA        11.9670  -10.7490  -26.8710 C.3    93  GLY93       0.1869
     99  C         12.9870   -9.6250  -26.8220 C.2    93  GLY93       0.2309
    100  O         13.7180   -9.5010  -25.8330 O.2    93  GLY93      -0.2863
    101  N         12.2130   -6.2750  -26.8100 N.3    95  ILE95      -0.1231
    102  CA        11.6730   -5.3430  -25.8040 C.3    95  ILE95       0.1692
    103  C         11.9450   -5.9070  -24.3960 C.2    95  ILE95       0.2591
    104  O         12.3640   -5.1510  -23.5100 O.2    95  ILE95      -0.2718
    105  CB        10.1610   -4.9830  -26.0550 C.3    95  ILE95       0.0266
    106  CG1        9.8780   -4.5190  -27.5160 C.3    95  ILE95       0.0019
    107  CG2        9.5960   -3.9610  -25.0460 C.3    95  ILE95       0.0020
    108  CD1       10.4890   -3.1450  -28.0450 C.3    95  ILE95       0.0001
    109  N         11.7570   -7.2310  -24.2240 N.am   96  ALA96      -0.1980
    110  CA        11.9660   -7.9580  -22.9720 C.3    96  ALA96       0.1597
    111  C         13.4130   -7.9130  -22.4460 C.2    96  ALA96       0.2287
    112  O         13.5810   -7.9070  -21.2290 O.2    96  ALA96      -0.2864
    113  CB        11.4780   -9.3880  -23.0910 C.3    96  ALA96       0.0319
    114  N          7.7520   -4.5040  -18.0110 N.3   120  GLY120     -0.1210
    115  CA         7.1300   -5.0800  -19.2010 C.3   120  GLY120      0.1956
    116  C          7.4380   -6.5360  -19.4700 C.2   120  GLY120      0.2611
    117  O          7.2750   -7.0060  -20.6050 O.2   120  GLY120     -0.2717
    118  N          7.8660   -7.2710  -18.4220 N.am  121  VAL121     -0.1979
    119  CA         8.2120   -8.6920  -18.5420 C.3   121  VAL121      0.1595
    120  C          7.3190   -9.5770  -17.6280 C.2   121  VAL121      0.2287
    121  O          7.6860  -10.7250  -17.3210 O.2   121  VAL121     -0.2864
    122  CB         9.7350   -8.9620  -18.3590 C.3   121  VAL121      0.0276
    123  CG1       10.5370   -8.3820  -19.5230 C.3   121  VAL121      0.0022
    124  CG2       10.2660   -8.4600  -17.0110 C.3   121  VAL121      0.0022
    125  N          4.7670  -11.3090  -18.2860 N.3   123  PHE123     -0.1227
    126  CA         4.4260  -12.6250  -18.8660 C.3   123  PHE123      0.1736
    127  C          5.2160  -13.7510  -18.1800 C.2   123  PHE123      0.2595
    128  O          4.6470  -14.8010  -17.8720 O.2   123  PHE123     -0.2718
    129  CB         4.6930  -12.6630  -20.3940 C.3   123  PHE123      0.0547
    130  CG         4.6710  -14.0760  -20.9490 C.ar  123  PHE123     -0.0202
    131  CD1        3.4600  -14.7330  -21.1760 C.ar  123  PHE123     -0.0042
    132  CD2        5.8650  -14.7580  -21.2160 C.ar  123  PHE123     -0.0042
    133  CE1        3.4400  -16.0540  -21.6670 C.ar  123  PHE123     -0.0003
    134  CE2        5.8470  -16.0810  -21.7040 C.ar  123  PHE123     -0.0003
    135  CZ         4.6360  -16.7170  -21.9200 C.ar  123  PHE123     -0.0000
    136  N          6.5340  -13.5200  -17.9400 N.am  124  TYR124     -0.1976
    137  CA         7.4180  -14.5300  -17.3480 C.3   124  TYR124      0.1639
    138  C          7.0570  -14.8880  -15.8970 C.2   124  TYR124      0.2290
    139  O          7.4880  -15.9600  -15.4400 O.2   124  TYR124     -0.2864
    140  CB         8.8800  -14.1340  -17.5200 C.3   124  TYR124      0.0560
    141  CG         9.2460  -14.2110  -18.9890 C.ar  124  TYR124     -0.0198
    142  CD1        9.4710  -15.4430  -19.6100 C.ar  124  TYR124     -0.0009
    143  CD2        9.3060  -13.0570  -19.7770 C.ar  124  TYR124     -0.0009
    144  CE1        9.7430  -15.5260  -20.9820 C.ar  124  TYR124      0.0417
    145  CE2        9.5940  -13.1280  -21.1490 C.ar  124  TYR124      0.0417
    146  CZ         9.8020  -14.3670  -21.7440 C.ar  124  TYR124      0.1957
    147  OH        10.1040  -14.4600  -23.0840 O.3   124  TYR124     -0.2866
    148  N          1.4580  -20.8980  -25.5370 N.3   135  VAL135     -0.1245
    149  CA         0.8110  -19.6670  -25.9900 C.3   135  VAL135      0.1561
    150  C          0.2800  -19.9100  -27.4010 C.2   135  VAL135      0.2260
    151  O          1.0850  -20.0840  -28.3240 O.2   135  VAL135     -0.2867
    152  CB         1.7440  -18.4110  -25.9120 C.3   135  VAL135      0.0252
    153  CG1        1.0510  -17.1680  -26.4900 C.3   135  VAL135      0.0019
    154  CG2        2.2410  -18.1490  -24.4800 C.3   135  VAL135      0.0019
    155  N          3.3720  -21.2810  -29.4020 N.3   147  TRP147     -0.1241
    156  CA         4.6830  -21.0220  -28.7940 C.3   147  TRP147      0.1605
    157  C          4.6520  -21.8730  -27.5280 C.2   147  TRP147      0.2264
    158  O          3.6100  -21.9690  -26.8810 O.2   147  TRP147     -0.2867
    159  CB         4.8230  -19.5230  -28.4000 C.3   147  TRP147      0.0550
    160  CG         6.0670  -19.1180  -27.6400 C.ar  147  TRP147      0.0003
    161  CD1        7.1390  -18.4440  -28.1440 C.ar  147  TRP147      0.0946
    162  CD2        6.2940  -19.2250  -26.2160 C.ar  147  TRP147      0.0152
    163  NE1        8.0380  -18.1530  -27.1360 N.ar  147  TRP147     -0.2442
    164  CE2        7.5550  -18.6390  -25.9480 C.ar  147  TRP147      0.0810
    165  CE3        5.5520  -19.7610  -25.1340 C.ar  147  TRP147      0.0012
    166  CZ2        8.0860  -18.5550  -24.6450 C.ar  147  TRP147      0.0191
    167  CZ3        6.0920  -19.7070  -23.8550 C.ar  147  TRP147      0.0001
    168  CH2        7.3420  -19.1000  -23.6180 C.ar  147  TRP147      0.0015
    169  N         -5.3630  -14.4400  -28.0330 N.3   169  THR169     -0.1218
    170  CA        -4.3390  -15.2700  -27.4040 C.3   169  THR169      0.1862
    171  C         -4.8990  -16.1410  -26.2930 C.2   169  THR169      0.2287
    172  O         -5.7620  -15.7040  -25.5300 O.2   169  THR169     -0.2866
    173  CB        -3.1850  -14.3540  -26.8860 C.3   169  THR169      0.1770
    174  OG1       -2.6530  -13.5640  -27.9680 O.3   169  THR169     -0.2211
    175  CG2       -2.0530  -15.1170  -26.1920 C.3   169  THR169      0.0375
    176  N         -3.2130  -18.3630  -23.1480 N.3   171  VAL171     -0.1245
    177  CA        -2.0000  -18.6570  -22.3710 C.3   171  VAL171      0.1561
    178  C         -2.4060  -19.8570  -21.5100 C.2   171  VAL171      0.2260
    179  O         -3.2410  -19.7200  -20.6090 O.2   171  VAL171     -0.2867
    180  CB        -1.4560  -17.4750  -21.5340 C.3   171  VAL171      0.0252
    181  CG1       -0.2480  -17.9100  -20.7010 C.3   171  VAL171      0.0019
    182  CG2       -1.0870  -16.2990  -22.4380 C.3   171  VAL171      0.0019
@<TRIPOS>BOND
     1    73    74    1
     2    68    67    2
     3    67    66    1
     4    79    78   ar
     5    80    78   ar
     6    60    58    1
     7    56    55    2
     8    78    77    1
     9    58    57    1
    10    74    77    1
    11    74    75    1
    12    66    65    1
    13    66    69    1
    14    87    86    1
    15    81    75   am
    16    81    82    1
    17    65    63   am
    18    55    54    1
    19    55    61   am
    20    75    76    2
    21    85    86    1
    22    85    82    1
    23    63    64    2
    24    63    62    1
    25    39    38    2
    26    86    88    1
    27    57    54    1
    28    57    59    1
    29    54    53    1
    30    62    61    1
    31    82    83    1
    32    83    84    2
    33    69    70    1
    34    38    37    1
    35    70    71    1
    36   155   156    1
    37    89    90    1
    38    40    37    1
    39    40    41    1
    40    37    36    1
    41   156   159    1
    42   156   157    1
    43    42    41    1
    44    42    43    1
    45   159   160    1
    46   151   150    2
    47   161   160   ar
    48   161   163   ar
    49   108   106    1
    50   169   170    1
    51    71    72    1
    52   174   173    1
    53    34    33    2
    54    95    94    1
    55    94    93    1
    56    94    96    1
    57    90    93    1
    58    90    91    1
    59   160   162   ar
    60    43    44    1
    61   157   158    2
    62   106   105    1
    63    97    91   am
    64    97    98    1
    65   170   173    1
    66   170   171    1
    67   150   149    1
    68   163   164   ar
    69    91    92    2
    70    48    47    2
    71   173   175    1
    72    98    99    1
    73    99   100    2
    74   101   102    1
    75    33    32    1
    76   153   152    1
    77    32    35    1
    78    32    31    1
    79   171   172    2
    80   162   164   ar
    81   162   165   ar
    82    47    46    1
    83    51    50   ar
    84   105   102    1
    85   105   107    1
    86   149   152    1
    87   149   148    1
    88   164   166   ar
    89   152   154    1
    90   102   103    1
    91    26    25    2
    92   165   167   ar
    93    31    25   am
    94    50    52   ar
    95    50    49    1
    96    46    45    1
    97    46    49    1
    98    25    24    1
    99   166   168   ar
   100   103   109   am
   101   103   104    2
   102   109   110    1
   103   167   168   ar
   104    20    19    2
   105    24    27    1
   106    24    23    1
   107   176   177    1
   108   113   110    1
   109   147   146    1
   110   110   111    1
   111    12    11    2
   112    27    28    1
   113   111   112    2
   114   182   180    1
   115   177   180    1
   116   177   178    1
   117    19    18    1
   118    18    17    1
   119    18    21    1
   120   135   134   ar
   121   135   133   ar
   122    11    17   am
   123    11    10    1
   124   146   145   ar
   125   146   144   ar
   126   134   132   ar
   127   133   131   ar
   128    28    30   ar
   129    28    29   ar
   130    22    21    1
   131   180   181    1
   132   178   179    2
   133   132   130   ar
   134   131   130   ar
   135   145   143   ar
   136    13    10    1
   137    13    14    1
   138    10     9    1
   139   144   142   ar
   140   130   129    1
   141    14    15    2
   142    14    16   am
   143   117   116    2
   144   129   126    1
   145   143   141   ar
   146   142   141   ar
   147   123   122    1
   148   116   115    1
   149   116   118   am
   150   115   114    1
   151     4     3    2
   152   141   140    1
   153   126   125    1
   154   126   127    1
   155   119   118    1
   156   119   122    1
   157   119   120    1
   158   122   124    1
   159   127   136   am
   160   127   128    2
   161     8     6    1
   162     3     2    1
   163   136   137    1
   164   120   121    2
   165     2     5    1
   166     2     1    1
   167   140   137    1
   168     5     6    1
   169   137   138    1
   170     6     7    1
   171   138   139    2
