@<TRIPOS>MOLECULE
tmp/4nh9A00.pdb
 173 162 0 0 0
SMALL
GASTEIGER

@<TRIPOS>ATOM
      1  N        -14.5020  -48.1120   -8.5070 N.3    13  MET13      -0.1245
      2  CA       -13.8980  -46.8830   -9.0470 C.3    13  MET13       0.1570
      3  C        -12.9600  -46.2090   -8.0390 C.2    13  MET13       0.2261
      4  O        -11.8720  -45.7960   -8.4410 O.2    13  MET13      -0.2867
      5  CB       -14.9820  -45.9090   -9.5420 C.3    13  MET13       0.0387
      6  CG       -14.4660  -44.8200  -10.4690 C.3    13  MET13       0.0595
      7  SD       -15.7670  -43.7520  -11.1420 S.3    13  MET13      -0.1393
      8  CE       -16.2050  -42.7800   -9.6750 C.3    13  MET13       0.0692
      9  N        -10.1130  -30.9970   -7.3620 N.3    32  LEU32      -0.1245
     10  CA       -11.0180  -30.1560   -6.6280 C.3    32  LEU32       0.1561
     11  C        -11.2260  -28.8460   -7.3500 C.2    32  LEU32       0.2260
     12  O        -12.3000  -28.3150   -7.3570 O.2    32  LEU32      -0.2867
     13  CB       -10.4720  -29.9040   -5.2390 C.3    32  LEU32       0.0270
     14  CG       -10.4960  -31.0010   -4.1880 C.3    32  LEU32       0.0019
     15  CD1      -10.1080  -30.4660   -2.8420 C.3    32  LEU32       0.0001
     16  CD2      -11.8300  -31.6900   -4.0790 C.3    32  LEU32       0.0001
     17  N        -13.4920  -29.4960  -10.6230 N.3    35  ASN35      -0.1225
     18  CA       -14.9180  -29.5510  -10.2680 C.3    35  ASN35       0.1785
     19  C        -15.4470  -28.1440  -10.0440 C.2    35  ASN35       0.2597
     20  O        -16.5440  -27.8350  -10.5120 O.2    35  ASN35      -0.2718
     21  CB       -15.1420  -30.3740   -8.9930 C.3    35  ASN35       0.1169
     22  CG       -14.8250  -31.8460   -9.0690 C.2    35  ASN35       0.2627
     23  OD1      -15.0150  -32.5140  -10.0950 O.2    35  ASN35      -0.2716
     24  ND2      -14.3760  -32.3920   -7.9450 N.am   35  ASN35      -0.0877
     25  N        -14.6520  -27.2960   -9.3270 N.am   36  ALA36      -0.1979
     26  CA       -14.9360  -25.8980   -9.0000 C.3    36  ALA36       0.1597
     27  C        -15.0170  -25.0680  -10.2840 C.2    36  ALA36       0.2287
     28  O        -15.8950  -24.2100  -10.3800 O.2    36  ALA36      -0.2864
     29  CB       -13.8680  -25.3470   -8.0660 C.3    36  ALA36       0.0319
     30  N        -15.7030  -26.3770  -13.4310 N.3    38  ASP38      -0.1225
     31  CA       -16.8740  -26.9370  -14.1340 C.3    38  ASP38       0.1805
     32  C        -18.2050  -26.3620  -13.6370 C.2    38  ASP38       0.2597
     33  O        -19.0900  -26.0850  -14.4560 O.2    38  ASP38      -0.2718
     34  CB       -16.8930  -28.4810  -14.0580 C.3    38  ASP38       0.1424
     35  CG       -15.8040  -29.2180  -14.8290 C.2    38  ASP38       0.3668
     36  OD1      -15.3080  -28.6690  -15.8470 O.co2  38  ASP38      -0.2456
     37  OD2      -15.4680  -30.3580  -14.4340 O.co2  38  ASP38      -0.2456
     38  N        -18.3270  -26.1840  -12.2990 N.am   39  ALA39      -0.1979
     39  CA       -19.4930  -25.6400  -11.6020 C.3    39  ALA39       0.1597
     40  C        -19.6700  -24.1570  -11.9170 C.2    39  ALA39       0.2287
     41  O        -20.7800  -23.7470  -12.2630 O.2    39  ALA39      -0.2864
     42  CB       -19.3490  -25.8410  -10.1070 C.3    39  ALA39       0.0319
     43  N        -20.6260  -23.5440  -15.6240 N.3    42  LYS42      -0.1245
     44  CA       -22.0300  -23.9170  -15.8230 C.3    42  LYS42       0.1561
     45  C        -22.9900  -22.8110  -15.3970 C.2    42  LYS42       0.2260
     46  O        -23.8790  -22.4930  -16.1850 O.2    42  LYS42      -0.2867
     47  CB       -22.3800  -25.2670  -15.1680 C.3    42  LYS42       0.0271
     48  CG       -23.6180  -25.9210  -15.7820 C.3    42  LYS42       0.0035
     49  CD       -23.9960  -27.2160  -15.1040 C.3    42  LYS42       0.0206
     50  CE       -25.2720  -27.7680  -15.6880 C.3    42  LYS42       0.1093
     51  NZ       -25.6170  -29.0910  -15.1120 N.3    42  LYS42      -0.1314
     52  N        -16.4240  -22.9170   -3.6820 N.3    77  ASP77      -0.1239
     53  CA       -16.6840  -22.3310   -4.9990 C.3    77  ASP77       0.1674
     54  C        -18.0750  -21.7150   -4.9890 C.2    77  ASP77       0.2266
     55  O        -18.9450  -22.1920   -4.2520 O.2    77  ASP77      -0.2867
     56  CB       -16.5200  -23.3490   -6.1460 C.3    77  ASP77       0.1410
     57  CG       -17.4850  -24.5210   -6.1320 C.2    77  ASP77       0.3668
     58  OD1      -18.6210  -24.3640   -6.6420 O.co2  77  ASP77      -0.2456
     59  OD2      -17.0930  -25.6040   -5.6440 O.co2  77  ASP77      -0.2456
     60  N        -22.5440  -23.4440   -9.7390 N.3    80  VAL80      -0.1231
     61  CA       -23.9410  -23.8930   -9.9080 C.3    80  VAL80       0.1692
     62  C        -24.5120  -24.5620   -8.6170 C.2    80  VAL80       0.2593
     63  O        -25.6790  -24.3290   -8.2850 O.2    80  VAL80      -0.2718
     64  CB       -24.1220  -24.7790  -11.1940 C.3    80  VAL80       0.0266
     65  CG1      -23.3070  -26.0780  -11.1640 C.3    80  VAL80       0.0020
     66  CG2      -25.5900  -25.0510  -11.5180 C.3    80  VAL80       0.0020
     67  N        -23.6750  -25.3300   -7.9200 N.am   81  GLY81      -0.1942
     68  CA       -24.0330  -26.0710   -6.7200 C.3    81  GLY81       0.2014
     69  C        -24.6370  -27.4070   -7.1100 C.2    81  GLY81       0.2638
     70  O        -24.5970  -27.7970   -8.2860 O.2    81  GLY81      -0.2714
     71  N        -25.2000  -28.1210   -6.1210 N.am   82  MET82      -0.1976
     72  CA       -25.8320  -29.4320   -6.2870 C.3    82  MET82       0.1605
     73  C        -27.0800  -29.5450   -5.4280 C.2    82  MET82       0.2287
     74  O        -27.0480  -29.1980   -4.2400 O.2    82  MET82      -0.2864
     75  CB       -24.8580  -30.5710   -5.9180 C.3    82  MET82       0.0413
     76  CG       -23.7500  -30.8210   -6.9300 C.3    82  MET82       0.0598
     77  SD       -22.3990  -31.8100   -6.2490 S.3    82  MET82      -0.1393
     78  CE       -21.5450  -30.5900   -5.2550 C.3    82  MET82       0.0692
     79  N        -28.9950  -34.7330   -6.6740 N.3    86  GLU86      -0.1231
     80  CA       -27.6300  -34.8410   -7.2150 C.3    86  GLU86       0.1699
     81  C        -26.6120  -35.4140   -6.2160 C.2    86  GLU86       0.2592
     82  O        -25.6390  -36.0440   -6.6420 O.2    86  GLU86      -0.2718
     83  CB       -27.1550  -33.4930   -7.7840 C.3    86  GLU86       0.0402
     84  CG       -27.8770  -33.0950   -9.0660 C.3    86  GLU86       0.1161
     85  CD       -27.6510  -31.6870   -9.5790 C.2    86  GLU86       0.3649
     86  OE1      -27.7960  -30.7240   -8.7910 O.co2  86  GLU86      -0.2457
     87  OE2      -27.3760  -31.5440  -10.7910 O.co2  86  GLU86      -0.2457
     88  N        -26.8370  -35.1970   -4.9020 N.am   87  LEU87      -0.1980
     89  CA       -25.9760  -35.6770   -3.8160 C.3    87  LEU87       0.1596
     90  C        -26.2850  -37.1310   -3.4570 C.2    87  LEU87       0.2287
     91  O        -25.3510  -37.9110   -3.2490 O.2    87  LEU87      -0.2864
     92  CB       -26.0510  -34.7560   -2.5770 C.3    87  LEU87       0.0297
     93  CG       -25.5450  -33.2970   -2.7340 C.3    87  LEU87       0.0022
     94  CD1      -26.1120  -32.4090   -1.6600 C.3    87  LEU87       0.0001
     95  CD2      -24.0200  -33.2060   -2.7310 C.3    87  LEU87       0.0001
     96  N        -25.2280  -39.7110   -6.4570 N.3    90  ASN90      -0.1240
     97  CA       -23.8110  -39.7590   -6.8650 C.3    90  ASN90       0.1653
     98  C        -22.8750  -40.3490   -5.7880 C.2    90  ASN90       0.2266
     99  O        -22.8090  -39.8820   -4.6500 O.2    90  ASN90      -0.2867
    100  CB       -23.3020  -38.3980   -7.3560 C.3    90  ASN90       0.1155
    101  CG       -23.8410  -37.8910   -8.6850 C.2    90  ASN90       0.2627
    102  OD1      -24.2260  -38.6440   -9.5900 O.2    90  ASN90      -0.2716
    103  ND2      -23.8250  -36.5800   -8.8530 N.am   90  ASN90      -0.0877
    104  N        -14.3900  -36.9170  -15.8560 N.3   113  GLY113     -0.1210
    105  CA       -14.8090  -36.0430  -14.7570 C.3   113  GLY113      0.1956
    106  C        -15.2340  -36.7100  -13.4610 C.2   113  GLY113      0.2611
    107  O        -16.1060  -36.1800  -12.7620 O.2   113  GLY113     -0.2717
    108  N        -14.6160  -37.8700  -13.1290 N.am  114  VAL114     -0.1979
    109  CA       -14.8900  -38.6710  -11.9150 C.3   114  VAL114      0.1595
    110  C        -13.7470  -38.5220  -10.8510 C.2   114  VAL114      0.2287
    111  O        -13.5870  -39.3710   -9.9630 O.2   114  VAL114     -0.2864
    112  CB       -15.2330  -40.1600  -12.2420 C.3   114  VAL114      0.0276
    113  CG1      -16.5880  -40.2860  -12.9370 C.3   114  VAL114      0.0022
    114  CG2      -14.1270  -40.8620  -13.0380 C.3   114  VAL114      0.0022
    115  N        -13.4160  -36.5070   -8.2480 N.3   116  PHE116     -0.1227
    116  CA       -13.7950  -36.1290   -6.8770 C.3   116  PHE116      0.1736
    117  C        -13.2650  -37.1010   -5.8030 C.2   116  PHE116      0.2595
    118  O        -12.7810  -36.6490   -4.7630 O.2   116  PHE116     -0.2718
    119  CB       -15.3280  -35.9230   -6.7460 C.3   116  PHE116      0.0547
    120  CG       -15.8590  -35.8910   -5.3250 C.ar  116  PHE116     -0.0202
    121  CD1      -15.6850  -34.7620   -4.5200 C.ar  116  PHE116     -0.0042
    122  CD2      -16.5150  -36.9990   -4.7820 C.ar  116  PHE116     -0.0042
    123  CE1      -16.1590  -34.7400   -3.1970 C.ar  116  PHE116     -0.0003
    124  CE2      -16.9880  -36.9790   -3.4580 C.ar  116  PHE116     -0.0003
    125  CZ       -16.8090  -35.8480   -2.6770 C.ar  116  PHE116     -0.0000
    126  N        -13.3500  -38.4190   -6.0720 N.am  117  TYR117     -0.1976
    127  CA       -12.9400  -39.4930   -5.1620 C.3   117  TYR117      0.1639
    128  C        -11.4010  -39.5690   -4.8980 C.2   117  TYR117      0.2290
    129  O        -10.9870  -40.3470   -4.0260 O.2   117  TYR117     -0.2864
    130  CB       -13.5180  -40.8350   -5.6350 C.3   117  TYR117      0.0560
    131  CG       -15.0290  -40.8670   -5.5040 C.ar  117  TYR117     -0.0198
    132  CD1      -15.6410  -41.0140   -4.2560 C.ar  117  TYR117     -0.0009
    133  CD2      -15.8510  -40.7090   -6.6210 C.ar  117  TYR117     -0.0009
    134  CE1      -17.0320  -41.0260   -4.1250 C.ar  117  TYR117      0.0417
    135  CE2      -17.2450  -40.7250   -6.5030 C.ar  117  TYR117      0.0417
    136  CZ       -17.8300  -40.8830   -5.2520 C.ar  117  TYR117      0.1957
    137  OH       -19.1960  -40.9070   -5.1120 O.3   117  TYR117     -0.2866
    138  N        -19.3130  -32.4230    1.9340 N.3   128  VAL128     -0.1245
    139  CA       -19.7670  -31.6140    0.8020 C.3   128  VAL128      0.1561
    140  C        -21.0170  -30.8350    1.2410 C.2   128  VAL128      0.2260
    141  O        -22.0660  -31.4350    1.4800 O.2   128  VAL128     -0.2867
    142  CB       -19.9750  -32.4510   -0.5060 C.3   128  VAL128      0.0252
    143  CG1      -20.4920  -31.5910   -1.6630 C.3   128  VAL128      0.0019
    144  CG2      -18.6960  -33.1750   -0.9190 C.3   128  VAL128      0.0019
    145  N        -23.5090  -33.6570    2.4060 N.3   140  TRP140     -0.1241
    146  CA       -23.1270  -34.9950    1.9480 C.3   140  TRP140      0.1605
    147  C        -21.8630  -35.2960    2.7670 C.2   140  TRP140      0.2264
    148  O        -20.9220  -34.5040    2.7460 O.2   140  TRP140     -0.2867
    149  CB       -22.8290  -34.9690    0.4420 C.3   140  TRP140      0.0550
    150  CG       -22.4830  -36.2870   -0.1950 C.ar  140  TRP140      0.0003
    151  CD1      -23.3340  -37.1150   -0.8650 C.ar  140  TRP140      0.0946
    152  CD2      -21.1800  -36.8850   -0.2960 C.ar  140  TRP140      0.0152
    153  NE1      -22.6500  -38.2000   -1.3650 N.ar  140  TRP140     -0.2442
    154  CE2      -21.3250  -38.0830   -1.0370 C.ar  140  TRP140      0.0810
    155  CE3      -19.8910  -36.5160    0.1530 C.ar  140  TRP140      0.0012
    156  CZ2      -20.2370  -38.9300   -1.3230 C.ar  140  TRP140      0.0191
    157  CZ3      -18.8140  -37.3590   -0.1230 C.ar  140  TRP140      0.0001
    158  CH2      -18.9890  -38.5400   -0.8690 C.ar  140  TRP140      0.0015
    159  N        -20.6290  -24.5960   -3.5710 N.3   162  THR162     -0.1218
    160  CA       -20.2620  -25.7580   -2.7510 C.3   162  THR162      0.1862
    161  C        -18.8840  -25.6200   -2.0820 C.2   162  THR162      0.2287
    162  O        -17.9680  -25.0120   -2.6360 O.2   162  THR162     -0.2866
    163  CB       -20.3960  -27.1160   -3.5250 C.3   162  THR162      0.1770
    164  OG1      -19.5920  -28.1390   -2.9250 O.3   162  THR162     -0.2211
    165  CG2      -20.0880  -27.0210   -5.0110 C.3   162  THR162      0.0375
    166  N        -15.9510  -28.0960   -0.0910 N.3   164  ILE164     -0.1245
    167  CA       -15.3970  -29.4380    0.0760 C.3   164  ILE164      0.1561
    168  C        -14.4950  -29.3510    1.2970 C.2   164  ILE164      0.2260
    169  O        -13.4520  -28.6940    1.2500 O.2   164  ILE164     -0.2867
    170  CB       -14.6900  -30.0680   -1.1780 C.3   164  ILE164      0.0252
    171  CG1      -15.4770  -29.8530   -2.5190 C.3   164  ILE164      0.0019
    172  CG2      -14.3700  -31.5630   -0.9480 C.3   164  ILE164      0.0019
    173  CD1      -16.9700  -30.3720   -2.6460 C.3   164  ILE164      0.0001
@<TRIPOS>BOND
     1    46    45    2
     2   104   105    1
     3    36    35   ar
     4    44    43    1
     5    44    45    1
     6    44    47    1
     7    48    47    1
     8    48    49    1
     9    50    51    1
    10    50    49    1
    11    35    37   ar
    12    35    34    1
    13   105   106    1
    14    33    32    2
    15    31    34    1
    16    31    32    1
    17    31    30    1
    18    32    38   am
    19   106   108   am
    20   106   107    2
    21   108   109    1
    22   114   112    1
    23   113   112    1
    24    38    39    1
    25    41    40    2
    26   112   109    1
    27    40    39    1
    28   109   110    1
    29    39    42    1
    30    66    64    1
    31    64    65    1
    32    64    61    1
    33     7     6    1
    34     7     8    1
    35   110   111    2
    36    87    85   ar
    37    17    18    1
    38    20    19    2
    39     6     5    1
    40    28    27    2
    41    27    26    1
    42    18    19    1
    43    18    21    1
    44    23    22    2
    45    19    25   am
    46    61    60    1
    47    61    62    1
    48   102   101    2
    49    85    84    1
    50    85    86   ar
    51     5     2    1
    52    25    26    1
    53    22    21    1
    54    22    24   am
    55    84    83    1
    56     2     1    1
    57     2     3    1
    58    26    29    1
    59   103   101   am
    60   101   100    1
    61    62    63    2
    62    62    67   am
    63     4     3    2
    64    70    69    2
    65   115   116    1
    66    67    68    1
    67    83    80    1
    68     9    10    1
    69    12    11    2
    70   100    97    1
    71    11    10    1
    72    80    79    1
    73    80    81    1
    74    69    68    1
    75    69    71   am
    76    76    77    1
    77    76    75    1
    78   116   119    1
    79   116   117    1
    80    97    96    1
    81    97    98    1
    82   119   120    1
    83    82    81    2
    84    58    57   ar
    85    10    13    1
    86   133   135   ar
    87   133   131   ar
    88   135   136   ar
    89    72    71    1
    90    72    75    1
    91    72    73    1
    92    77    78    1
    93    81    88   am
    94    56    57    1
    95    56    53    1
    96    57    59   ar
    97   126   117   am
    98   126   127    1
    99   117   118    2
   100    98    99    2
   101   130   131    1
   102   130   127    1
   103   131   132   ar
   104    73    74    2
   105   120   122   ar
   106   120   121   ar
   107   136   137    1
   108   136   134   ar
   109    13    14    1
   110   127   128    1
   111   165   163    1
   112    53    54    1
   113    53    52    1
   114    54    55    2
   115    88    89    1
   116   128   129    2
   117   122   124   ar
   118   121   123   ar
   119   132   134   ar
   120    14    16    1
   121    14    15    1
   122    89    90    1
   123    89    92    1
   124   159   160    1
   125   163   164    1
   126   163   160    1
   127   124   125   ar
   128    90    91    2
   129   123   125   ar
   130   160   161    1
   131    93    95    1
   132    93    92    1
   133    93    94    1
   134   173   171    1
   135   162   161    2
   136   171   170    1
   137   143   142    1
   138   153   154   ar
   139   153   151   ar
   140   156   154   ar
   141   156   158   ar
   142   170   172    1
   143   170   167    1
   144   154   152   ar
   145   144   142    1
   146   158   157   ar
   147   151   150   ar
   148   142   139    1
   149   152   150   ar
   150   152   155   ar
   151   150   149    1
   152   157   155   ar
   153   166   167    1
   154   167   168    1
   155   149   146    1
   156   139   140    1
   157   139   138    1
   158   140   141    2
   159   169   168    2
   160   146   145    1
   161   146   147    1
   162   148   147    2
