@<TRIPOS>MOLECULE
tmp/4nhbB00.pdb
 153 143 0 0 0
SMALL
GASTEIGER

@<TRIPOS>ATOM
      1  N         35.2080   26.7860  -15.7080 N.3     9  LYS9       -0.1245
      2  CA        36.2840   26.2170  -14.9010 C.3     9  LYS9        0.1561
      3  C         36.6640   24.8580  -15.4760 C.2     9  LYS9        0.2260
      4  O         35.8420   24.1740  -16.1020 O.2     9  LYS9       -0.2867
      5  CB        35.8740   26.1050  -13.4100 C.3     9  LYS9        0.0271
      6  CG        35.3930   27.4200  -12.7840 C.3     9  LYS9        0.0035
      7  CD        36.4930   28.4500  -12.7230 C.3     9  LYS9        0.0206
      8  CE        35.9930   29.7600  -12.0920 C.3     9  LYS9        0.1093
      9  NZ        37.0830   30.7900  -12.0280 N.3     9  LYS9       -0.1314
     10  N         31.9230   33.9100  -20.2110 N.3    47  GLU47      -0.1245
     11  CA        30.6310   34.0740  -19.5510 C.3    47  GLU47       0.1567
     12  C         29.6440   34.8810  -20.3780 C.2    47  GLU47       0.2260
     13  O         28.4650   34.5570  -20.4520 O.2    47  GLU47      -0.2867
     14  CB        30.8200   34.7750  -18.2130 C.3    47  GLU47       0.0388
     15  CG        31.7040   33.9970  -17.2480 C.3    47  GLU47       0.1160
     16  CD        33.0850   34.5970  -17.1710 C.2    47  GLU47       0.3649
     17  OE1       33.6230   34.8980  -18.2430 O.co2  47  GLU47      -0.2457
     18  OE2       33.6240   34.7610  -16.0480 O.co2  47  GLU47      -0.2457
     19  N         28.4750   32.9400  -11.8120 N.3    65  GLY65      -0.1210
     20  CA        28.3220   33.6220  -10.5410 C.3    65  GLY65       0.1956
     21  C         27.8360   35.0420  -10.7400 C.2    65  GLY65       0.2613
     22  O         26.8540   35.2680  -11.4590 O.2    65  GLY65      -0.2717
     23  N         28.5190   36.0010  -10.1250 N.am   66  THR66      -0.1938
     24  CA        27.9760   37.3700  -10.0810 C.3    66  THR66       0.2028
     25  C         28.1180   38.1390  -11.4180 C.2    66  THR66       0.2642
     26  O         27.7060   39.2930  -11.5290 O.2    66  THR66      -0.2714
     27  CB        28.5670   38.1560   -8.9010 C.3    66  THR66       0.1808
     28  OG1       29.9920   38.1030   -8.9620 O.3    66  THR66      -0.2208
     29  CG2       28.0780   37.5400   -7.5590 C.3    66  THR66       0.0379
     30  N         28.7030   37.4890  -12.4190 N.am   67  GLN67      -0.1976
     31  CA        28.5700   37.9190  -13.8110 C.3    67  GLN67       0.1601
     32  C         27.1240   38.3140  -14.1320 C.2    67  GLN67       0.2287
     33  O         26.9010   39.2460  -14.8960 O.2    67  GLN67      -0.2864
     34  CB        29.0250   36.8070  -14.7860 C.3    67  GLN67       0.0394
     35  CG        30.5080   36.4850  -14.7750 C.3    67  GLN67       0.0908
     36  CD        30.9300   35.5150  -13.6650 C.2    67  GLN67       0.2608
     37  OE1       30.1290   35.1810  -12.7980 O.2    67  GLN67      -0.2717
     38  NE2       32.2100   35.0700  -13.6950 N.am   67  GLN67      -0.0878
     39  N         28.0720   37.8240   -3.5090 N.3    79  GLU79      -0.1245
     40  CA        29.4680   37.9170   -3.0990 C.3    79  GLU79       0.1567
     41  C         29.7780   39.2350   -2.3950 C.2    79  GLU79       0.2260
     42  O         30.8340   39.8350   -2.6010 O.2    79  GLU79      -0.2867
     43  CB        30.3770   37.7230   -4.3240 C.3    79  GLU79       0.0388
     44  CG        30.1680   36.3540   -4.9920 C.3    79  GLU79       0.1160
     45  CD        30.9970   36.1370   -6.2430 C.2    79  GLU79       0.3649
     46  OE1       31.5130   37.1200   -6.8470 O.co2  79  GLU79      -0.2457
     47  OE2       31.1660   34.9550   -6.6030 O.co2  79  GLU79      -0.2457
     48  N         32.6230   28.3260   -4.6090 N.3   120  LEU120     -0.1245
     49  CA        33.9070   27.9290   -5.1900 C.3   120  LEU120      0.1561
     50  C         35.0110   28.1740   -4.1710 C.2   120  LEU120      0.2260
     51  O         36.1230   27.6770   -4.3410 O.2   120  LEU120     -0.2867
     52  CB        34.2130   28.7450   -6.4460 C.3   120  LEU120      0.0270
     53  CG        33.6030   28.1850   -7.7280 C.3   120  LEU120      0.0019
     54  CD1       32.1000   28.1030   -7.5700 C.3   120  LEU120      0.0001
     55  CD2       33.9440   29.0730   -8.9310 C.3   120  LEU120      0.0001
     56  N         38.2010   33.8110   -1.3620 N.3   123  ARG123     -0.1245
     57  CA        39.2950   34.3130   -2.1670 C.3   123  ARG123      0.1563
     58  C         40.5130   34.6600   -1.3070 C.2   123  ARG123      0.2260
     59  O         40.4090   35.2770   -0.2500 O.2   123  ARG123     -0.2867
     60  CB        38.8390   35.5630   -2.9370 C.3   123  ARG123      0.0307
     61  CG        37.6850   35.3180   -3.9690 C.3   123  ARG123      0.0489
     62  CD        37.4490   36.5580   -4.8450 C.3   123  ARG123      0.2205
     63  NE        38.2260   36.4650   -6.0600 N.pl3 123  ARG123     -0.0865
     64  CZ        37.7860   36.0390   -7.2440 C.cat 123  ARG123      0.5346
     65  NH1       36.5150   35.7040   -7.4370 N.pl3 123  ARG123      0.1354
     66  NH2       38.6450   35.9550   -8.2530 N.pl3 123  ARG123      0.1354
     67  N         45.3560   41.3780  -11.0830 N.3   143  ARG143     -0.1245
     68  CA        44.1790   40.9550  -11.8440 C.3   143  ARG143      0.1563
     69  C         42.9510   41.1140  -11.0060 C.2   143  ARG143      0.2260
     70  O         42.9480   40.8870   -9.7760 O.2   143  ARG143     -0.2867
     71  CB        44.2730   39.5140  -12.3450 C.3   143  ARG143      0.0307
     72  CG        43.0870   39.1090  -13.1970 C.3   143  ARG143      0.0489
     73  CD        42.1390   38.1320  -12.4870 C.3   143  ARG143      0.2205
     74  NE        40.9000   37.9090  -13.2400 N.pl3 143  ARG143     -0.0865
     75  CZ        39.9240   37.0600  -12.8770 C.cat 143  ARG143      0.5346
     76  NH1       40.0280   36.3300  -11.7780 N.pl3 143  ARG143      0.1354
     77  NH2       38.8330   36.9450  -13.6110 N.pl3 143  ARG143      0.1354
     78  N         38.5350   40.3860  -11.6930 N.3   145  PRO145     -0.2116
     79  CA        37.4910   39.9940  -12.6550 C.3   145  PRO145      0.1372
     80  C         36.7780   41.2250  -13.2150 C.2   145  PRO145      0.2244
     81  O         36.5890   42.1820  -12.4850 O.2   145  PRO145     -0.2868
     82  CB        36.5030   39.1920  -11.8000 C.3   145  PRO145      0.0268
     83  CG        37.2970   38.7340  -10.5800 C.3   145  PRO145      0.0207
     84  CD        38.2670   39.8760  -10.3320 C.3   145  PRO145      0.0892
     85  N         34.0190   42.6280  -13.3320 N.3   147  ILE147     -0.1245
     86  CA        32.6590   42.7140  -12.8030 C.3   147  ILE147      0.1561
     87  C         32.6470   43.8450  -11.8070 C.2   147  ILE147      0.2260
     88  O         33.5920   43.9800  -11.0330 O.2   147  ILE147     -0.2867
     89  CB        32.2190   41.3830  -12.0910 C.3   147  ILE147      0.0252
     90  CG1       32.2050   40.1860  -13.0420 C.3   147  ILE147      0.0019
     91  CG2       30.8500   41.5120  -11.5330 C.3   147  ILE147      0.0019
     92  CD1       32.2700   38.8290  -12.2810 C.3   147  ILE147      0.0001
     93  N         33.9200   43.6760   -8.2240 N.3   150  TYR150     -0.1241
     94  CA        35.3410   43.3670   -8.0490 C.3   150  TYR150      0.1605
     95  C         36.2280   44.5850   -8.3120 C.2   150  TYR150      0.2264
     96  O         37.2130   44.8080   -7.5910 O.2   150  TYR150     -0.2867
     97  CB        35.7930   42.1830   -8.9300 C.3   150  TYR150      0.0534
     98  CG        35.3140   40.8700   -8.3720 C.ar  150  TYR150     -0.0201
     99  CD1       36.0810   40.1640   -7.4460 C.ar  150  TYR150     -0.0009
    100  CD2       34.0830   40.3520   -8.7370 C.ar  150  TYR150     -0.0009
    101  CE1       35.6440   38.9860   -6.9310 C.ar  150  TYR150      0.0417
    102  CE2       33.6340   39.1470   -8.2070 C.ar  150  TYR150      0.0417
    103  CZ        34.4280   38.4820   -7.2990 C.ar  150  TYR150      0.1957
    104  OH        33.9830   37.3190   -6.7340 O.3   150  TYR150     -0.2866
    105  N         40.3740   34.9460  -15.8750 N.3   166  PHE166     -0.1241
    106  CA        41.2950   34.2170  -15.0010 C.3   166  PHE166      0.1605
    107  C         42.3270   33.4430  -15.8340 C.2   166  PHE166      0.2264
    108  O         43.5030   33.4040  -15.5040 O.2   166  PHE166     -0.2867
    109  CB        40.5470   33.2300  -14.0890 C.3   166  PHE166      0.0534
    110  CG        41.4350   32.5480  -13.1160 C.ar  166  PHE166     -0.0203
    111  CD1       42.2280   33.3020  -12.2470 C.ar  166  PHE166     -0.0042
    112  CD2       41.4820   31.1750  -13.0450 C.ar  166  PHE166     -0.0042
    113  CE1       43.0770   32.6790  -11.3290 C.ar  166  PHE166     -0.0003
    114  CE2       42.3150   30.5470  -12.1530 C.ar  166  PHE166     -0.0003
    115  CZ        43.1220   31.3010  -11.2820 C.ar  166  PHE166     -0.0000
    116  N         42.0100   34.7730   -5.6660 N.3   183  SER183     -0.1203
    117  CA        41.1430   33.7230   -6.1500 C.3   183  SER183      0.2005
    118  C         40.9210   32.6920   -5.0640 C.2   183  SER183      0.2460
    119  O         41.6860   32.6140   -4.1140 O.2   183  SER183     -0.2732
    120  CB        41.7660   33.0160   -7.3460 C.3   183  SER183      0.2103
    121  OG        41.7320   33.8070   -8.5260 O.3   183  SER183     -0.2182
    122  N         39.8620   31.8830   -5.2120 N.am  184  PRO184     -0.2728
    123  CA        39.6800   30.7150   -4.3570 C.3   184  PRO184      0.1401
    124  C         40.8750   29.7680   -4.5050 C.2   184  PRO184      0.2269
    125  O         41.5440   29.7210   -5.5780 O.2   184  PRO184     -0.2865
    126  CB        38.4100   30.0500   -4.9150 C.3   184  PRO184      0.0296
    127  CG        37.7060   31.1230   -5.7230 C.3   184  PRO184      0.0237
    128  CD        38.7610   32.0690   -6.1800 C.3   184  PRO184      0.0939
    129  N         41.1320   27.4840   -7.6070 N.3   187  ASP187     -0.1239
    130  CA        41.5550   28.1350   -8.8480 C.3   187  ASP187      0.1674
    131  C         43.0600   28.4150   -8.8360 C.2   187  ASP187      0.2266
    132  O         43.7550   28.2020   -9.8340 O.2   187  ASP187     -0.2867
    133  CB        40.8220   29.4660   -9.0550 C.3   187  ASP187      0.1410
    134  CG        39.4680   29.3090   -9.7170 C.2   187  ASP187      0.3668
    135  OD1       39.1520   28.2070  -10.2130 O.co2 187  ASP187     -0.2456
    136  OD2       38.7180   30.3150   -9.7580 O.co2 187  ASP187     -0.2456
    137  N         33.3220   33.2040   -3.1390 N.3   208  VAL208     -0.1245
    138  CA        32.7650   33.0620   -4.4670 C.3   208  VAL208      0.1561
    139  C         31.5850   32.1240   -4.4020 C.2   208  VAL208      0.2260
    140  O         31.7060   31.0310   -3.8310 O.2   208  VAL208     -0.2867
    141  CB        33.8210   32.5150   -5.4150 C.3   208  VAL208      0.0252
    142  CG1       33.2230   32.3020   -6.7730 C.3   208  VAL208      0.0019
    143  CG2       35.0150   33.5130   -5.4990 C.3   208  VAL208      0.0019
    144  N         28.5330   30.4390   -6.9760 N.3   210  HIS210     -0.1241
    145  CA        28.0200   30.2840   -8.3380 C.3   210  HIS210      0.1621
    146  C         26.7270   29.5200   -8.2710 C.2   210  HIS210      0.2264
    147  O         26.3620   29.0450   -7.2060 O.2   210  HIS210     -0.2867
    148  CB        29.0080   29.5710   -9.2720 C.3   210  HIS210      0.0745
    149  CG        30.1580   30.4310   -9.7360 C.ar  210  HIS210      0.0817
    150  ND1       30.9350   30.1020  -10.8250 N.ar  210  HIS210     -0.2268
    151  CD2       30.6440   31.6110   -9.2750 C.ar  210  HIS210      0.1154
    152  CE1       31.8460   31.0430  -11.0200 C.ar  210  HIS210      0.1986
    153  NE2       31.6910   31.9630  -10.0910 N.ar  210  HIS210     -0.2212
@<TRIPOS>BOND
     1    13    12    2
     2    12    11    1
     3    10    11    1
     4    11    14    1
     5    17    16   ar
     6    14    15    1
     7    15    16    1
     8    16    18   ar
     9     4     3    2
    10   105   106    1
    11   107   108    2
    12   107   106    1
    13     1     2    1
    14     3     2    1
    15   106   109    1
    16     2     5    1
    17    33    32    2
    18    34    35    1
    19    34    31    1
    20    35    36    1
    21    32    31    1
    22   109   110    1
    23    31    30    1
    24    38    36   am
    25    36    37    2
    26    77    75    1
    27     5     6    1
    28    85    86    1
    29    74    75    2
    30    74    73    1
    31    80    79    1
    32    80    81    2
    33    72    73    1
    34    72    71    1
    35   110   112   ar
    36   110   111   ar
    37   112   114   ar
    38    90    92    1
    39    90    89    1
    40    75    76    1
    41    86    89    1
    42    86    87    1
    43     6     7    1
    44     7     8    1
    45    79    82    1
    46    79    78    1
    47    30    25   am
    48    71    68    1
    49   111   113   ar
    50   114   115   ar
    51     8     9    1
    52    89    91    1
    53    68    67    1
    54    68    69    1
    55    19    20    1
    56    87    88    2
    57    82    83    1
    58    78    84    1
    59    26    25    2
    60    22    21    2
    61    25    24    1
    62   113   115   ar
    63   152   150   ar
    64   152   153   ar
    65    69    70    2
    66   150   149   ar
    67    21    20    1
    68    21    23   am
    69    83    84    1
    70   135   134   ar
    71    23    24    1
    72   153   151   ar
    73    24    27    1
    74   132   131    2
    75   136   134   ar
    76   149   151   ar
    77   149   148    1
    78   134   133    1
    79   148   145    1
    80   133   130    1
    81    28    27    1
    82    55    53    1
    83    97    98    1
    84    97    94    1
    85    27    29    1
    86   130   131    1
    87   130   129    1
    88   100    98   ar
    89   100   102   ar
    90   121   120    1
    91    98    99   ar
    92   145   146    1
    93   145   144    1
    94    95    94    1
    95    95    96    2
    96   146   147    2
    97    66    64    1
    98    93    94    1
    99   102   103   ar
   100    53    54    1
   101    53    52    1
   102    99   101   ar
   103    65    64    1
   104   120   117    1
   105   103   101   ar
   106   103   104    1
   107    64    63    2
   108    46    45   ar
   109   142   141    1
   110    47    45   ar
   111    52    49    1
   112    45    44    1
   113   128   127    1
   114   128   122    1
   115   117   116    1
   116   117   118    1
   117    63    62    1
   118   127   126    1
   119   125   124    2
   120   143   141    1
   121   141   138    1
   122   122   118   am
   123   122   123    1
   124    49    48    1
   125    49    50    1
   126   118   119    2
   127    44    43    1
   128   126   123    1
   129    62    61    1
   130   124   123    1
   131   138   139    1
   132   138   137    1
   133   139   140    2
   134    51    50    2
   135    43    40    1
   136    61    60    1
   137    39    40    1
   138    40    41    1
   139    60    57    1
   140    42    41    2
   141    57    56    1
   142    57    58    1
   143    58    59    2
