@<TRIPOS>MOLECULE
tmp/4nhkA00.pdb
 142 133 0 0 0
SMALL
GASTEIGER

@<TRIPOS>ATOM
      1  N        345.3400   34.6090  153.5760 N.3   126  ASN126     -0.1240
      2  CA       344.9050   35.0760  152.2700 C.3   126  ASN126      0.1653
      3  C        345.4310   36.4730  151.9800 C.2   126  ASN126      0.2266
      4  O        345.6410   37.2500  152.9050 O.2   126  ASN126     -0.2867
      5  CB       343.3760   35.0480  152.2130 C.3   126  ASN126      0.1155
      6  CG       342.8190   33.6570  152.4530 C.2   126  ASN126      0.2627
      7  OD1      342.8220   32.8050  151.5570 O.2   126  ASN126     -0.2716
      8  ND2      342.3360   33.4190  153.6530 N.am  126  ASN126     -0.0877
      9  N        344.5760   39.9000  149.5360 N.3   128  TYR128     -0.1241
     10  CA       343.6580   40.5580  148.6350 C.3   128  TYR128      0.1605
     11  C        344.4610   41.5850  147.8450 C.2   128  TYR128      0.2264
     12  O        345.1750   42.4080  148.4330 O.2   128  TYR128     -0.2867
     13  CB       342.5360   41.2380  149.3990 C.3   128  TYR128      0.0534
     14  CG       341.4780   40.3040  149.9350 C.ar  128  TYR128     -0.0201
     15  CD1      341.8020   39.2810  150.8210 C.ar  128  TYR128     -0.0009
     16  CD2      340.1410   40.4560  149.5700 C.ar  128  TYR128     -0.0009
     17  CE1      340.8230   38.4260  151.3130 C.ar  128  TYR128      0.0417
     18  CE2      339.1630   39.6200  150.0680 C.ar  128  TYR128      0.0417
     19  CZ       339.5040   38.6040  150.9260 C.ar  128  TYR128      0.1957
     20  OH       338.5290   37.7660  151.4140 O.3   128  TYR128     -0.2866
     21  N        335.0720   39.5880  148.8840 N.3   134  LEU134     -0.1245
     22  CA       334.3620   38.4480  149.4770 C.3   134  LEU134      0.1561
     23  C        332.9900   38.9550  149.8230 C.2   134  LEU134      0.2260
     24  O        332.8700   39.8670  150.6250 O.2   134  LEU134     -0.2867
     25  CB       335.0890   37.9000  150.7230 C.3   134  LEU134      0.0270
     26  CG       334.3670   36.8500  151.5760 C.3   134  LEU134      0.0019
     27  CD1      333.8780   35.6310  150.7930 C.3   134  LEU134      0.0001
     28  CD2      335.2820   36.3990  152.6920 C.3   134  LEU134      0.0001
     29  N        328.1470   36.9940  153.7900 N.3   137  HIS137     -0.1241
     30  CA       327.9790   35.6670  154.3820 C.3   137  HIS137      0.1621
     31  C        327.9750   35.7930  155.8950 C.2   137  HIS137      0.2264
     32  O        328.3190   36.8580  156.4360 O.2   137  HIS137     -0.2867
     33  CB       329.0870   34.7280  153.9060 C.3   137  HIS137      0.0745
     34  CG       330.4420   35.1290  154.3660 C.ar  137  HIS137      0.0817
     35  ND1      331.1250   36.2030  153.8360 N.ar  137  HIS137     -0.2268
     36  CD2      331.2290   34.6420  155.3620 C.ar  137  HIS137      0.1154
     37  CE1      332.2820   36.3430  154.4590 C.ar  137  HIS137      0.1986
     38  NE2      332.3620   35.4080  155.4030 N.ar  137  HIS137     -0.2212
     39  N        329.3020   33.2360  158.1730 N.3   139  ASP139     -0.1239
     40  CA       330.3060   32.3380  158.7700 C.3   139  ASP139      0.1674
     41  C        329.7280   31.0840  159.4440 C.2   139  ASP139      0.2266
     42  O        330.4740   30.2910  160.0390 O.2   139  ASP139     -0.2867
     43  CB       331.1720   33.0710  159.8120 C.3   139  ASP139      0.1410
     44  CG       332.3770   33.8060  159.2260 C.2   139  ASP139      0.3668
     45  OD1      333.2790   34.1660  160.0490 O.co2 139  ASP139     -0.2456
     46  OD2      332.4630   34.0570  158.0020 O.co2 139  ASP139     -0.2456
     47  N        332.0040   26.3240  164.3960 N.3   144  ARG144     -0.1245
     48  CA       332.5470   27.6690  164.5460 C.3   144  ARG144      0.1563
     49  C        331.7600   28.4560  165.5650 C.2   144  ARG144      0.2260
     50  O        330.5490   28.5210  165.4660 O.2   144  ARG144     -0.2867
     51  CB       332.5110   28.4260  163.2310 C.3   144  ARG144      0.0307
     52  CG       333.4150   27.8780  162.1710 C.3   144  ARG144      0.0489
     53  CD       333.0820   28.5910  160.8880 C.3   144  ARG144      0.2205
     54  NE       333.9370   28.2130  159.7760 N.pl3 144  ARG144     -0.0865
     55  CZ       333.8130   28.7270  158.5520 C.cat 144  ARG144      0.5346
     56  NH1      334.6340   28.3440  157.5950 N.pl3 144  ARG144      0.1354
     57  NH2      332.8650   29.6270  158.2950 N.pl3 144  ARG144      0.1354
     58  N        339.7170   37.9820  162.4870 N.3   149  ILE149     -0.1245
     59  CA       340.5820   38.3170  161.3680 C.3   149  ILE149      0.1561
     60  C        341.6800   39.2240  161.9040 C.2   149  ILE149      0.2260
     61  O        341.3980   40.2970  162.4130 O.2   149  ILE149     -0.2867
     62  CB       339.8710   39.0140  160.2160 C.3   149  ILE149      0.0252
     63  CG1      338.6460   38.2170  159.7490 C.3   149  ILE149      0.0019
     64  CG2      340.8280   39.1580  159.0430 C.3   149  ILE149      0.0019
     65  CD1      337.3630   38.7620  160.2540 C.3   149  ILE149      0.0001
     66  N        344.8820   41.3970  160.8440 N.3   151  TYR151     -0.1241
     67  CA       345.3320   42.0650  159.6230 C.3   151  TYR151      0.1605
     68  C        346.8320   42.3720  159.6000 C.2   151  TYR151      0.2264
     69  O        347.3970   42.8520  160.5770 O.2   151  TYR151     -0.2867
     70  CB       344.5170   43.3500  159.4150 C.3   151  TYR151      0.0534
     71  CG       343.0660   43.0490  159.0980 C.ar  151  TYR151     -0.0201
     72  CD1      342.1030   43.0440  160.0970 C.ar  151  TYR151     -0.0009
     73  CD2      342.6660   42.7330  157.8160 C.ar  151  TYR151     -0.0009
     74  CE1      340.7790   42.7490  159.8120 C.ar  151  TYR151      0.0417
     75  CE2      341.3400   42.4320  157.5280 C.ar  151  TYR151      0.0417
     76  CZ       340.4080   42.4470  158.5340 C.ar  151  TYR151      0.1957
     77  OH       339.0870   42.1450  158.2610 O.3   151  TYR151     -0.2866
     78  N        336.2910   45.6070  156.0980 N.3   167  LEU167     -0.1245
     79  CA       335.3690   44.6320  156.6630 C.3   167  LEU167      0.1561
     80  C        334.0420   45.3120  156.9630 C.2   167  LEU167      0.2260
     81  O        333.9830   46.2360  157.7700 O.2   167  LEU167     -0.2867
     82  CB       335.9550   44.0260  157.9330 C.3   167  LEU167      0.0270
     83  CG       335.0570   42.9900  158.6220 C.3   167  LEU167      0.0019
     84  CD1      335.0100   41.7110  157.8100 C.3   167  LEU167      0.0001
     85  CD2      335.5770   42.7320  160.0500 C.3   167  LEU167      0.0001
     86  N        328.4500   39.7060  157.1260 N.3   205  HIS205     -0.1241
     87  CA       329.5670   40.5870  156.8650 C.3   205  HIS205      0.1621
     88  C        330.1460   40.3000  155.4690 C.2   205  HIS205      0.2264
     89  O        329.8440   39.2610  154.8450 O.2   205  HIS205     -0.2867
     90  CB       330.6490   40.3910  157.9500 C.3   205  HIS205      0.0745
     91  CG       331.2020   39.0030  157.9820 C.ar  205  HIS205      0.0817
     92  ND1      330.5000   37.9310  158.5040 N.ar  205  HIS205     -0.2268
     93  CD2      332.3590   38.4960  157.5040 C.ar  205  HIS205      0.1154
     94  CE1      331.2170   36.8340  158.3620 C.ar  205  HIS205      0.1986
     95  NE2      332.3600   37.1480  157.7700 N.ar  205  HIS205     -0.2212
     96  N        333.8290   41.4040  152.7210 N.3   207  VAL207     -0.1245
     97  CA       335.0440   42.1870  152.5100 C.3   207  VAL207      0.1561
     98  C        334.9290   43.0010  151.2280 C.2   207  VAL207      0.2260
     99  O        334.8260   42.4520  150.1290 O.2   207  VAL207     -0.2867
    100  CB       336.3040   41.3000  152.4580 C.3   207  VAL207      0.0252
    101  CG1      337.5540   42.1480  152.1900 C.3   207  VAL207      0.0019
    102  CG2      336.4500   40.5080  153.7450 C.3   207  VAL207      0.0019
    103  N        346.9350   43.2340  150.3990 N.3   216  ARG216     -0.1245
    104  CA       346.7050   43.1290  151.8190 C.3   216  ARG216      0.1563
    105  C        346.6070   41.7020  152.3120 C.2   216  ARG216      0.2260
    106  O        345.7320   40.9380  151.9090 O.2   216  ARG216     -0.2867
    107  CB       345.4530   43.8390  152.2650 C.3   216  ARG216      0.0307
    108  CG       345.4750   43.7810  153.7850 C.3   216  ARG216      0.0489
    109  CD       344.2900   44.2130  154.3710 C.3   216  ARG216      0.2205
    110  NE       343.1720   43.3520  154.0540 N.pl3 216  ARG216     -0.0865
    111  CZ       341.9450   43.8150  154.1150 C.cat 216  ARG216      0.5346
    112  NH1      341.7660   45.0710  154.5030 N.pl3 216  ARG216      0.1354
    113  NH2      340.9080   43.0390  153.8240 N.pl3 216  ARG216      0.1354
    114  N        345.8940   38.9820  155.3290 N.3   218  SER218     -0.1217
    115  CA       345.1360   38.7750  156.5620 C.3   218  SER218      0.1889
    116  C        345.1990   37.3270  156.9900 C.2   218  SER218      0.2288
    117  O        345.3810   36.4320  156.1710 O.2   218  SER218     -0.2866
    118  CB       343.6690   39.1940  156.3860 C.3   218  SER218      0.2089
    119  OG       343.0310   38.4800  155.3410 O.3   218  SER218     -0.2183
    120  N        342.6180   34.8630  158.8230 N.3   220  GLN220     -0.1245
    121  CA       341.2580   34.6110  159.2680 C.3   220  GLN220      0.1566
    122  C        341.2730   33.3570  160.0850 C.2   220  GLN220      0.2260
    123  O        341.9580   32.4020  159.7270 O.2   220  GLN220     -0.2867
    124  CB       340.2950   34.4340  158.0650 C.3   220  GLN220      0.0367
    125  CG       338.9590   33.6750  158.4110 C.3   220  GLN220      0.0905
    126  CD       337.9110   34.6110  159.0580 C.2   220  GLN220      0.2608
    127  OE1      337.5020   35.5970  158.4410 O.2   220  GLN220     -0.2717
    128  NE2      337.4770   34.3020  160.2740 N.am  220  GLN220     -0.0878
    129  N        338.8970   30.8270  163.2600 N.3   222  TRP222     -0.1241
    130  CA       337.7730   30.5810  164.1350 C.3   222  TRP222      0.1605
    131  C        338.1880   29.8470  165.4020 C.2   222  TRP222      0.2264
    132  O        338.9980   28.9160  165.3660 O.2   222  TRP222     -0.2867
    133  CB       336.7000   29.7580  163.4330 C.3   222  TRP222      0.0550
    134  CG       336.0460   30.5160  162.3560 C.ar  222  TRP222      0.0003
    135  CD1      334.9860   31.3700  162.4680 C.ar  222  TRP222      0.0946
    136  CD2      336.4330   30.5180  160.9920 C.ar  222  TRP222      0.0152
    137  NE1      334.6950   31.9060  161.2440 N.ar  222  TRP222     -0.2442
    138  CE2      335.5730   31.4010  160.3180 C.ar  222  TRP222      0.0810
    139  CE3      337.4400   29.8650  160.2700 C.ar  222  TRP222      0.0012
    140  CZ2      335.6640   31.6280  158.9520 C.ar  222  TRP222      0.0191
    141  CZ3      337.5400   30.1040  158.9100 C.ar  222  TRP222      0.0001
    142  CH2      336.6550   30.9780  158.2660 C.ar  222  TRP222      0.0015
@<TRIPOS>BOND
     1    11    12    2
     2    11    10    1
     3    10    13    1
     4    10     9    1
     5    21    22    1
     6    13    14    1
     7    22    23    1
     8    22    25    1
     9    16    14   ar
    10    16    18   ar
    11    23    24    2
    12    14    15   ar
    13    18    19   ar
    14    99    98    2
    15   103   104    1
    16    25    26    1
    17    27    26    1
    18    15    17   ar
    19    19    17   ar
    20    19    20    1
    21    98    97    1
    22     7     6    2
    23    26    28    1
    24   104   107    1
    25   104   105    1
    26   106   105    2
    27     3     2    1
    28     3     4    2
    29   101   100    1
    30     5     2    1
    31     5     6    1
    32   107   108    1
    33     2     1    1
    34     6     8   am
    35   100    97    1
    36   100   102    1
    37    97    96    1
    38   108   109    1
    39    29    30    1
    40   113   111    1
    41    35    34   ar
    42    35    37   ar
    43    33    34    1
    44    33    30    1
    45   110   111    2
    46   110   109    1
    47   111   112    1
    48    34    36   ar
    49    30    31    1
    50    37    38   ar
    51    89    88    2
    52   114   115    1
    53   119   118    1
    54    36    38   ar
    55    88    87    1
    56    31    32    2
    57    78    79    1
    58   117   116    2
    59   118   115    1
    60   115   116    1
    61    79    80    1
    62    79    82    1
    63    87    86    1
    64    87    90    1
    65    80    81    2
    66    93    95   ar
    67    93    91   ar
    68    75    73   ar
    69    75    76   ar
    70    56    55    1
    71    95    94   ar
    72    84    83    1
    73    73    71   ar
    74    82    83    1
    75    90    91    1
    76    91    92   ar
    77    46    44   ar
    78   124   125    1
    79   124   121    1
    80    39    40    1
    81    77    76    1
    82   142   141   ar
    83   142   140   ar
    84    57    55    1
    85    94    92   ar
    86   125   126    1
    87   127   126    2
    88    76    74   ar
    89    55    54    2
    90    83    85    1
    91    40    41    1
    92    40    43    1
    93   120   121    1
    94   141   139   ar
    95   140   138   ar
    96    64    62    1
    97   126   128   am
    98    71    70    1
    99    71    72   ar
   100    44    43    1
   101    44    45   ar
   102   121   122    1
   103    70    67    1
   104    41    42    2
   105    68    67    1
   106    68    69    2
   107    67    66    1
   108   123   122    2
   109    63    62    1
   110    63    65    1
   111    54    53    1
   112    74    72   ar
   113    62    59    1
   114   139   136   ar
   115   138   136   ar
   116   138   137   ar
   117    53    52    1
   118   136   134   ar
   119   137   135   ar
   120    59    60    1
   121    59    58    1
   122    60    61    2
   123    52    51    1
   124   134   135   ar
   125   134   133    1
   126    51    48    1
   127   129   130    1
   128   133   130    1
   129   130   131    1
   130    47    48    1
   131    48    49    1
   132   132   131    2
   133    50    49    2
