@<TRIPOS>MOLECULE
tmp/4nhlA00.pdb
 142 133 0 0 0
SMALL
GASTEIGER

@<TRIPOS>ATOM
      1  N        345.1460   34.8190  153.8620 N.3   126  ASN126     -0.1240
      2  CA       344.7280   35.3460  152.5660 C.3   126  ASN126      0.1653
      3  C        345.2970   36.7040  152.3000 C.2   126  ASN126      0.2266
      4  O        345.6110   37.4470  153.2300 O.2   126  ASN126     -0.2867
      5  CB       343.2160   35.4550  152.4890 C.3   126  ASN126      0.1155
      6  CG       342.5320   34.1700  152.8370 C.2   126  ASN126      0.2627
      7  OD1      342.4480   33.2560  152.0110 O.2   126  ASN126     -0.2716
      8  ND2      342.0400   34.0760  154.0750 N.am  126  ASN126     -0.0877
      9  N        344.0610   40.0410  149.7890 N.3   128  TYR128     -0.1241
     10  CA       343.1480   40.6380  148.8180 C.3   128  TYR128      0.1605
     11  C        343.8710   41.7510  148.0700 C.2   128  TYR128      0.2264
     12  O        344.3560   42.6960  148.6880 O.2   128  TYR128     -0.2867
     13  CB       341.9180   41.2220  149.5020 C.3   128  TYR128      0.0534
     14  CG       340.9750   40.2330  150.1260 C.ar  128  TYR128     -0.0201
     15  CD1      341.3230   39.5270  151.2790 C.ar  128  TYR128     -0.0009
     16  CD2      339.7080   40.0420  149.5940 C.ar  128  TYR128     -0.0009
     17  CE1      340.4330   38.6250  151.8580 C.ar  128  TYR128      0.0417
     18  CE2      338.8210   39.1580  150.1640 C.ar  128  TYR128      0.0417
     19  CZ       339.1840   38.4520  151.2890 C.ar  128  TYR128      0.1957
     20  OH       338.2950   37.5780  151.8450 O.3   128  TYR128     -0.2866
     21  N        335.0300   39.7200  148.9410 N.3   134  LEU134     -0.1245
     22  CA       334.2730   38.5950  149.4730 C.3   134  LEU134      0.1561
     23  C        332.8670   39.0280  149.8330 C.2   134  LEU134      0.2260
     24  O        332.6920   39.7910  150.7700 O.2   134  LEU134     -0.2867
     25  CB       334.9970   37.9960  150.6980 C.3   134  LEU134      0.0270
     26  CG       334.1900   37.0140  151.5510 C.3   134  LEU134      0.0019
     27  CD1      333.7000   35.8170  150.7210 C.3   134  LEU134      0.0001
     28  CD2      335.0000   36.5780  152.7860 C.3   134  LEU134      0.0001
     29  N        328.0160   37.0090  153.9510 N.3   137  HIS137     -0.1241
     30  CA       327.8160   35.7070  154.5460 C.3   137  HIS137      0.1621
     31  C        327.8190   35.8120  156.0920 C.2   137  HIS137      0.2264
     32  O        328.2380   36.8250  156.6330 O.2   137  HIS137     -0.2867
     33  CB       328.8990   34.7720  154.0600 C.3   137  HIS137      0.0745
     34  CG       330.2680   35.2210  154.4170 C.ar  137  HIS137      0.0817
     35  ND1      330.8710   36.3090  153.8230 N.ar  137  HIS137     -0.2268
     36  CD2      331.1680   34.7330  155.3030 C.ar  137  HIS137      0.1154
     37  CE1      332.0780   36.4740  154.3310 C.ar  137  HIS137      0.1986
     38  NE2      332.2840   35.5320  155.2360 N.ar  137  HIS137     -0.2212
     39  N        329.2370   33.1930  158.1720 N.3   139  ASP139     -0.1239
     40  CA       330.3250   32.3820  158.7340 C.3   139  ASP139      0.1674
     41  C        329.8400   31.0630  159.3720 C.2   139  ASP139      0.2266
     42  O        330.6470   30.2260  159.7720 O.2   139  ASP139     -0.2867
     43  CB       331.1190   33.1750  159.7860 C.3   139  ASP139      0.1410
     44  CG       332.2900   33.9160  159.1970 C.2   139  ASP139      0.3668
     45  OD1      333.3240   34.0680  159.8840 O.co2 139  ASP139     -0.2456
     46  OD2      332.1900   34.3530  158.0390 O.co2 139  ASP139     -0.2456
     47  N        332.0510   26.3770  164.2380 N.3   144  ARG144     -0.1245
     48  CA       332.5780   27.7300  164.4610 C.3   144  ARG144      0.1563
     49  C        331.7430   28.4350  165.5100 C.2   144  ARG144      0.2260
     50  O        330.5250   28.3960  165.4320 O.2   144  ARG144     -0.2867
     51  CB       332.5790   28.5550  163.1720 C.3   144  ARG144      0.0307
     52  CG       333.4580   27.9840  162.0520 C.3   144  ARG144      0.0489
     53  CD       333.3090   28.8370  160.8430 C.3   144  ARG144      0.2205
     54  NE       334.1360   28.4610  159.7100 N.pl3 144  ARG144     -0.0865
     55  CZ       334.0670   29.0890  158.5350 C.cat 144  ARG144      0.5346
     56  NH1      334.8480   28.7190  157.5340 N.pl3 144  ARG144      0.1354
     57  NH2      333.2200   30.1080  158.3580 N.pl3 144  ARG144      0.1354
     58  N        339.7090   37.9760  162.8090 N.3   149  ILE149     -0.1245
     59  CA       340.5740   38.2850  161.6960 C.3   149  ILE149      0.1561
     60  C        341.6810   39.1720  162.1990 C.2   149  ILE149      0.2260
     61  O        341.4090   40.2270  162.7540 O.2   149  ILE149     -0.2867
     62  CB       339.8650   39.0190  160.5530 C.3   149  ILE149      0.0252
     63  CG1      338.6570   38.2430  160.0400 C.3   149  ILE149      0.0019
     64  CG2      340.8660   39.2650  159.4290 C.3   149  ILE149      0.0019
     65  CD1      337.3490   38.8230  160.4790 C.3   149  ILE149      0.0001
     66  N        344.8320   41.4510  161.1000 N.3   151  TYR151     -0.1241
     67  CA       345.3060   42.1490  159.8940 C.3   151  TYR151      0.1605
     68  C        346.8050   42.4370  159.9190 C.2   151  TYR151      0.2264
     69  O        347.3310   42.9120  160.9080 O.2   151  TYR151     -0.2867
     70  CB       344.5200   43.4560  159.7180 C.3   151  TYR151      0.0534
     71  CG       343.0580   43.1910  159.5300 C.ar  151  TYR151     -0.0201
     72  CD1      342.1440   43.5090  160.5170 C.ar  151  TYR151     -0.0009
     73  CD2      342.5960   42.5830  158.3710 C.ar  151  TYR151     -0.0009
     74  CE1      340.7910   43.2410  160.3540 C.ar  151  TYR151      0.0417
     75  CE2      341.2470   42.3090  158.1840 C.ar  151  TYR151      0.0417
     76  CZ       340.3450   42.6340  159.1780 C.ar  151  TYR151      0.1957
     77  OH       339.0060   42.3500  159.0050 O.3   151  TYR151     -0.2866
     78  N        336.1320   45.6560  156.2620 N.3   167  LEU167     -0.1245
     79  CA       335.1970   44.7370  156.8830 C.3   167  LEU167      0.1561
     80  C        333.8870   45.4400  157.0970 C.2   167  LEU167      0.2260
     81  O        333.8230   46.3840  157.8850 O.2   167  LEU167     -0.2867
     82  CB       335.7200   44.2490  158.2210 C.3   167  LEU167      0.0270
     83  CG       334.8530   43.1960  158.9140 C.3   167  LEU167      0.0019
     84  CD1      334.7290   41.9170  158.0710 C.3   167  LEU167      0.0001
     85  CD2      335.4360   42.9050  160.2920 C.3   167  LEU167      0.0001
     86  N        328.3170   39.6630  157.1600 N.3   205  HIS205     -0.1241
     87  CA       329.4400   40.5940  156.9800 C.3   205  HIS205      0.1621
     88  C        330.0450   40.3670  155.6190 C.2   205  HIS205      0.2264
     89  O        329.7080   39.3840  154.9930 O.2   205  HIS205     -0.2867
     90  CB       330.5110   40.3750  158.0520 C.3   205  HIS205      0.0745
     91  CG       331.0600   38.9860  158.0610 C.ar  205  HIS205      0.0817
     92  ND1      330.3160   37.9010  158.4750 N.ar  205  HIS205     -0.2268
     93  CD2      332.2610   38.4930  157.6780 C.ar  205  HIS205      0.1154
     94  CE1      331.0370   36.8050  158.3520 C.ar  205  HIS205      0.1986
     95  NE2      332.2270   37.1350  157.8750 N.ar  205  HIS205     -0.2212
     96  N        333.6990   41.5890  152.7180 N.3   207  VAL207     -0.1245
     97  CA       334.9500   42.3140  152.5620 C.3   207  VAL207      0.1561
     98  C        334.8700   43.1460  151.2860 C.2   207  VAL207      0.2260
     99  O        334.9100   42.6210  150.1690 O.2   207  VAL207     -0.2867
    100  CB       336.1610   41.3670  152.5190 C.3   207  VAL207      0.0252
    101  CG1      337.4570   42.1390  152.3080 C.3   207  VAL207      0.0019
    102  CG2      336.2310   40.5650  153.7950 C.3   207  VAL207      0.0019
    103  N        346.3110   43.6200  150.9040 N.3   216  ARG216     -0.1245
    104  CA       345.6460   43.4580  152.1820 C.3   216  ARG216      0.1563
    105  C        345.8680   42.0340  152.6860 C.2   216  ARG216      0.2260
    106  O        345.1680   41.1180  152.2520 O.2   216  ARG216     -0.2867
    107  CB       344.1550   43.7450  152.0250 C.3   216  ARG216      0.0307
    108  CG       343.2820   43.5610  153.2700 C.3   216  ARG216      0.0489
    109  CD       341.8470   43.4360  152.7860 C.3   216  ARG216      0.2205
    110  NE       340.8060   43.6240  153.7900 N.pl3 216  ARG216     -0.0865
    111  CZ       340.3850   42.6880  154.6370 C.cat 216  ARG216      0.5346
    112  NH1      340.9410   41.4840  154.6570 N.pl3 216  ARG216      0.1354
    113  NH2      339.4040   42.9630  155.4810 N.pl3 216  ARG216      0.1354
    114  N        345.6620   39.2300  155.5360 N.3   218  SER218     -0.1217
    115  CA       344.9660   38.8910  156.7800 C.3   218  SER218      0.1889
    116  C        345.2240   37.4670  157.2230 C.2   218  SER218      0.2288
    117  O        345.6260   36.6120  156.4290 O.2   218  SER218     -0.2866
    118  CB       343.4470   39.0930  156.6650 C.3   218  SER218      0.2089
    119  OG       342.8850   38.4240  155.5490 O.3   218  SER218     -0.2183
    120  N        342.5560   35.2130  158.9120 N.3   220  GLN220     -0.1245
    121  CA       341.2230   34.8890  159.3880 C.3   220  GLN220      0.1566
    122  C        341.3500   33.6030  160.2010 C.2   220  GLN220      0.2260
    123  O        342.2190   32.7760  159.9320 O.2   220  GLN220     -0.2867
    124  CB       340.2550   34.7480  158.1900 C.3   220  GLN220      0.0367
    125  CG       338.9730   33.9340  158.4160 C.3   220  GLN220      0.0905
    126  CD       337.8380   34.7130  159.1060 C.2   220  GLN220      0.2608
    127  OE1      337.2240   35.5890  158.5050 O.2   220  GLN220     -0.2717
    128  NE2      337.5400   34.3640  160.3560 N.am  220  GLN220     -0.0878
    129  N        339.0980   30.9650  163.4690 N.3   222  TRP222     -0.1241
    130  CA       337.9080   30.7160  164.2760 C.3   222  TRP222      0.1605
    131  C        338.2160   30.0320  165.5610 C.2   222  TRP222      0.2264
    132  O        339.1120   29.1990  165.6310 O.2   222  TRP222     -0.2867
    133  CB       336.9090   29.8540  163.5250 C.3   222  TRP222      0.0550
    134  CG       336.2710   30.6090  162.4540 C.ar  222  TRP222      0.0003
    135  CD1      335.1770   31.4240  162.5590 C.ar  222  TRP222      0.0946
    136  CD2      336.6910   30.6640  161.0890 C.ar  222  TRP222      0.0152
    137  NE1      334.8940   31.9740  161.3420 N.ar  222  TRP222     -0.2442
    138  CE2      335.8010   31.5240  160.4230 C.ar  222  TRP222      0.0810
    139  CE3      337.7300   30.0730  160.3740 C.ar  222  TRP222      0.0012
    140  CZ2      335.9190   31.8010  159.0710 C.ar  222  TRP222      0.0191
    141  CZ3      337.8470   30.3530  159.0460 C.ar  222  TRP222      0.0001
    142  CH2      336.9480   31.2080  158.4010 C.ar  222  TRP222      0.0015
@<TRIPOS>BOND
     1    11    12    2
     2    11    10    1
     3    10    13    1
     4    10     9    1
     5    21    22    1
     6    22    23    1
     7    22    25    1
     8    13    14    1
     9    16    14   ar
    10    16    18   ar
    11    23    24    2
    12    14    15   ar
    13    18    19   ar
    14    99    98    2
    15    25    26    1
    16    27    26    1
    17   103   104    1
    18    15    17   ar
    19    98    97    1
    20    19    20    1
    21    19    17   ar
    22    26    28    1
    23     7     6    2
    24   107   104    1
    25   107   108    1
    26   104   105    1
    27   106   105    2
    28     3     2    1
    29     3     4    2
    30   101   100    1
    31     5     2    1
    32     5     6    1
    33   100    97    1
    34   100   102    1
    35    97    96    1
    36     2     1    1
    37   109   108    1
    38   109   110    1
    39     6     8   am
    40   110   111    2
    41    35    37   ar
    42    35    34   ar
    43    29    30    1
    44    33    34    1
    45    33    30    1
    46    37    38   ar
    47    34    36   ar
    48    30    31    1
    49   111   112    1
    50   111   113    1
    51    89    88    2
    52    38    36   ar
    53   114   115    1
    54   119   118    1
    55    88    87    1
    56    31    32    2
    57    78    79    1
    58   117   116    2
    59   118   115    1
    60   115   116    1
    61    79    80    1
    62    79    82    1
    63    87    86    1
    64    87    90    1
    65    80    81    2
    66    56    55    1
    67    93    95   ar
    68    93    91   ar
    69    95    94   ar
    70    46    44   ar
    71    90    91    1
    72    91    92   ar
    73    84    83    1
    74    39    40    1
    75    75    73   ar
    76    75    76   ar
    77   124   125    1
    78   124   121    1
    79    82    83    1
    80    94    92   ar
    81    57    55    1
    82    73    71   ar
    83   142   141   ar
    84   142   140   ar
    85   125   126    1
    86   127   126    2
    87    55    54    2
    88    40    41    1
    89    40    43    1
    90   120   121    1
    91    83    85    1
    92    77    76    1
    93   141   139   ar
    94   140   138   ar
    95   126   128   am
    96    76    74   ar
    97    44    43    1
    98    44    45   ar
    99    41    42    2
   100   121   122    1
   101    64    62    1
   102    71    70    1
   103    71    72   ar
   104    54    53    1
   105    70    67    1
   106    67    68    1
   107    67    66    1
   108    68    69    2
   109   123   122    2
   110    63    65    1
   111    63    62    1
   112    74    72   ar
   113   139   136   ar
   114   138   136   ar
   115   138   137   ar
   116    62    59    1
   117    53    52    1
   118   136   134   ar
   119   137   135   ar
   120    59    60    1
   121    59    58    1
   122    52    51    1
   123    60    61    2
   124   134   135   ar
   125   134   133    1
   126    51    48    1
   127   129   130    1
   128   133   130    1
   129    47    48    1
   130   130   131    1
   131    48    49    1
   132    50    49    2
   133   131   132    2
