@<TRIPOS>MOLECULE
tmp/4nhmA00.pdb
 176 164 0 0 0
SMALL
GASTEIGER

@<TRIPOS>ATOM
      1  N        165.5990   40.0150  146.9410 N.3    66  TYR66      -0.1241
      2  CA       166.8750   40.6760  147.2540 C.3    66  TYR66       0.1605
      3  C        167.8930   40.6330  146.1360 C.2    66  TYR66       0.2264
      4  O        167.7790   39.8710  145.1800 O.2    66  TYR66      -0.2867
      5  CB       167.4980   40.0720  148.5260 C.3    66  TYR66       0.0534
      6  CG       167.9830   38.6340  148.4500 C.ar   66  TYR66      -0.0201
      7  CD1      169.0990   38.2860  147.6960 C.ar   66  TYR66      -0.0009
      8  CD2      167.3330   37.6290  149.1520 C.ar   66  TYR66      -0.0009
      9  CE1      169.5520   36.9740  147.6330 C.ar   66  TYR66       0.0417
     10  CE2      167.7560   36.3160  149.0880 C.ar   66  TYR66       0.0417
     11  CZ       168.8770   35.9930  148.3380 C.ar   66  TYR66       0.1957
     12  OH       169.3190   34.6890  148.2830 O.3    66  TYR66      -0.2866
     13  N        172.0220   40.7570  146.8040 N.3    68  VAL68      -0.1245
     14  CA       173.0610   40.8160  147.8340 C.3    68  VAL68       0.1561
     15  C        174.3560   40.0890  147.5150 C.2    68  VAL68       0.2260
     16  O        174.3520   39.1270  146.7380 O.2    68  VAL68      -0.2867
     17  CB       172.5510   40.4370  149.2770 C.3    68  VAL68       0.0252
     18  CG1      171.2350   41.1090  149.6020 C.3    68  VAL68       0.0019
     19  CG2      172.3780   38.9570  149.4350 C.3    68  VAL68       0.0019
     20  N        176.7170   37.6530  148.9340 N.3    70  GLN70      -0.1245
     21  CA       176.7230   36.7050  150.0450 C.3    70  GLN70       0.1566
     22  C        178.0120   35.9170  150.0920 C.2    70  GLN70       0.2260
     23  O        178.7170   35.8070  149.0920 O.2    70  GLN70      -0.2867
     24  CB       175.5570   35.7150  149.9240 C.3    70  GLN70       0.0367
     25  CG       174.2360   36.3870  149.8560 C.3    70  GLN70       0.0905
     26  CD       173.0330   35.4840  150.1610 C.2    70  GLN70       0.2608
     27  OE1      172.5380   34.7730  149.2790 O.2    70  GLN70      -0.2717
     28  NE2      172.5310   35.5520  151.4010 N.am   70  GLN70      -0.0878
     29  N        175.6620   35.4180  159.4300 N.3   124  SER124     -0.1217
     30  CA       176.1130   35.4100  158.0590 C.3   124  SER124      0.1889
     31  C        176.7220   36.7750  157.7320 C.2   124  SER124      0.2288
     32  O        176.4210   37.7930  158.3860 O.2   124  SER124     -0.2866
     33  CB       174.9650   34.9850  157.1250 C.3   124  SER124      0.2089
     34  OG       174.2120   36.0460  156.6150 O.3   124  SER124     -0.2183
     35  N        177.5940   39.5380  154.8380 N.3   126  ASN126     -0.1240
     36  CA       177.1050   39.9970  153.5590 C.3   126  ASN126      0.1653
     37  C        177.5330   41.4220  153.2810 C.2   126  ASN126      0.2266
     38  O        177.7720   42.1970  154.2040 O.2   126  ASN126     -0.2867
     39  CB       175.5760   39.9100  153.5080 C.3   126  ASN126      0.1155
     40  CG       175.0640   38.4930  153.7220 C.2   126  ASN126      0.2627
     41  OD1      175.1330   37.6490  152.8280 O.2   126  ASN126     -0.2716
     42  ND2      174.5500   38.2320  154.8960 N.am  126  ASN126     -0.0877
     43  N        176.1380   44.7550  150.8680 N.3   128  TYR128     -0.1241
     44  CA       175.2780   45.4170  149.9190 C.3   128  TYR128      0.1605
     45  C        176.0660   46.5210  149.2060 C.2   128  TYR128      0.2264
     46  O        176.5270   47.4720  149.8440 O.2   128  TYR128     -0.2867
     47  CB       174.0690   46.0150  150.6220 C.3   128  TYR128      0.0534
     48  CG       173.1300   45.0200  151.2730 C.ar  128  TYR128     -0.0201
     49  CD1      173.4380   44.4380  152.4940 C.ar  128  TYR128     -0.0009
     50  CD2      171.9130   44.6800  150.6760 C.ar  128  TYR128     -0.0009
     51  CE1      172.5720   43.5330  153.1100 C.ar  128  TYR128      0.0417
     52  CE2      171.0300   43.7710  151.2900 C.ar  128  TYR128      0.0417
     53  CZ       171.3690   43.2040  152.5070 C.ar  128  TYR128      0.1957
     54  OH       170.5210   42.3020  153.1260 O.3   128  TYR128     -0.2866
     55  N        167.1670   44.5330  150.0260 N.3   134  LEU134     -0.1245
     56  CA       166.3990   43.4270  150.5850 C.3   134  LEU134      0.1561
     57  C        165.0400   43.9710  150.9500 C.2   134  LEU134      0.2260
     58  O        164.9230   44.8920  151.7610 O.2   134  LEU134     -0.2867
     59  CB       167.0930   42.8250  151.7990 C.3   134  LEU134      0.0270
     60  CG       166.3430   41.8330  152.6720 C.3   134  LEU134      0.0019
     61  CD1      165.7840   40.6560  151.9020 C.3   134  LEU134      0.0001
     62  CD2      167.2830   41.3750  153.7780 C.3   134  LEU134      0.0001
     63  N        160.2510   42.0010  154.9730 N.3   137  HIS137     -0.1241
     64  CA       160.1270   40.6450  155.5180 C.3   137  HIS137      0.1621
     65  C        160.1440   40.7290  157.0450 C.2   137  HIS137      0.2264
     66  O        160.4960   41.7750  157.6050 O.2   137  HIS137     -0.2867
     67  CB       161.2590   39.7430  155.0080 C.3   137  HIS137      0.0745
     68  CG       162.6130   40.1730  155.4730 C.ar  137  HIS137      0.0817
     69  ND1      163.2200   41.3110  155.0090 N.ar  137  HIS137     -0.2268
     70  CD2      163.4410   39.6410  156.3980 C.ar  137  HIS137      0.1154
     71  CE1      164.3850   41.4650  155.6190 C.ar  137  HIS137      0.1986
     72  NE2      164.5450   40.4630  156.4650 N.ar  137  HIS137     -0.2212
     73  N        161.4860   38.0870  159.2360 N.3   139  ASP139     -0.1239
     74  CA       162.5300   37.2040  159.7820 C.3   139  ASP139      0.1674
     75  C        161.9800   35.9240  160.4330 C.2   139  ASP139      0.2266
     76  O        162.7420   35.1700  161.0210 O.2   139  ASP139     -0.2867
     77  CB       163.4000   37.9180  160.8330 C.3   139  ASP139      0.1410
     78  CG       164.5820   38.7160  160.2490 C.2   139  ASP139      0.3668
     79  OD1      165.4190   39.1240  161.0940 O.co2 139  ASP139     -0.2456
     80  OD2      164.7170   38.9300  159.0200 O.co2 139  ASP139     -0.2456
     81  N        164.2920   31.1050  165.4080 N.3   144  ARG144     -0.1245
     82  CA       164.7830   32.4600  165.5620 C.3   144  ARG144      0.1563
     83  C        163.9890   33.2290  166.6010 C.2   144  ARG144      0.2260
     84  O        162.7650   33.2600  166.5520 O.2   144  ARG144     -0.2867
     85  CB       164.7380   33.2050  164.2430 C.3   144  ARG144      0.0307
     86  CG       165.5830   32.6000  163.1760 C.3   144  ARG144      0.0489
     87  CD       165.3160   33.3540  161.9200 C.3   144  ARG144      0.2205
     88  NE       166.0830   32.9020  160.7840 N.pl3 144  ARG144     -0.0865
     89  CZ       165.9270   33.3870  159.5530 C.cat 144  ARG144      0.5346
     90  NH1      166.6680   32.9180  158.5680 N.pl3 144  ARG144      0.1354
     91  NH2      165.0230   34.3340  159.3120 N.pl3 144  ARG144      0.1354
     92  N        171.8740   42.8480  163.7130 N.3   149  ILE149     -0.1245
     93  CA       172.7710   43.2110  162.6410 C.3   149  ILE149      0.1561
     94  C        173.8420   44.0990  163.2300 C.2   149  ILE149      0.2260
     95  O        173.5500   45.1630  163.7730 O.2   149  ILE149     -0.2867
     96  CB       172.0570   43.9440  161.4610 C.3   149  ILE149      0.0252
     97  CG1      170.7770   43.2130  161.0110 C.3   149  ILE149      0.0019
     98  CG2      173.0310   44.0930  160.3210 C.3   149  ILE149      0.0019
     99  CD1      169.4770   43.7260  161.6560 C.3   149  ILE149      0.0001
    100  N        177.0250   46.2820  162.1570 N.3   151  TYR151     -0.1241
    101  CA       177.4790   46.9800  160.9600 C.3   151  TYR151      0.1605
    102  C        178.9960   47.2530  160.9560 C.2   151  TYR151      0.2264
    103  O        179.5670   47.7290  161.9400 O.2   151  TYR151     -0.2867
    104  CB       176.7010   48.3010  160.8060 C.3   151  TYR151      0.0534
    105  CG       175.1980   48.0900  160.7050 C.ar  151  TYR151     -0.0201
    106  CD1      174.3610   48.3870  161.7740 C.ar  151  TYR151     -0.0009
    107  CD2      174.6270   47.5600  159.5550 C.ar  151  TYR151     -0.0009
    108  CE1      173.0000   48.1490  161.7010 C.ar  151  TYR151      0.0417
    109  CE2      173.2570   47.3480  159.4580 C.ar  151  TYR151      0.0417
    110  CZ       172.4470   47.6480  160.5380 C.ar  151  TYR151      0.1957
    111  OH       171.0770   47.4190  160.4820 O.3   151  TYR151     -0.2866
    112  N        168.4010   50.6120  157.2610 N.3   167  LEU167     -0.1245
    113  CA       167.4660   49.6500  157.8460 C.3   167  LEU167      0.1561
    114  C        166.1120   50.3350  158.0880 C.2   167  LEU167      0.2260
    115  O        166.0210   51.3100  158.8410 O.2   167  LEU167     -0.2867
    116  CB       168.0070   49.0920  159.1580 C.3   167  LEU167      0.0270
    117  CG       167.0310   48.2790  160.0200 C.3   167  LEU167      0.0019
    118  CD1      166.6210   46.9930  159.3220 C.3   167  LEU167      0.0001
    119  CD2      167.6070   48.0130  161.4220 C.3   167  LEU167      0.0001
    120  N        160.6210   44.6530  158.2800 N.3   205  HIS205     -0.1241
    121  CA       161.7650   45.5080  158.0560 C.3   205  HIS205      0.1621
    122  C        162.3410   45.2250  156.6560 C.2   205  HIS205      0.2264
    123  O        161.9910   44.2290  156.0060 O.2   205  HIS205     -0.2867
    124  CB       162.8170   45.2970  159.1450 C.3   205  HIS205      0.0745
    125  CG       163.3460   43.8980  159.2060 C.ar  205  HIS205      0.0817
    126  ND1      162.6130   42.8500  159.7100 N.ar  205  HIS205     -0.2268
    127  CD2      164.5290   43.3750  158.7950 C.ar  205  HIS205      0.1154
    128  CE1      163.3180   41.7370  159.6120 C.ar  205  HIS205      0.1986
    129  NE2      164.4850   42.0190  159.0580 N.ar  205  HIS205     -0.2212
    130  N        166.0070   46.3610  153.8750 N.3   207  VAL207     -0.1245
    131  CA       167.2190   47.1240  153.6240 C.3   207  VAL207      0.1561
    132  C        167.0200   47.9510  152.3720 C.2   207  VAL207      0.2260
    133  O        166.8670   47.4280  151.2510 O.2   207  VAL207     -0.2867
    134  CB       168.4490   46.2310  153.4650 C.3   207  VAL207      0.0252
    135  CG1      169.6600   47.0580  153.1370 C.3   207  VAL207      0.0019
    136  CG2      168.6630   45.3860  154.7120 C.3   207  VAL207      0.0019
    137  N        178.4450   48.2870  151.8930 N.3   216  ARG216     -0.1245
    138  CA       177.7860   48.1800  153.1850 C.3   216  ARG216      0.1563
    139  C        177.9750   46.7620  153.7350 C.2   216  ARG216      0.2260
    140  O        177.2690   45.8340  153.3530 O.2   216  ARG216     -0.2867
    141  CB       176.3010   48.5260  153.0500 C.3   216  ARG216      0.0307
    142  CG       175.4870   48.4870  154.3640 C.3   216  ARG216      0.0489
    143  CD       174.0480   48.2390  153.9740 C.3   216  ARG216      0.2205
    144  NE       173.0060   48.5680  154.9530 N.pl3 216  ARG216     -0.0865
    145  CZ       172.4110   47.7130  155.7800 C.cat 216  ARG216      0.5346
    146  NH1      172.7940   46.4450  155.8770 N.pl3 216  ARG216      0.1354
    147  NH2      171.4310   48.1580  156.5470 N.pl3 216  ARG216      0.1354
    148  N        178.0650   43.9210  156.7200 N.3   218  SER218     -0.1217
    149  CA       177.4780   43.6250  158.0170 C.3   218  SER218      0.1889
    150  C        177.6170   42.1760  158.3790 C.2   218  SER218      0.2288
    151  O        177.8190   41.3270  157.5270 O.2   218  SER218     -0.2866
    152  CB       175.9930   43.9830  158.0180 C.3   218  SER218      0.2089
    153  OG       175.3190   43.1730  157.0750 O.3   218  SER218     -0.2183
    154  N        175.0330   39.7390  160.1720 N.3   220  GLN220     -0.1245
    155  CA       173.6590   39.6140  160.6160 C.3   220  GLN220      0.1566
    156  C        173.4060   38.2170  161.1070 C.2   220  GLN220      0.2260
    157  O        173.8820   37.2280  160.5320 O.2   220  GLN220     -0.2867
    158  CB       172.6660   39.9840  159.5060 C.3   220  GLN220      0.0367
    159  CG       172.5070   38.9530  158.3790 C.3   220  GLN220      0.0905
    160  CD       171.5090   37.8500  158.6890 C.2   220  GLN220      0.2608
    161  OE1      170.4840   38.0750  159.3320 O.2   220  GLN220     -0.2717
    162  NE2      171.8090   36.6400  158.2220 N.am  220  GLN220     -0.0878
    163  N        170.9810   35.6730  164.3090 N.3   222  TRP222     -0.1241
    164  CA       169.9100   35.4280  165.2430 C.3   222  TRP222      0.1605
    165  C        170.3780   34.7190  166.4990 C.2   222  TRP222      0.2264
    166  O        171.2730   33.8660  166.4680 O.2   222  TRP222     -0.2867
    167  CB       168.8000   34.5830  164.5890 C.3   222  TRP222      0.0550
    168  CG       168.1670   35.2990  163.4930 C.ar  222  TRP222      0.0003
    169  CD1      167.1620   36.2160  163.5910 C.ar  222  TRP222      0.0946
    170  CD2      168.5180   35.2210  162.1200 C.ar  222  TRP222      0.0152
    171  NE1      166.8700   36.7170  162.3560 N.ar  222  TRP222     -0.2442
    172  CE2      167.6710   36.1080  161.4270 C.ar  222  TRP222      0.0810
    173  CE3      169.4520   34.4700  161.3970 C.ar  222  TRP222      0.0012
    174  CZ2      167.7280   36.2700  160.0540 C.ar  222  TRP222      0.0191
    175  CZ3      169.5010   34.6370  160.0160 C.ar  222  TRP222      0.0001
    176  CH2      168.6490   35.5280  159.3680 C.ar  222  TRP222      0.0015
@<TRIPOS>BOND
     1     4     3    2
     2     3     2    1
     3    16    15    2
     4    13    14    1
     5     1     2    1
     6     2     5    1
     7    15    14    1
     8     9     7   ar
     9     9    11   ar
    10     7     6   ar
    11    14    17    1
    12    12    11    1
    13    11    10   ar
    14     6     5    1
    15     6     8   ar
    16    20    21    1
    17    10     8   ar
    18    23    22    2
    19    45    46    2
    20    45    44    1
    21    17    19    1
    22    17    18    1
    23    27    26    2
    24    25    24    1
    25    25    26    1
    26    44    47    1
    27    44    43    1
    28    24    21    1
    29    55    56    1
    30    21    22    1
    31    26    28   am
    32    56    57    1
    33    56    59    1
    34    47    48    1
    35    50    48   ar
    36    50    52   ar
    37    57    58    2
    38   133   132    2
    39    48    49   ar
    40    52    53   ar
    41    59    60    1
    42   137   138    1
    43    61    60    1
    44   132   131    1
    45    49    51   ar
    46    53    51   ar
    47    53    54    1
    48    60    62    1
    49    41    40    2
    50   141   138    1
    51   141   142    1
    52   135   134    1
    53   138   139    1
    54    37    36    1
    55    37    38    2
    56   140   139    2
    57   134   131    1
    58   134   136    1
    59    39    36    1
    60    39    40    1
    61    36    35    1
    62   131   130    1
    63    40    42   am
    64   143   142    1
    65   143   144    1
    66   144   145    2
    67    63    64    1
    68    67    68    1
    69    67    64    1
    70    69    68   ar
    71    69    71   ar
    72    68    70   ar
    73    64    65    1
    74    71    72   ar
    75   145   146    1
    76   145   147    1
    77   123   122    2
    78    70    72   ar
    79    34    33    1
    80   122   121    1
    81   148   149    1
    82    65    66    2
    83   153   152    1
    84    33    30    1
    85   112   113    1
    86   151   150    2
    87    31    30    1
    88    31    32    2
    89   113   114    1
    90   113   116    1
    91   149   152    1
    92   149   150    1
    93   121   120    1
    94   121   124    1
    95    30    29    1
    96   114   115    2
    97   162   160   am
    98   159   160    1
    99   159   158    1
   100    90    89    1
   101   160   161    2
   102   127   129   ar
   103   127   125   ar
   104    80    78   ar
   105   129   128   ar
   106   124   125    1
   107   116   117    1
   108   125   126   ar
   109    73    74    1
   110    91    89    1
   111   118   117    1
   112   176   175   ar
   113   176   174   ar
   114   109   107   ar
   115   109   110   ar
   116   158   155    1
   117    89    88    2
   118   107   105   ar
   119   128   126   ar
   120    74    75    1
   121    74    77    1
   122   175   173   ar
   123   117   119    1
   124   174   172   ar
   125   154   155    1
   126    78    77    1
   127    78    79   ar
   128    98    96    1
   129    75    76    2
   130   111   110    1
   131   157   156    2
   132   110   108   ar
   133   155   156    1
   134   105   104    1
   135   105   106   ar
   136    88    87    1
   137   104   101    1
   138   102   101    1
   139   102   103    2
   140   101   100    1
   141    97    96    1
   142    97    99    1
   143   173   170   ar
   144   172   170   ar
   145   172   171   ar
   146    96    93    1
   147   108   106   ar
   148    87    86    1
   149   170   168   ar
   150   171   169   ar
   151    93    94    1
   152    93    92    1
   153    86    85    1
   154    94    95    2
   155   168   169   ar
   156   168   167    1
   157    85    82    1
   158   163   164    1
   159   167   164    1
   160   164   165    1
   161    81    82    1
   162    82    83    1
   163   166   165    2
   164    84    83    2
