@<TRIPOS>MOLECULE
tmp/4nhwD00.pdb
 146 141 0 0 0
SMALL
GASTEIGER

@<TRIPOS>ATOM
      1  N        111.0270  -32.1300   19.1390 N.3    18  SER18      -0.1202
      2  CA       111.3700  -30.7360   19.3150 C.3    18  SER18       0.2020
      3  C        112.8670  -30.6670   19.1680 C.2    18  SER18       0.2618
      4  O        113.5250  -31.7010   18.9870 O.2    18  SER18      -0.2717
      5  CB       110.9560  -30.2160   20.7010 C.3    18  SER18       0.2103
      6  OG       111.8870  -30.6010   21.7060 O.3    18  SER18      -0.2182
      7  N        113.4030  -29.4570   19.2800 N.am   19  ARG19      -0.1979
      8  CA       114.8460  -29.2460   19.2120 C.3    19  ARG19       0.1597
      9  C        115.6270  -29.9360   20.3280 C.2    19  ARG19       0.2287
     10  O        116.8360  -30.0870   20.2270 O.2    19  ARG19      -0.2864
     11  CB       115.1580  -27.7630   19.2160 C.3    19  ARG19       0.0334
     12  CG       114.8100  -27.0710   17.9120 C.3    19  ARG19       0.0492
     13  CD       114.8740  -25.5870   18.1540 C.3    19  ARG19       0.2205
     14  NE       114.8790  -24.8060   16.9300 N.pl3  19  ARG19      -0.0865
     15  CZ       113.8650  -24.0690   16.4920 C.cat  19  ARG19       0.5346
     16  NH1      112.7070  -24.0230   17.1480 N.pl3  19  ARG19       0.1354
     17  NH2      114.0070  -23.3780   15.3750 N.pl3  19  ARG19       0.1354
     18  N        118.2450  -32.7000   19.6890 N.3    22  ARG22      -0.1245
     19  CA       119.6590  -32.3670   19.5370 C.3    22  ARG22       0.1563
     20  C        120.4560  -32.7120   20.7780 C.2    22  ARG22       0.2260
     21  O        121.5780  -33.1720   20.6710 O.2    22  ARG22      -0.2867
     22  CB       119.8360  -30.8720   19.2360 C.3    22  ARG22       0.0307
     23  CG       119.3110  -30.4610   17.8730 C.3    22  ARG22       0.0489
     24  CD       119.0170  -28.9760   17.7970 C.3    22  ARG22       0.2205
     25  NE       118.3980  -28.6620   16.5130 N.pl3  22  ARG22      -0.0865
     26  CZ       118.1660  -27.4340   16.0650 C.cat  22  ARG22       0.5346
     27  NH1      118.5010  -26.3780   16.7930 N.pl3  22  ARG22       0.1354
     28  NH2      117.6080  -27.2630   14.8720 N.pl3  22  ARG22       0.1354
     29  N        105.2480  -28.2620   23.5810 N.3    41  GLN41      -0.1231
     30  CA       104.9050  -26.9470   23.0390 C.3    41  GLN41       0.1698
     31  C        103.4590  -26.6180   23.3760 C.2    41  GLN41       0.2592
     32  O        102.5450  -27.3790   23.0310 O.2    41  GLN41      -0.2718
     33  CB       105.1030  -26.9170   21.5090 C.3    41  GLN41       0.0381
     34  CG       106.5090  -27.3110   21.0270 C.3    41  GLN41       0.0905
     35  CD       106.6930  -28.8110   20.7690 C.2    41  GLN41       0.2608
     36  OE1      106.0200  -29.6460   21.3750 O.2    41  GLN41      -0.2717
     37  NE2      107.6210  -29.1550   19.8760 N.am   41  GLN41      -0.0878
     38  N        103.2500  -25.4780   24.0350 N.am   42  ALA42      -0.1966
     39  CA       101.9190  -25.0670   24.5020 C.3    42  ALA42       0.1728
     40  C        100.8240  -25.1270   23.4340 C.2    42  ALA42       0.2616
     41  O         99.6720  -25.4410   23.7440 O.2    42  ALA42      -0.2715
     42  CB       101.9850  -23.6680   25.1050 C.3    42  ALA42       0.0334
     43  N        101.1690  -24.8330   22.1820 N.am   43  HIS43      -0.1973
     44  CA       100.1570  -24.7930   21.1130 C.3    43  HIS43       0.1656
     45  C         99.6190  -26.1830   20.7440 C.2    43  HIS43       0.2291
     46  O         98.5670  -26.2970   20.1130 O.2    43  HIS43      -0.2864
     47  CB       100.6780  -24.0570   19.8650 C.3    43  HIS43       0.0771
     48  CG       101.8720  -24.6970   19.2260 C.ar   43  HIS43       0.0820
     49  ND1      103.1610  -24.2840   19.4820 N.ar   43  HIS43      -0.2267
     50  CD2      101.9720  -25.6990   18.3210 C.ar   43  HIS43       0.1154
     51  CE1      104.0050  -25.0130   18.7730 C.ar   43  HIS43       0.1986
     52  NE2      103.3090  -25.8820   18.0640 N.ar   43  HIS43      -0.2212
     53  N        105.2860  -25.3920   27.6150 N.3    57  THR57      -0.1203
     54  CA       106.1200  -24.1930   27.5280 C.3    57  THR57       0.1994
     55  C        105.5180  -22.9340   28.1570 C.2    57  THR57       0.2617
     56  O        106.2390  -21.9610   28.3870 O.2    57  THR57      -0.2717
     57  CB       106.5100  -23.9000   26.0660 C.3    57  THR57       0.1784
     58  OG1      105.3360  -23.8440   25.2410 O.3    57  THR57      -0.2211
     59  CG2      107.4570  -24.9760   25.5660 C.3    57  THR57       0.0376
     60  N        104.2150  -22.9540   28.4420 N.am   58  LYS58      -0.1979
     61  CA       103.5600  -21.8460   29.1460 C.3    58  LYS58       0.1596
     62  C        103.2320  -22.1350   30.6150 C.2    58  LYS58       0.2287
     63  O        102.5700  -21.3320   31.2770 O.2    58  LYS58      -0.2864
     64  CB       102.3000  -21.4140   28.3960 C.3    58  LYS58       0.0298
     65  CG       102.6200  -20.6500   27.1220 C.3    58  LYS58       0.0038
     66  CD       101.3830  -20.0670   26.4740 C.3    58  LYS58       0.0206
     67  CE       101.7200  -19.4440   25.1260 C.3    58  LYS58       0.1093
     68  NZ       100.5370  -18.7460   24.5540 N.3    58  LYS58      -0.1314
     69  N        110.6730  -19.5010   27.6980 N.3    69  GLY69      -0.1210
     70  CA       109.4890  -20.3160   27.4440 C.3    69  GLY69       0.1956
     71  C        109.6350  -21.1620   26.1920 C.2    69  GLY69       0.2612
     72  O        108.6740  -21.3450   25.4410 O.2    69  GLY69      -0.2717
     73  N        110.8510  -21.6550   25.9690 N.am   70  LEU70      -0.1965
     74  CA       111.1670  -22.5130   24.8340 C.3    70  LEU70       0.1728
     75  C        111.9020  -23.7780   25.2920 C.2    70  LEU70       0.2616
     76  O        112.5880  -23.7750   26.3030 O.2    70  LEU70      -0.2715
     77  CB       112.0370  -21.7670   23.8160 C.3    70  LEU70       0.0311
     78  CG       111.5570  -20.4080   23.3030 C.3    70  LEU70       0.0022
     79  CD1      112.6310  -19.7510   22.4420 C.3    70  LEU70       0.0001
     80  CD2      110.2650  -20.5530   22.5180 C.3    70  LEU70       0.0001
     81  N        111.7570  -24.8540   24.5270 N.am   71  ILE71      -0.1964
     82  CA       112.5200  -26.0770   24.7530 C.3    71  ILE71       0.1712
     83  C        113.5230  -26.2230   23.6110 C.2    71  ILE71       0.2458
     84  O        113.2310  -25.8200   22.4950 O.2    71  ILE71      -0.2730
     85  CB       111.6070  -27.3210   24.8460 C.3    71  ILE71       0.0289
     86  CG1      110.6320  -27.3960   23.6480 C.3    71  ILE71       0.0022
     87  CG2      110.8770  -27.3090   26.1830 C.3    71  ILE71       0.0023
     88  CD1      109.6080  -28.5150   23.7180 C.3    71  ILE71       0.0001
     89  N        114.6840  -26.8380   23.8630 N.am   72  PRO72      -0.2727
     90  CA       115.0780  -27.4760   25.1070 C.3    72  PRO72       0.1402
     91  C        115.6740  -26.5380   26.1390 C.2    72  PRO72       0.2269
     92  O        116.1640  -25.4600   25.8080 O.2    72  PRO72      -0.2865
     93  CB       116.1620  -28.4530   24.6610 C.3    72  PRO72       0.0296
     94  CG       116.7880  -27.7980   23.4780 C.3    72  PRO72       0.0237
     95  CD       115.6950  -27.0270   22.8030 C.3    72  PRO72       0.0939
     96  N        119.8490  -23.0590   27.7480 N.3    82  THR82      -0.1203
     97  CA       118.5570  -22.9310   27.0600 C.3    82  THR82       0.1994
     98  C        118.6700  -22.6700   25.5520 C.2    82  THR82       0.2618
     99  O        117.7610  -22.0920   24.9560 O.2    82  THR82      -0.2717
    100  CB       117.7410  -21.7830   27.6870 C.3    82  THR82       0.1784
    101  OG1      118.4850  -20.5520   27.6140 O.3    82  THR82      -0.2211
    102  CG2      117.4140  -22.0930   29.1430 C.3    82  THR82       0.0376
    103  N        119.7830  -23.0860   24.9490 N.am   83  GLU83      -0.1965
    104  CA       120.0140  -22.9230   23.5100 C.3    83  GLU83       0.1733
    105  C        120.5950  -24.1920   22.9200 C.2    83  GLU83       0.2617
    106  O        121.7690  -24.4960   23.1260 O.2    83  GLU83      -0.2715
    107  CB       120.9600  -21.7570   23.2600 C.3    83  GLU83       0.0429
    108  CG       120.3030  -20.4050   23.4590 C.3    83  GLU83       0.1163
    109  CD       119.1900  -20.1430   22.4520 C.2    83  GLU83       0.3649
    110  OE1      119.3400  -20.5320   21.2650 O.co2  83  GLU83      -0.2457
    111  OE2      118.1690  -19.5560   22.8580 O.co2  83  GLU83      -0.2457
    112  N        119.7750  -24.8840   22.1330 N.am   84  SER84      -0.1936
    113  CA       119.9820  -26.2910   21.8030 C.3    84  SER84       0.2055
    114  C        121.3860  -26.6060   21.3230 C.2    84  SER84       0.2642
    115  O        122.0080  -27.5580   21.7840 O.2    84  SER84      -0.2714
    116  CB       118.9460  -26.7530   20.7620 C.3    84  SER84       0.2130
    117  OG       118.9770  -25.9470   19.5970 O.3    84  SER84      -0.2179
    118  N        121.8840  -25.7970   20.4020 N.am   85  LEU85      -0.1977
    119  CA       123.1530  -26.0860   19.7570 C.3    85  LEU85       0.1596
    120  C        124.3070  -25.6800   20.6400 C.2    85  LEU85       0.2287
    121  O        125.3500  -26.3340   20.6530 O.2    85  LEU85      -0.2864
    122  CB       123.2630  -25.3420   18.4290 C.3    85  LEU85       0.0297
    123  CG       122.1600  -25.6450   17.4220 C.3    85  LEU85       0.0022
    124  CD1      122.2150  -24.6460   16.2760 C.3    85  LEU85       0.0001
    125  CD2      122.2750  -27.0850   16.9370 C.3    85  LEU85       0.0001
    126  N        119.3120  -22.6930    9.7200 N.3   122  GLU122     -0.1245
    127  CA       118.1730  -23.0280   10.5510 C.3   122  GLU122      0.1567
    128  C        116.9310  -22.1650   10.3110 C.2   122  GLU122      0.2260
    129  O        115.8400  -22.7080   10.1270 O.2   122  GLU122     -0.2867
    130  CB       118.5610  -22.9800   12.0440 C.3   122  GLU122      0.0388
    131  CG       117.3860  -23.3130   12.9590 C.3   122  GLU122      0.1160
    132  CD       117.7850  -23.6400   14.3810 C.2   122  GLU122      0.3649
    133  OE1      117.0990  -24.4790   14.9970 O.co2 122  GLU122     -0.2457
    134  OE2      118.7670  -23.0590   14.8810 O.co2 122  GLU122     -0.2457
    135  N        115.8510  -30.9410    9.2140 N.3   178  TYR178     -0.1241
    136  CA       114.6590  -30.1570    8.8600 C.3   178  TYR178      0.1605
    137  C        114.4920  -29.9040    7.3500 C.2   178  TYR178      0.2264
    138  O        113.4200  -29.4760    6.9200 O.2   178  TYR178     -0.2867
    139  CB       114.6530  -28.7900    9.5940 C.3   178  TYR178      0.0534
    140  CG       114.4170  -28.8310   11.0960 C.ar  178  TYR178     -0.0201
    141  CD1      114.0550  -30.0120   11.7500 C.ar  178  TYR178     -0.0009
    142  CD2      114.5370  -27.6660   11.8660 C.ar  178  TYR178     -0.0009
    143  CE1      113.8400  -30.0340   13.1190 C.ar  178  TYR178      0.0417
    144  CE2      114.3150  -27.6810   13.2370 C.ar  178  TYR178      0.0417
    145  CZ       113.9650  -28.8670   13.8550 C.ar  178  TYR178      0.1957
    146  OH       113.7380  -28.8980   15.2120 O.3   178  TYR178     -0.2866
@<TRIPOS>BOND
     1   138   137    2
     2   137   136    1
     3   136   135    1
     4   136   139    1
     5   139   140    1
     6   126   127    1
     7   129   128    2
     8   128   127    1
     9   127   130    1
    10   140   141   ar
    11   140   142   ar
    12   141   143   ar
    13   142   144   ar
    14   130   131    1
    15   131   132    1
    16   143   145   ar
    17   144   145   ar
    18   145   146    1
    19   132   134   ar
    20   132   133   ar
    21    28    26    1
    22    17    15    1
    23    26    25    2
    24    26    27    1
    25   124   123    1
    26    15    14    2
    27    15    16    1
    28    25    24    1
    29    14    13    1
    30   125   123    1
    31   123   122    1
    32    24    23    1
    33    23    22    1
    34    12    13    1
    35    12    11    1
    36    52    50   ar
    37    52    51   ar
    38    50    48   ar
    39   122   119    1
    40    51    49   ar
    41     4     3    2
    42     1     2    1
    43     3     7   am
    44     3     2    1
    45     8    11    1
    46     8     7    1
    47     8     9    1
    48    48    49   ar
    49    48    47    1
    50    22    19    1
    51     2     5    1
    52    19    18    1
    53    19    20    1
    54   117   116    1
    55   119   118    1
    56   119   120    1
    57    47    44    1
    58    37    35   am
    59    46    45    2
    60    10     9    2
    61   118   114   am
    62   120   121    2
    63    21    20    2
    64     5     6    1
    65    45    44    1
    66   116   113    1
    67    35    34    1
    68    35    36    2
    69    34    33    1
    70    44    43    1
    71   110   109   ar
    72   114   115    2
    73   114   113    1
    74    33    30    1
    75   113   112    1
    76   112   105   am
    77    43    40   am
    78    79    78    1
    79   109   111   ar
    80   109   108    1
    81    84    83    2
    82    80    78    1
    83    95    94    1
    84    95    89    1
    85   105   106    2
    86   105   104    1
    87    32    31    2
    88    30    31    1
    89    30    29    1
    90   107   108    1
    91   107   104    1
    92    78    77    1
    93    31    38   am
    94    40    41    2
    95    40    39    1
    96    94    93    1
    97   104   103    1
    98    83    89   am
    99    83    82    1
   100    86    88    1
   101    86    85    1
   102    77    74    1
   103    89    90    1
   104    38    39    1
   105    39    42    1
   106    81    82    1
   107    81    75   am
   108    68    67    1
   109    93    90    1
   110    82    85    1
   111    74    75    1
   112    74    73    1
   113    85    87    1
   114   103    98   am
   115    99    98    2
   116    90    91    1
   117    67    66    1
   118    58    57    1
   119    75    76    2
   120    72    71    2
   121    98    97    1
   122    59    57    1
   123    92    91    2
   124    73    71   am
   125    57    54    1
   126    71    70    1
   127    66    65    1
   128    97   100    1
   129    97    96    1
   130    65    64    1
   131    70    69    1
   132    54    53    1
   133    54    55    1
   134   101   100    1
   135   100   102    1
   136    55    56    2
   137    55    60   am
   138    64    61    1
   139    60    61    1
   140    61    62    1
   141    62    63    2
