@<TRIPOS>MOLECULE
tmp/4nhxA00.pdb
 142 135 0 0 0
SMALL
GASTEIGER

@<TRIPOS>ATOM
      1  N        -11.8600   10.6300   68.8300 N.3    75  PHE75      -0.1241
      2  CA       -13.0900   10.5400   69.6030 C.3    75  PHE75       0.1605
      3  C        -12.7590   10.2080   71.0580 C.2    75  PHE75       0.2264
      4  O        -11.5850   10.1670   71.4280 O.2    75  PHE75      -0.2867
      5  CB       -14.0620    9.5100   68.9970 C.3    75  PHE75       0.0534
      6  CG       -13.5980    8.0700   69.0980 C.ar   75  PHE75      -0.0203
      7  CD1      -12.5740    7.5890   68.2990 C.ar   75  PHE75      -0.0042
      8  CD2      -14.2140    7.1890   69.9720 C.ar   75  PHE75      -0.0042
      9  CE1      -12.1660    6.2600   68.3880 C.ar   75  PHE75      -0.0003
     10  CE2      -13.8060    5.8630   70.0580 C.ar   75  PHE75      -0.0003
     11  CZ       -12.7850    5.4030   69.2700 C.ar   75  PHE75      -0.0000
     12  N        -18.7770   10.5870   70.3730 N.3   123  TYR123     -0.1241
     13  CA       -18.3000   11.4400   69.2890 C.3   123  TYR123      0.1605
     14  C        -18.9480   12.8100   69.4110 C.2   123  TYR123      0.2264
     15  O        -20.1770   12.9260   69.3830 O.2   123  TYR123     -0.2867
     16  CB       -18.6760   10.8570   67.9220 C.3   123  TYR123      0.0534
     17  CG       -17.8900    9.6510   67.4800 C.ar  123  TYR123     -0.0201
     18  CD1      -18.1720    8.3840   67.9780 C.ar  123  TYR123     -0.0009
     19  CD2      -16.8950    9.7660   66.5210 C.ar  123  TYR123     -0.0009
     20  CE1      -17.4630    7.2730   67.5540 C.ar  123  TYR123      0.0417
     21  CE2      -16.1820    8.6630   66.0940 C.ar  123  TYR123      0.0417
     22  CZ       -16.4680    7.4210   66.6110 C.ar  123  TYR123      0.1957
     23  OH       -15.7540    6.3230   66.1840 O.3   123  TYR123     -0.2866
     24  N        -14.2890    8.7830   62.6050 N.3   129  LEU129     -0.1245
     25  CA       -13.5780    7.5250   62.4450 C.3   129  LEU129      0.1561
     26  C        -13.6020    7.1920   60.9550 C.2   129  LEU129      0.2260
     27  O        -14.6550    6.8990   60.3890 O.2   129  LEU129     -0.2867
     28  CB       -14.2370    6.4290   63.2820 C.3   129  LEU129      0.0270
     29  CG       -13.8780    4.9760   62.9740 C.3   129  LEU129      0.0019
     30  CD1      -12.3820    4.7150   63.1260 C.3   129  LEU129      0.0001
     31  CD2      -14.6930    4.0550   63.8740 C.3   129  LEU129      0.0001
     32  N        -12.3390    2.1590   57.1770 N.3   132  HIS132     -0.1241
     33  CA       -11.6240    0.9800   57.6680 C.3   132  HIS132      0.1621
     34  C        -12.5300   -0.2350   57.5630 C.2   132  HIS132      0.2264
     35  O        -13.7450   -0.0890   57.3990 O.2   132  HIS132     -0.2867
     36  CB       -11.1870    1.1790   59.1280 C.3   132  HIS132      0.0745
     37  CG       -12.3240    1.2160   60.1020 C.ar  132  HIS132      0.0817
     38  ND1      -13.2370    2.2470   60.1420 N.ar  132  HIS132     -0.2268
     39  CD2      -12.6950    0.3480   61.0740 C.ar  132  HIS132      0.1154
     40  CE1      -14.1240    2.0120   61.0920 C.ar  132  HIS132      0.1986
     41  NE2      -13.8170    0.8680   61.6740 N.ar  132  HIS132     -0.2212
     42  N        -12.4330   -3.0310   59.9120 N.3   134  ASP134     -0.1239
     43  CA       -12.5710   -3.7510   61.1980 C.3   134  ASP134      0.1674
     44  C        -11.7210   -5.0080   61.2840 C.2   134  ASP134      0.2266
     45  O        -11.7400   -5.6990   62.2970 O.2   134  ASP134     -0.2867
     46  CB       -14.0260   -4.1690   61.4710 C.3   134  ASP134      0.1410
     47  CG       -14.8490   -3.0800   62.1100 C.2   134  ASP134      0.3668
     48  OD1      -14.3380   -1.9520   62.2810 O.co2 134  ASP134     -0.2456
     49  OD2      -16.0270   -3.3600   62.4250 O.co2 134  ASP134     -0.2456
     50  N        -23.1730   -2.1400   66.7300 N.3   144  ILE144     -0.1245
     51  CA       -23.2230   -0.8390   67.3740 C.3   144  ILE144      0.1561
     52  C        -24.6470   -0.5910   67.8510 C.2   144  ILE144      0.2260
     53  O        -25.6000   -0.7440   67.0870 O.2   144  ILE144     -0.2867
     54  CB       -22.8340    0.3170   66.4320 C.3   144  ILE144      0.0252
     55  CG1      -21.4980    0.0470   65.7350 C.3   144  ILE144      0.0019
     56  CG2      -22.7890    1.6460   67.2050 C.3   144  ILE144      0.0019
     57  CD1      -21.6140   -0.6990   64.3840 C.3   144  ILE144      0.0001
     58  N        -26.8750    2.4290   69.3640 N.3   146  TYR146     -0.1241
     59  CA       -26.8770    3.8760   69.5110 C.3   146  TYR146      0.1605
     60  C        -27.7630    4.2970   70.6800 C.2   146  TYR146      0.2264
     61  O        -28.8750    3.7890   70.8400 O.2   146  TYR146     -0.2867
     62  CB       -27.3440    4.5270   68.2120 C.3   146  TYR146      0.0534
     63  CG       -26.4540    4.1800   67.0330 C.ar  146  TYR146     -0.0201
     64  CD1      -25.1710    4.6990   66.9320 C.ar  146  TYR146     -0.0009
     65  CD2      -26.8910    3.3240   66.0340 C.ar  146  TYR146     -0.0009
     66  CE1      -24.3560    4.3830   65.8710 C.ar  146  TYR146      0.0417
     67  CE2      -26.0820    3.0020   64.9670 C.ar  146  TYR146      0.0417
     68  CZ       -24.8120    3.5340   64.8910 C.ar  146  TYR146      0.1957
     69  OH       -23.9940    3.2170   63.8320 O.3   146  TYR146     -0.2866
     70  N        -23.0930    6.3390   59.9220 N.3   159  LEU159     -0.1245
     71  CA       -22.3280    5.1280   59.6820 C.3   159  LEU159      0.1561
     72  C        -22.3900    4.8850   58.1840 C.2   159  LEU159      0.2260
     73  O        -23.4310    4.4800   57.6640 O.2   159  LEU159     -0.2867
     74  CB       -22.9150    3.9380   60.4430 C.3   159  LEU159      0.0270
     75  CG       -22.3440    2.5720   60.0420 C.3   159  LEU159      0.0019
     76  CD1      -20.8200    2.5550   60.1530 C.3   159  LEU159      0.0001
     77  CD2      -22.9670    1.4750   60.9010 C.3   159  LEU159      0.0001
     78  N        -23.0530   -6.0850   61.3010 N.3   187  PHE187     -0.1241
     79  CA       -22.6050   -6.4760   59.9790 C.3   187  PHE187      0.1605
     80  C        -21.4100   -7.4070   60.0450 C.2   187  PHE187      0.2264
     81  O        -20.7390   -7.5190   61.0770 O.2   187  PHE187     -0.2867
     82  CB       -22.2890   -5.2490   59.1160 C.3   187  PHE187      0.0534
     83  CG       -21.2170   -4.3350   59.6790 C.ar  187  PHE187     -0.0203
     84  CD1      -19.8730   -4.6090   59.4780 C.ar  187  PHE187     -0.0042
     85  CD2      -21.5550   -3.1770   60.3640 C.ar  187  PHE187     -0.0042
     86  CE1      -18.8980   -3.7680   59.9750 C.ar  187  PHE187     -0.0003
     87  CE2      -20.5750   -2.3280   60.8560 C.ar  187  PHE187     -0.0003
     88  CZ       -19.2490   -2.6270   60.6650 C.ar  187  PHE187     -0.0000
     89  N        -16.1130    0.8220   56.0500 N.3   195  HIS195     -0.1241
     90  CA       -17.0800    1.7420   56.6170 C.3   195  HIS195      0.1621
     91  C        -16.3950    2.8740   57.3690 C.2   195  HIS195      0.2264
     92  O        -15.2180    2.7840   57.7100 O.2   195  HIS195     -0.2867
     93  CB       -18.0120    0.9860   57.5660 C.3   195  HIS195      0.0745
     94  CG       -17.3090    0.3330   58.7140 C.ar  195  HIS195      0.0817
     95  ND1      -16.5380   -0.8040   58.5750 N.ar  195  HIS195     -0.2268
     96  CD2      -17.2670    0.6550   60.0320 C.ar  195  HIS195      0.1154
     97  CE1      -16.0520   -1.1520   59.7560 C.ar  195  HIS195      0.1986
     98  NE2      -16.4790   -0.2820   60.6560 N.ar  195  HIS195     -0.2212
     99  N        -17.3590    6.3300   60.3660 N.3   197  VAL197     -0.1245
    100  CA       -18.2570    7.2220   61.0680 C.3   197  VAL197      0.1561
    101  C        -17.9460    8.6420   60.5940 C.2   197  VAL197      0.2260
    102  O        -16.8590    9.1580   60.8510 O.2   197  VAL197     -0.2867
    103  CB       -18.0710    7.1120   62.6000 C.3   197  VAL197      0.0252
    104  CG1      -18.9130    8.1510   63.3250 C.3   197  VAL197      0.0019
    105  CG2      -18.4130    5.6940   63.0750 C.3   197  VAL197      0.0019
    106  N        -22.7390   12.1580   70.3830 N.3   207  ARG207     -0.1245
    107  CA       -23.1390   10.8840   69.7780 C.3   207  ARG207      0.1563
    108  C        -22.6300    9.7300   70.6290 C.2   207  ARG207      0.2260
    109  O        -21.4500    9.3880   70.5830 O.2   207  ARG207     -0.2867
    110  CB       -22.5770   10.7740   68.3520 C.3   207  ARG207      0.0307
    111  CG       -22.8920    9.4800   67.5850 C.3   207  ARG207      0.0489
    112  CD       -21.9220    9.3540   66.4080 C.3   207  ARG207      0.2205
    113  NE       -22.2730    8.3910   65.3590 N.pl3 207  ARG207     -0.0865
    114  CZ       -21.8790    7.1210   65.3280 C.cat 207  ARG207      0.5346
    115  NH1      -21.1620    6.6070   66.3210 N.pl3 207  ARG207      0.1354
    116  NH2      -22.2200    6.3510   64.2990 N.pl3 207  ARG207      0.1354
    117  N        -22.6360    5.7430   71.9760 N.3   209  SER209     -0.1217
    118  CA       -22.8950    4.3880   71.4960 C.3   209  SER209      0.1889
    119  C        -22.1940    3.3170   72.3340 C.2   209  SER209      0.2288
    120  O        -21.2240    3.5970   73.0420 O.2   209  SER209     -0.2866
    121  CB       -22.4460    4.2650   70.0420 C.3   209  SER209      0.2089
    122  OG       -21.0580    4.4890   69.9280 O.3   209  SER209     -0.2183
    123  N        -20.3740   -0.2700   71.2840 N.3   211  SER211     -0.1217
    124  CA       -19.9340   -0.9340   70.0570 C.3   211  SER211      0.1889
    125  C        -18.9340   -2.0320   70.3840 C.2   211  SER211      0.2288
    126  O        -18.3230   -2.0310   71.4450 O.2   211  SER211     -0.2866
    127  CB       -19.3110    0.0750   69.0870 C.3   211  SER211      0.2089
    128  OG       -18.1020    0.5990   69.5950 O.3   211  SER211     -0.2183
    129  N        -17.4530   -6.3070   68.9780 N.3   213  TRP213     -0.1241
    130  CA       -17.4830   -7.4300   68.0560 C.3   213  TRP213      0.1605
    131  C        -17.8240   -8.7410   68.7250 C.2   213  TRP213      0.2264
    132  O        -17.4100   -9.0160   69.8570 O.2   213  TRP213     -0.2867
    133  CB       -16.1320   -7.5830   67.3510 C.3   213  TRP213      0.0550
    134  CG       -15.8060   -6.4370   66.4760 C.ar  213  TRP213      0.0003
    135  CD1      -16.0830   -6.3150   65.1460 C.ar  213  TRP213      0.0946
    136  CD2      -15.1470   -5.2300   66.8610 C.ar  213  TRP213      0.0152
    137  NE1      -15.6400   -5.1080   64.6820 N.ar  213  TRP213     -0.2442
    138  CE2      -15.0560   -4.4190   65.7170 C.ar  213  TRP213      0.0810
    139  CE3      -14.6230   -4.7540   68.0690 C.ar  213  TRP213      0.0012
    140  CZ2      -14.4610   -3.1560   65.7340 C.ar  213  TRP213      0.0191
    141  CZ3      -14.0320   -3.5010   68.0860 C.ar  213  TRP213      0.0001
    142  CH2      -13.9570   -2.7170   66.9270 C.ar  213  TRP213      0.0015
@<TRIPOS>BOND
     1    89    90    1
     2    90    91    1
     3    90    93    1
     4    32    33    1
     5    91    92    2
     6    35    34    2
     7    34    33    1
     8    93    94    1
     9    73    72    2
    10    33    36    1
    11    72    71    1
    12    95    94   ar
    13    95    97   ar
    14    94    96   ar
    15    82    83    1
    16    82    79    1
    17    36    37    1
    18    84    83   ar
    19    84    86   ar
    20    83    85   ar
    21    71    70    1
    22    71    74    1
    23    97    98   ar
    24    42    43    1
    25    86    88   ar
    26    79    80    1
    27    79    78    1
    28    96    98   ar
    29    75    76    1
    30    75    74    1
    31    75    77    1
    32    80    81    2
    33    37    38   ar
    34    37    39   ar
    35    38    40   ar
    36    85    87   ar
    37    99   100    1
    38    27    26    2
    39   101   102    2
    40   101   100    1
    41    88    87   ar
    42    26    25    1
    43   100   103    1
    44    39    41   ar
    45    40    41   ar
    46    43    44    1
    47    43    46    1
    48    44    45    2
    49    46    47    1
    50    47    48   ar
    51    47    49   ar
    52    25    24    1
    53    25    28    1
    54   103   105    1
    55   103   104    1
    56    29    30    1
    57    29    28    1
    58    29    31    1
    59    69    68    1
    60   116   114    1
    61    57    55    1
    62   137   135   ar
    63   137   138   ar
    64    68    67   ar
    65    68    66   ar
    66    67    65   ar
    67   135   134   ar
    68   114   113    2
    69   114   115    1
    70   113   112    1
    71   138   140   ar
    72   138   136   ar
    73   140   142   ar
    74    55    54    1
    75    66    64   ar
    76    65    63   ar
    77    21    19   ar
    78    21    22   ar
    79    23    22    1
    80   112   111    1
    81    54    56    1
    82    54    51    1
    83   134   136   ar
    84   134   133    1
    85    19    17   ar
    86    22    20   ar
    87    50    51    1
    88   136   139   ar
    89   142   141   ar
    90    64    63   ar
    91    63    62    1
    92    53    52    2
    93   133   130    1
    94    51    52    1
    95    17    16    1
    96    17    18   ar
    97    20    18   ar
    98   111   110    1
    99    16    13    1
   100   130   131    1
   101   130   129    1
   102   139   141   ar
   103    62    59    1
   104     7     9   ar
   105     7     6   ar
   106   110   107    1
   107     9    11   ar
   108   131   132    2
   109     1     2    1
   110     5     6    1
   111     5     2    1
   112   127   128    1
   113   127   124    1
   114     6     8   ar
   115    11    10   ar
   116    13    14    1
   117    13    12    1
   118    58    59    1
   119    15    14    2
   120    59    60    1
   121     2     3    1
   122   107   106    1
   123   107   108    1
   124   122   121    1
   125     8    10   ar
   126   121   118    1
   127   124   125    1
   128   124   123    1
   129   125   126    2
   130   109   108    2
   131    60    61    2
   132     3     4    2
   133   118   117    1
   134   118   119    1
   135   119   120    2
