@<TRIPOS>MOLECULE
tmp/4nhyB00.pdb
 147 139 0 0 0
SMALL
GASTEIGER

@<TRIPOS>ATOM
      1  N        -33.6650   65.3910  -22.9110 N.3    75  PHE75      -0.1241
      2  CA       -32.9810   66.3560  -23.7590 C.3    75  PHE75       0.1605
      3  C        -33.7840   67.6490  -23.7760 C.2    75  PHE75       0.2264
      4  O        -34.8180   67.7460  -23.1200 O.2    75  PHE75      -0.2867
      5  CB       -32.8140   65.8120  -25.1840 C.3    75  PHE75       0.0534
      6  CG       -34.1150   65.5300  -25.8820 C.ar   75  PHE75      -0.0203
      7  CD1      -34.7670   66.5260  -26.5920 C.ar   75  PHE75      -0.0042
      8  CD2      -34.6910   64.2720  -25.8230 C.ar   75  PHE75      -0.0042
      9  CE1      -35.9690   66.2720  -27.2280 C.ar   75  PHE75      -0.0003
     10  CE2      -35.8930   64.0130  -26.4590 C.ar   75  PHE75      -0.0003
     11  CZ       -36.5330   65.0160  -27.1610 C.ar   75  PHE75      -0.0000
     12  N        -34.0150   69.8220  -31.5780 N.3   121  ALA121     -0.1245
     13  CA       -33.6030   69.2160  -30.3140 C.3   121  ALA121      0.1562
     14  C        -32.1500   69.5350  -30.0020 C.2   121  ALA121      0.2260
     15  O        -31.3320   69.7390  -30.9030 O.2   121  ALA121     -0.2867
     16  CB       -33.7960   67.7200  -30.3630 C.3   121  ALA121      0.0290
     17  N        -29.1440   67.9980  -27.4710 N.3   123  TYR123     -0.1241
     18  CA       -28.6000   67.0450  -26.5130 C.3   123  TYR123      0.1605
     19  C        -27.2740   67.5710  -25.9880 C.2   123  TYR123      0.2264
     20  O        -26.4310   68.0100  -26.7580 O.2   123  TYR123     -0.2867
     21  CB       -28.3840   65.6640  -27.1550 C.3   123  TYR123      0.0534
     22  CG       -29.6530   64.9780  -27.6220 C.ar  123  TYR123     -0.0201
     23  CD1      -30.3680   65.4680  -28.7040 C.ar  123  TYR123     -0.0009
     24  CD2      -30.1250   63.8340  -26.9920 C.ar  123  TYR123     -0.0009
     25  CE1      -31.5230   64.8520  -29.1400 C.ar  123  TYR123      0.0417
     26  CE2      -31.2850   63.2060  -27.4260 C.ar  123  TYR123      0.0417
     27  CZ       -31.9780   63.7230  -28.5010 C.ar  123  TYR123      0.1957
     28  OH       -33.1350   63.1200  -28.9440 O.3   123  TYR123     -0.2866
     29  N        -31.5940   59.3940  -25.8520 N.3   129  LEU129     -0.1245
     30  CA       -32.9040   58.9480  -26.3200 C.3   129  LEU129      0.1561
     31  C        -32.7850   57.4590  -26.5940 C.2   129  LEU129      0.2260
     32  O        -32.1070   57.0500  -27.5300 O.2   129  LEU129     -0.2867
     33  CB       -33.3170   59.7110  -27.5830 C.3   129  LEU129      0.0270
     34  CG       -34.5500   59.2030  -28.3340 C.3   129  LEU129      0.0019
     35  CD1      -35.7860   59.1760  -27.4570 C.3   129  LEU129      0.0001
     36  CD2      -34.7900   60.0840  -29.5340 C.3   129  LEU129      0.0001
     37  N        -36.1670   52.9290  -29.3620 N.3   132  HIS132     -0.1241
     38  CA       -37.5710   53.1130  -29.7320 C.3   132  HIS132      0.1621
     39  C        -37.7400   52.9170  -31.2520 C.2   132  HIS132      0.2264
     40  O        -36.7500   52.8490  -31.9830 O.2   132  HIS132     -0.2867
     41  CB       -38.0450   54.5010  -29.3050 C.3   132  HIS132      0.0745
     42  CG       -37.3860   55.6180  -30.0500 C.ar  132  HIS132      0.0817
     43  ND1      -36.0630   55.9620  -29.8640 N.ar  132  HIS132     -0.2268
     44  CD2      -37.8640   56.4660  -30.9900 C.ar  132  HIS132      0.1154
     45  CE1      -35.7580   56.9740  -30.6560 C.ar  132  HIS132      0.1986
     46  NE2      -36.8320   57.2970  -31.3550 N.ar  132  HIS132     -0.2212
     47  N        -40.1560   54.8000  -33.2510 N.3   134  ASP134     -0.1239
     48  CA       -40.8210   55.9720  -33.8480 C.3   134  ASP134      0.1674
     49  C        -42.2420   55.6570  -34.3280 C.2   134  ASP134      0.2266
     50  O        -42.8620   56.4560  -35.0250 O.2   134  ASP134     -0.2867
     51  CB       -39.9870   56.5780  -34.9980 C.3   134  ASP134      0.1410
     52  CG       -38.8660   57.4960  -34.4990 C.2   134  ASP134      0.3668
     53  OD1      -38.8290   57.7920  -33.2950 O.co2 134  ASP134     -0.2456
     54  OD2      -38.0050   57.9350  -35.2900 O.co2 134  ASP134     -0.2456
     55  N        -33.5880   63.3170  -40.0670 N.3   144  ILE144     -0.1245
     56  CA       -32.8380   64.1500  -39.1540 C.3   144  ILE144      0.1561
     57  C        -31.8050   64.9230  -39.9570 C.2   144  ILE144      0.2260
     58  O        -31.0910   64.3530  -40.7820 O.2   144  ILE144     -0.2867
     59  CB       -32.1150   63.3210  -38.0680 C.3   144  ILE144      0.0252
     60  CG1      -33.0940   62.4030  -37.3330 C.3   144  ILE144      0.0019
     61  CG2      -31.4230   64.2380  -37.0730 C.3   144  ILE144      0.0019
     62  CD1      -33.2050   61.0140  -37.9340 C.3   144  ILE144      0.0001
     63  N        -28.5470   67.4220  -39.2080 N.3   146  TYR146     -0.1241
     64  CA       -27.6180   67.7440  -38.1290 C.3   146  TYR146      0.1605
     65  C        -26.9370   69.0940  -38.3240 C.2   146  TYR146      0.2264
     66  O        -26.4960   69.4170  -39.4250 O.2   146  TYR146     -0.2867
     67  CB       -26.5610   66.6490  -38.0280 C.3   146  TYR146      0.0534
     68  CG       -27.1200   65.3340  -37.5510 C.ar  146  TYR146     -0.0201
     69  CD1      -27.5630   65.1870  -36.2470 C.ar  146  TYR146     -0.0009
     70  CD2      -27.2090   64.2410  -38.3980 C.ar  146  TYR146     -0.0009
     71  CE1      -28.0810   63.9940  -35.7970 C.ar  146  TYR146      0.0417
     72  CE2      -27.7300   63.0370  -37.9560 C.ar  146  TYR146      0.0417
     73  CZ       -28.1630   62.9200  -36.6510 C.ar  146  TYR146      0.1957
     74  OH       -28.6840   61.7290  -36.1860 O.3   146  TYR146     -0.2866
     75  N        -26.4620   58.1010  -33.7860 N.3   159  LEU159     -0.1245
     76  CA       -27.7070   57.4430  -34.1750 C.3   159  LEU159      0.1561
     77  C        -27.4480   55.9570  -34.3910 C.2   159  LEU159      0.2260
     78  O        -26.8500   55.5670  -35.3920 O.2   159  LEU159     -0.2867
     79  CB       -28.2720   58.0670  -35.4510 C.3   159  LEU159      0.0270
     80  CG       -29.5910   57.4940  -35.9600 C.3   159  LEU159      0.0019
     81  CD1      -30.6750   57.5800  -34.8900 C.3   159  LEU159      0.0001
     82  CD2      -29.9990   58.2460  -37.2150 C.3   159  LEU159      0.0001
     83  N        -34.8940   57.3060  -42.8560 N.3   187  PHE187     -0.1241
     84  CA       -35.1980   55.8900  -42.9270 C.3   187  PHE187      0.1605
     85  C        -36.6910   55.6030  -42.8970 C.2   187  PHE187      0.2264
     86  O        -37.4930   56.4450  -42.4940 O.2   187  PHE187     -0.2867
     87  CB       -34.4960   55.1420  -41.7990 C.3   187  PHE187      0.0534
     88  CG       -34.7150   55.7380  -40.4260 C.ar  187  PHE187     -0.0203
     89  CD1      -35.7560   55.2970  -39.6180 C.ar  187  PHE187     -0.0042
     90  CD2      -33.8560   56.7120  -39.9290 C.ar  187  PHE187     -0.0042
     91  CE1      -35.9450   55.8270  -38.3460 C.ar  187  PHE187     -0.0003
     92  CE2      -34.0450   57.2470  -38.6590 C.ar  187  PHE187     -0.0003
     93  CZ       -35.0890   56.8010  -37.8670 C.ar  187  PHE187     -0.0000
     94  N        -34.1600   52.1920  -33.0460 N.3   195  HIS195     -0.1241
     95  CA       -32.9700   53.0170  -33.0640 C.3   195  HIS195      0.1621
     96  C        -32.9170   53.8070  -31.7790 C.2   195  HIS195      0.2264
     97  O        -33.8830   53.8200  -31.0110 O.2   195  HIS195     -0.2867
     98  CB       -33.0150   53.9820  -34.2490 C.3   195  HIS195      0.0745
     99  CG       -34.1920   54.9040  -34.2200 C.ar  195  HIS195      0.0817
    100  ND1      -35.4560   54.5040  -34.5920 N.ar  195  HIS195     -0.2268
    101  CD2      -34.3030   56.1990  -33.8440 C.ar  195  HIS195      0.1154
    102  CE1      -36.2950   55.5160  -34.4560 C.ar  195  HIS195      0.1986
    103  NE2      -35.6190   56.5570  -34.0070 N.ar  195  HIS195     -0.2212
    104  N        -30.5690   57.4100  -29.7420 N.3   197  VAL197     -0.1245
    105  CA       -29.5120   58.4170  -29.7440 C.3   197  VAL197      0.1561
    106  C        -28.6610   58.1810  -28.5050 C.2   197  VAL197      0.2260
    107  O        -29.0740   58.5060  -27.3930 O.2   197  VAL197     -0.2867
    108  CB       -30.0830   59.8590  -29.7400 C.3   197  VAL197      0.0252
    109  CG1      -28.9640   60.8830  -29.8570 C.3   197  VAL197      0.0019
    110  CG2      -31.0830   60.0290  -30.8730 C.3   197  VAL197      0.0019
    111  N        -25.2570   69.0600  -29.1080 N.3   207  ARG207     -0.1245
    112  CA       -25.6780   68.3420  -30.3010 C.3   207  ARG207      0.1563
    113  C        -27.0100   68.8950  -30.8020 C.2   207  ARG207      0.2260
    114  O        -28.0700   68.5220  -30.2980 O.2   207  ARG207     -0.2867
    115  CB       -25.8100   66.8580  -29.9540 C.3   207  ARG207      0.0307
    116  CG       -26.1300   65.9210  -31.1050 C.3   207  ARG207      0.0489
    117  CD       -26.7650   64.6630  -30.5430 C.3   207  ARG207      0.2205
    118  NE       -26.9660   63.5890  -31.5150 N.pl3 207  ARG207     -0.0865
    119  CZ       -28.0540   63.4360  -32.2650 C.cat 207  ARG207      0.5346
    120  NH1      -29.0540   64.3070  -32.2080 N.pl3 207  ARG207      0.1354
    121  NH2      -28.1340   62.4080  -33.0910 N.pl3 207  ARG207      0.1354
    122  N        -29.9790   69.5000  -33.6310 N.3   209  SER209     -0.1217
    123  CA       -30.5760   68.7270  -34.7210 C.3   209  SER209      0.1889
    124  C        -31.9590   69.2580  -35.0980 C.2   209  SER209      0.2288
    125  O        -32.6410   69.8690  -34.2790 O.2   209  SER209     -0.2866
    126  CB       -30.6960   67.2470  -34.3260 C.3   209  SER209      0.2089
    127  OG       -31.7710   67.0340  -33.4220 O.3   209  SER209     -0.2183
    128  N        -35.3120   67.3990  -36.5660 N.3   211  SER211     -0.1217
    129  CA       -35.8240   66.0430  -36.7700 C.3   211  SER211      0.1889
    130  C        -37.3320   66.0590  -36.9410 C.2   211  SER211      0.2288
    131  O        -38.0130   66.9440  -36.4170 O.2   211  SER211     -0.2866
    132  CB       -35.4640   65.1460  -35.5810 C.3   211  SER211      0.2089
    133  OG       -36.0280   65.6490  -34.3800 O.3   211  SER211     -0.2183
    134  N        -40.9290   63.7700  -39.1800 N.3   213  TRP213     -0.1241
    135  CA       -41.4330   62.6890  -40.0200 C.3   213  TRP213      0.1605
    136  C        -42.2780   63.2050  -41.1710 C.2   213  TRP213      0.2264
    137  O        -43.0440   64.1560  -41.0210 O.2   213  TRP213     -0.2867
    138  CB       -42.2750   61.7040  -39.1960 C.3   213  TRP213      0.0550
    139  CG       -41.5120   61.0260  -38.0930 C.ar  213  TRP213      0.0003
    140  CD1      -40.8130   59.8580  -38.1760 C.ar  213  TRP213      0.0946
    141  CD2      -41.3670   61.4840  -36.7450 C.ar  213  TRP213      0.0152
    142  NE1      -40.2460   59.5560  -36.9620 N.ar  213  TRP213     -0.2442
    143  CE2      -40.5670   60.5410  -36.0670 C.ar  213  TRP213      0.0810
    144  CE3      -41.8340   62.5990  -36.0460 C.ar  213  TRP213      0.0012
    145  CZ2      -40.2230   60.6790  -34.7250 C.ar  213  TRP213      0.0191
    146  CZ3      -41.4970   62.7310  -34.7150 C.ar  213  TRP213      0.0001
    147  CH2      -40.7000   61.7760  -34.0680 C.ar  213  TRP213      0.0015
@<TRIPOS>BOND
     1    84    85    1
     2    84    83    1
     3    84    87    1
     4    85    86    2
     5    87    88    1
     6   136   137    2
     7   136   135    1
     8    58    57    2
     9    88    90   ar
    10    88    89   ar
    11    55    56    1
    12   135   138    1
    13   135   134    1
    14    57    56    1
    15    90    92   ar
    16    89    91   ar
    17    66    65    2
    18    63    64    1
    19   138   139    1
    20    56    59    1
    21    92    93   ar
    22    70    72   ar
    23    70    68   ar
    24    91    93   ar
    25    65    64    1
    26   140   139   ar
    27   140   142   ar
    28    64    67    1
    29   139   141   ar
    30    59    60    1
    31    59    61    1
    32    67    68    1
    33    72    73   ar
    34    62    60    1
    35    68    69   ar
    36    82    80    1
    37   142   143   ar
    38   130   129    1
    39   130   131    2
    40   129   128    1
    41   129   132    1
    42   141   143   ar
    43   141   144   ar
    44    73    74    1
    45    73    71   ar
    46    69    71   ar
    47   143   145   ar
    48   144   146   ar
    49    80    79    1
    50    80    81    1
    51   132   133    1
    52    79    76    1
    53    78    77    2
    54    54    52   ar
    55   124   123    1
    56   124   125    2
    57    50    49    2
    58    51    52    1
    59    51    48    1
    60   145   147   ar
    61   123   126    1
    62   123   122    1
    63   146   147   ar
    64   100   102   ar
    65   100    99   ar
    66    52    53   ar
    67   102   103   ar
    68    77    76    1
    69    49    48    1
    70   126   127    1
    71    98    99    1
    72    98    95    1
    73    99   101   ar
    74    76    75    1
    75   103   101   ar
    76    48    47    1
    77   121   119    1
    78    95    94    1
    79    95    96    1
    80   119   120    1
    81   119   118    2
    82    40    39    2
    83    96    97    2
    84    12    13    1
    85   118   117    1
    86    46    44   ar
    87    46    45   ar
    88    39    38    1
    89   116   117    1
    90   116   115    1
    91    44    42   ar
    92    15    14    2
    93   110   108    1
    94   113   112    1
    95   113   114    2
    96    45    43   ar
    97    16    13    1
    98    13    14    1
    99   112   115    1
   100   112   111    1
   101    42    43   ar
   102    42    41    1
   103   109   108    1
   104   105   104    1
   105   105   108    1
   106   105   106    1
   107    38    37    1
   108    38    41    1
   109    36    34    1
   110    25    23   ar
   111    25    27   ar
   112    28    27    1
   113    23    22   ar
   114   106   107    2
   115    27    26   ar
   116    34    33    1
   117    34    35    1
   118    22    21    1
   119    22    24   ar
   120    33    30    1
   121    32    31    2
   122    17    18    1
   123    26    24   ar
   124     9    11   ar
   125     9     7   ar
   126    11    10   ar
   127    21    18    1
   128    20    19    2
   129    31    30    1
   130     7     6   ar
   131    18    19    1
   132    10     8   ar
   133    30    29    1
   134     6     8   ar
   135     6     5    1
   136     5     2    1
   137     3     2    1
   138     3     4    2
   139     2     1    1
