@<TRIPOS>MOLECULE
tmp/4nhzH00.pdb
 124 121 0 0 0
SMALL
GASTEIGER

@<TRIPOS>ATOM
      1  N        -61.6500  -48.6940   68.1120 N.3    40  THR40      -0.1204
      2  CA       -62.0430  -49.7290   69.0650 C.3    40  THR40       0.1982
      3  C        -63.2870  -49.2010   69.7970 C.2    40  THR40       0.2497
      4  O        -63.6710  -48.0490   69.6100 O.2    40  THR40      -0.2729
      5  CB       -60.9550  -49.9350   70.1150 C.3    40  THR40       0.1783
      6  OG1      -60.8750  -48.7650   70.9370 O.3    40  THR40      -0.2211
      7  CG2      -59.5940  -50.2080   69.4730 C.3    40  THR40       0.0376
      8  N        -63.8990  -50.0100   70.6760 N.am   41  PRO41      -0.2492
      9  CA       -65.1530  -49.4610   71.2750 C.3    41  PRO41       0.1619
     10  C        -64.9560  -48.2830   72.2320 C.2    41  PRO41       0.2605
     11  O        -65.8880  -47.5340   72.4770 O.2    41  PRO41      -0.2715
     12  CB       -65.8060  -50.6620   71.9720 C.3    41  PRO41       0.0570
     13  CG       -64.8940  -51.8250   71.7600 C.2    41  PRO41      -0.0077
     14  CD       -63.7200  -51.4490   70.9100 C.2    41  PRO41       0.0634
     15  N        -63.7520  -48.1060   72.7570 N.am   42  ASN42      -0.1972
     16  CA       -63.4290  -46.8950   73.5060 C.3    42  ASN42       0.1688
     17  C        -63.0290  -45.7130   72.6260 C.2    42  ASN42       0.2292
     18  O        -63.3820  -44.5630   72.9250 O.2    42  ASN42      -0.2864
     19  CB       -62.3700  -47.1910   74.5630 C.3    42  ASN42       0.1181
     20  CG       -62.9490  -47.9760   75.7250 C.2    42  ASN42       0.2629
     21  OD1      -64.1200  -47.8240   76.0500 O.2    42  ASN42      -0.2716
     22  ND2      -62.1550  -48.8280   76.3260 N.am   42  ASN42      -0.0877
     23  N        -66.1220  -43.8330   70.7150 N.3    45  LYS45      -0.1245
     24  CA       -67.0030  -42.9270   71.4720 C.3    45  LYS45       0.1561
     25  C        -66.6580  -41.4860   71.0970 C.2    45  LYS45       0.2260
     26  O        -67.5430  -40.6490   70.9330 O.2    45  LYS45      -0.2867
     27  CB       -66.8600  -43.0710   72.9980 C.3    45  LYS45       0.0271
     28  CG       -67.0980  -44.4460   73.6080 C.3    45  LYS45       0.0035
     29  CD       -66.5930  -44.4330   75.0460 C.3    45  LYS45       0.0206
     30  CE       -66.8360  -45.7210   75.8280 C.3    45  LYS45       0.1093
     31  NZ       -66.1580  -45.6690   77.1760 N.3    45  LYS45      -0.1314
     32  N        -50.6010  -49.8730   67.8340 N.3    64  PHE64      -0.1241
     33  CA       -50.3180  -50.7420   68.9560 C.3    64  PHE64       0.1605
     34  C        -49.4920  -51.9380   68.5310 C.2    64  PHE64       0.2264
     35  O        -48.7880  -52.5090   69.3450 O.2    64  PHE64      -0.2867
     36  CB       -51.6200  -51.1860   69.6140 C.3    64  PHE64       0.0534
     37  CG       -52.1780  -50.1670   70.5540 C.ar   64  PHE64      -0.0203
     38  CD1      -52.6890  -48.9730   70.0810 C.ar   64  PHE64      -0.0042
     39  CD2      -52.1570  -50.3790   71.9200 C.ar   64  PHE64      -0.0042
     40  CE1      -53.2050  -48.0150   70.9460 C.ar   64  PHE64      -0.0003
     41  CE2      -52.6580  -49.4270   72.7860 C.ar   64  PHE64      -0.0003
     42  CZ       -53.1970  -48.2480   72.3040 C.ar   64  PHE64      -0.0000
     43  N        -48.2170  -46.5940   71.7530 N.3    69  GLN69      -0.1245
     44  CA       -48.8440  -46.1590   72.9900 C.3    69  GLN69       0.1566
     45  C        -47.9280  -46.2650   74.2260 C.2    69  GLN69       0.2260
     46  O        -48.2530  -45.7240   75.2740 O.2    69  GLN69      -0.2867
     47  CB       -50.1190  -46.9600   73.2480 C.3    69  GLN69       0.0367
     48  CG       -49.8750  -48.3120   73.9110 C.3    69  GLN69       0.0905
     49  CD       -49.3520  -49.3870   72.9640 C.2    69  GLN69       0.2608
     50  OE1      -48.9280  -49.1200   71.8340 O.2    69  GLN69      -0.2717
     51  NE2      -49.3850  -50.6200   73.4290 N.am   69  GLN69      -0.0878
     52  N        -51.4690  -43.3740   81.2160 N.3    80  ASN80      -0.1225
     53  CA       -52.0150  -44.7020   81.2860 C.3    80  ASN80       0.1785
     54  C        -51.7630  -45.5420   80.0320 C.2    80  ASN80       0.2598
     55  O        -52.0210  -46.7420   80.0580 O.2    80  ASN80      -0.2718
     56  CB       -53.5450  -44.6100   81.5460 C.3    80  ASN80       0.1169
     57  CG       -54.1710  -45.9410   81.9210 C.2    80  ASN80       0.2627
     58  OD1      -53.5330  -46.8000   82.5480 O.2    80  ASN80      -0.2716
     59  ND2      -55.4580  -46.1030   81.5850 N.am   80  ASN80      -0.0877
     60  N        -51.2960  -44.9280   78.9360 N.am   81  GLY81      -0.1942
     61  CA       -50.9680  -45.6580   77.6800 C.3    81  GLY81       0.2014
     62  C        -52.1650  -46.2510   76.9190 C.2    81  GLY81       0.2639
     63  O        -52.0990  -47.3360   76.3350 O.2    81  GLY81      -0.2714
     64  N        -53.2760  -45.5420   76.9280 N.am   82  LYS82      -0.1963
     65  CA       -54.4630  -46.0230   76.2190 C.3    82  LYS82       0.1728
     66  C        -55.0440  -44.9220   75.3410 C.2    82  LYS82       0.2616
     67  O        -54.7800  -43.7200   75.5340 O.2    82  LYS82      -0.2715
     68  CB       -55.4800  -46.5630   77.2160 C.3    82  LYS82       0.0311
     69  CG       -54.9790  -47.8230   77.8850 C.3    82  LYS82       0.0038
     70  CD       -56.0630  -48.5430   78.6560 C.3    82  LYS82       0.0206
     71  CE       -55.4910  -49.7870   79.3350 C.3    82  LYS82       0.1093
     72  NZ       -56.5370  -50.4660   80.1330 N.3    82  LYS82      -0.1314
     73  N        -55.7860  -45.3550   74.3340 N.am   83  ILE83      -0.1964
     74  CA       -56.5740  -44.4550   73.5150 C.3    83  ILE83       0.1712
     75  C        -58.0380  -44.5350   73.9810 C.2    83  ILE83       0.2458
     76  O        -58.4250  -45.4870   74.6010 O.2    83  ILE83      -0.2730
     77  CB       -56.4570  -44.8210   72.0190 C.3    83  ILE83       0.0289
     78  CG1      -56.9340  -46.2490   71.6990 C.3    83  ILE83       0.0022
     79  CG2      -55.0160  -44.6480   71.5480 C.3    83  ILE83       0.0023
     80  CD1      -58.4290  -46.3680   71.4960 C.3    83  ILE83       0.0001
     81  N        -58.8360  -43.5170   73.7070 N.am   84  PRO84      -0.2727
     82  CA       -58.5340  -42.2750   73.0120 C.3    84  PRO84       0.1402
     83  C        -57.9490  -41.1820   73.9030 C.2    84  PRO84       0.2269
     84  O        -58.1020  -41.2080   75.1230 O.2    84  PRO84      -0.2865
     85  CB       -59.9120  -41.8380   72.5230 C.3    84  PRO84       0.0296
     86  CG       -60.8030  -42.2780   73.6280 C.3    84  PRO84       0.0237
     87  CD       -60.2790  -43.6200   74.0300 C.3    84  PRO84       0.0939
     88  N        -59.1100  -40.3660   78.6590 N.3   101  GLU101     -0.1231
     89  CA       -60.3310  -41.0060   79.2020 C.3   101  GLU101      0.1699
     90  C        -61.5440  -40.5620   78.4090 C.2   101  GLU101      0.2592
     91  O        -61.8780  -39.3990   78.3780 O.2   101  GLU101     -0.2718
     92  CB       -60.5580  -40.7590   80.6990 C.3   101  GLU101      0.0402
     93  CG       -59.5470  -41.4540   81.6010 C.3   101  GLU101      0.1161
     94  CD       -59.6230  -42.9730   81.5430 C.2   101  GLU101      0.3649
     95  OE1      -58.5680  -43.6290   81.7130 O.co2 101  GLU101     -0.2457
     96  OE2      -60.7290  -43.5180   81.3200 O.co2 101  GLU101     -0.2457
     97  N        -62.1380  -41.5190   77.7280 N.am  102  SER102     -0.1952
     98  CA       -63.2640  -41.2880   76.8780 C.3   102  SER102      0.1924
     99  C        -64.3760  -40.5440   77.6240 C.2   102  SER102      0.2314
    100  O        -65.0130  -39.6930   77.0560 O.2   102  SER102     -0.2863
    101  CB       -63.7380  -42.6120   76.2740 C.3   102  SER102      0.2116
    102  OG       -64.1070  -43.5740   77.2400 O.3   102  SER102     -0.2180
    103  N        -69.1490  -46.5760   81.7940 N.3   135  MET135     -0.1245
    104  CA       -67.6780  -46.5110   81.9750 C.3   135  MET135      0.1570
    105  C        -67.1810  -47.5100   83.0110 C.2   135  MET135      0.2261
    106  O        -66.0910  -48.0480   82.8900 O.2   135  MET135     -0.2867
    107  CB       -67.2830  -45.1150   82.4230 C.3   135  MET135      0.0387
    108  CG       -67.6200  -44.0500   81.4050 C.3   135  MET135      0.0595
    109  SD       -66.3080  -43.9800   80.1850 S.3   135  MET135     -0.1393
    110  CE       -67.1960  -43.0650   78.9210 C.3   135  MET135      0.0692
    111  N        -69.8060  -50.3060   72.1670 N.3   201  TRP201     -0.1241
    112  CA       -69.5240  -51.4980   72.9720 C.3   201  TRP201      0.1605
    113  C        -70.5380  -52.5790   72.6560 C.2   201  TRP201      0.2264
    114  O        -70.1910  -53.7440   72.5350 O.2   201  TRP201     -0.2867
    115  CB       -69.4900  -51.1890   74.4920 C.3   201  TRP201      0.0550
    116  CG       -68.0920  -50.9210   74.9550 C.ar  201  TRP201      0.0003
    117  CD1      -67.5740  -49.7420   75.3330 C.ar  201  TRP201      0.0946
    118  CD2      -67.0340  -51.8760   75.0310 C.ar  201  TRP201      0.0152
    119  NE1      -66.2420  -49.8770   75.6430 N.ar  201  TRP201     -0.2442
    120  CE2      -65.8840  -51.1880   75.4730 C.ar  201  TRP201      0.0810
    121  CE3      -66.9460  -53.2500   74.7740 C.ar  201  TRP201      0.0012
    122  CZ2      -64.6530  -51.8280   75.6670 C.ar  201  TRP201      0.0191
    123  CZ3      -65.7240  -53.8890   74.9650 C.ar  201  TRP201      0.0001
    124  CH2      -64.5880  -53.1660   75.4040 C.ar  201  TRP201      0.0015
@<TRIPOS>BOND
     1    32    33    1
     2     1     2    1
     3    34    33    1
     4    34    35    2
     5    33    36    1
     6     2     3    1
     7     2     5    1
     8     7     5    1
     9     4     3    2
    10    36    37    1
    11     3     8   am
    12    38    37   ar
    13    38    40   ar
    14     5     6    1
    15    37    39   ar
    16     8    14    1
    17     8     9    1
    18    23    24    1
    19    14    13    2
    20    26    25    2
    21    40    42   ar
    22    25    24    1
    23     9    12    1
    24     9    10    1
    25    24    27    1
    26    80    78    1
    27    79    77    1
    28    78    77    1
    29    43    44    1
    30    13    12    1
    31    50    49    2
    32    39    41   ar
    33    77    74    1
    34   111   112    1
    35    10    11    2
    36    10    15   am
    37    42    41   ar
    38    85    82    1
    39    85    86    1
    40   114   113    2
    41    17    18    2
    42    17    16    1
    43   113   112    1
    44    15    16    1
    45    49    51   am
    46    49    48    1
    47   112   115    1
    48    44    47    1
    49    44    45    1
    50    27    28    1
    51    82    81    1
    52    82    83    1
    53    47    48    1
    54    16    19    1
    55    74    75    1
    56    74    73    1
    57    28    29    1
    58    86    87    1
    59    81    75   am
    60    81    87    1
    61    83    84    2
    62    75    76    2
    63    45    46    2
    64    73    66   am
    65   115   116    1
    66    19    20    1
    67   121   123   ar
    68   121   118   ar
    69   116   118   ar
    70   116   117   ar
    71   123   124   ar
    72   118   120   ar
    73    29    30    1
    74   117   119   ar
    75    66    67    2
    76    66    65    1
    77   124   122   ar
    78   120   119   ar
    79   120   122   ar
    80    20    21    2
    81    20    22   am
    82    30    31    1
    83    65    64    1
    84    65    68    1
    85   101    98    1
    86   101   102    1
    87    63    62    2
    88    98    99    1
    89    98    97    1
    90    62    64   am
    91    62    61    1
    92   100    99    2
    93    68    69    1
    94    61    60    1
    95    97    90   am
    96    69    70    1
    97    91    90    2
    98    90    89    1
    99    70    71    1
   100    88    89    1
   101   110   109    1
   102    60    54   am
   103    89    92    1
   104    71    72    1
   105    54    55    2
   106    54    53    1
   107   109   108    1
   108    92    93    1
   109    52    53    1
   110    53    56    1
   111    96    94   ar
   112   108   107    1
   113    94    93    1
   114    94    95   ar
   115    56    57    1
   116    59    57   am
   117   103   104    1
   118    57    58    2
   119   104   107    1
   120   104   105    1
   121   106   105    2
