@<TRIPOS>MOLECULE
tmp/4nhzL00.pdb
 92 91 0 0 0
SMALL
GASTEIGER

@<TRIPOS>ATOM
      1  N        -60.4220    0.6980  -29.8380 N.3    25  LEU25      -0.1245
      2  CA       -61.1420   -0.2220  -30.6890 C.3    25  LEU25       0.1561
      3  C        -62.6030    0.2440  -30.6200 C.2    25  LEU25       0.2260
      4  O        -62.9980    0.8330  -29.6050 O.2    25  LEU25      -0.2867
      5  CB       -61.1090   -1.6460  -30.1320 C.3    25  LEU25       0.0270
      6  CG       -59.8440   -2.4890  -30.2530 C.3    25  LEU25       0.0019
      7  CD1      -60.0240   -3.7700  -29.4580 C.3    25  LEU25       0.0001
      8  CD2      -59.5450   -2.8140  -31.6960 C.3    25  LEU25       0.0001
      9  N        -65.4230   -0.5270  -29.5990 N.3    27  THR27      -0.1204
     10  CA       -66.2750   -1.2260  -28.6560 C.3    27  THR27       0.1979
     11  C        -67.0790   -0.1470  -27.9460 C.2    27  THR27       0.2460
     12  O        -66.7790    1.0340  -28.0900 O.2    27  THR27      -0.2732
     13  CB       -65.4330   -1.9470  -27.6080 C.3    27  THR27       0.1783
     14  OG1      -64.7070   -0.9690  -26.8410 O.3    27  THR27      -0.2211
     15  CG2      -64.4440   -2.8990  -28.2780 C.3    27  THR27       0.0376
     16  N        -68.0710   -0.5470  -27.1470 N.am   28  PRO28      -0.2717
     17  CA       -68.8770    0.4430  -26.4360 C.3    28  PRO28       0.1535
     18  C        -68.0900    1.3810  -25.5370 C.2    28  PRO28       0.2598
     19  O        -68.4760    2.5310  -25.3860 O.2    28  PRO28      -0.2715
     20  CB       -69.8360   -0.4260  -25.6310 C.3    28  PRO28       0.0310
     21  CG       -70.0640   -1.5870  -26.5260 C.3    28  PRO28       0.0237
     22  CD       -68.7160   -1.8760  -27.1390 C.3    28  PRO28       0.0939
     23  N        -66.9850    0.9220  -24.9490 N.am   29  ASN29      -0.1973
     24  CA       -66.1440    1.8280  -24.1730 C.3    29  ASN29       0.1688
     25  C        -65.2250    2.7010  -25.0520 C.2    29  ASN29       0.2292
     26  O        -64.9900    3.8740  -24.7560 O.2    29  ASN29      -0.2864
     27  CB       -65.3690    1.0620  -23.1280 C.3    29  ASN29       0.1181
     28  CG       -66.2480    0.5900  -21.9910 C.2    29  ASN29       0.2629
     29  OD1      -67.1890    1.2700  -21.5870 O.2    29  ASN29      -0.2716
     30  ND2      -65.9430   -0.5750  -21.4670 N.am   29  ASN29      -0.0877
     31  N        -56.0980   -7.2820  -29.7910 N.3    51  PHE51      -0.1241
     32  CA       -56.2650   -8.2150  -28.7040 C.3    51  PHE51       0.1605
     33  C        -56.0000   -9.6480  -29.0970 C.2    51  PHE51       0.2264
     34  O        -55.5790  -10.4430  -28.2670 O.2    51  PHE51      -0.2867
     35  CB       -57.6790   -8.0720  -28.1320 C.3    51  PHE51       0.0534
     36  CG       -57.7870   -6.9660  -27.1350 C.ar   51  PHE51      -0.0203
     37  CD1      -57.7060   -5.6410  -27.5360 C.ar   51  PHE51      -0.0042
     38  CD2      -57.8860   -7.2450  -25.7880 C.ar   51  PHE51      -0.0042
     39  CE1      -57.7720   -4.6010  -26.6170 C.ar   51  PHE51      -0.0003
     40  CE2      -57.9480   -6.2190  -24.8630 C.ar   51  PHE51      -0.0003
     41  CZ       -57.9000   -4.8910  -25.2700 C.ar   51  PHE51      -0.0000
     42  N        -52.6060   -5.5740  -25.8980 N.3    56  GLN56      -0.1245
     43  CA       -52.9880   -4.8860  -24.6630 C.3    56  GLN56       0.1566
     44  C        -52.1940   -5.3510  -23.4210 C.2    56  GLN56       0.2260
     45  O        -52.2390   -4.6940  -22.3930 O.2    56  GLN56      -0.2867
     46  CB       -54.5120   -4.9800  -24.4110 C.3    56  GLN56       0.0367
     47  CG       -54.9710   -6.2640  -23.7430 C.3    56  GLN56       0.0905
     48  CD       -54.9510   -7.4670  -24.6710 C.2    56  GLN56       0.2608
     49  OE1      -54.2670   -7.4860  -25.6950 O.2    56  GLN56      -0.2717
     50  NE2      -55.6890   -8.4880  -24.3010 N.am   56  GLN56      -0.0878
     51  N        -54.6160   -2.5720  -18.7020 N.3    68  GLY68      -0.1210
     52  CA       -54.6380   -3.3380  -19.9630 C.3    68  GLY68       0.1956
     53  C        -55.9470   -3.2840  -20.7500 C.2    68  GLY68       0.2612
     54  O        -56.3270   -4.2520  -21.4000 O.2    68  GLY68      -0.2717
     55  N        -56.6260   -2.1420  -20.7180 N.am   69  LYS69      -0.1965
     56  CA       -57.8900   -1.9740  -21.4270 C.3    69  LYS69       0.1728
     57  C        -57.8720   -0.7330  -22.3060 C.2    69  LYS69       0.2616
     58  O        -57.0940    0.1910  -22.0600 O.2    69  LYS69      -0.2715
     59  CB       -59.0410   -1.8740  -20.4220 C.3    69  LYS69       0.0311
     60  CG       -59.3510   -3.1620  -19.6630 C.3    69  LYS69       0.0038
     61  CD       -60.6940   -3.0010  -18.9480 C.3    69  LYS69       0.0206
     62  CE       -61.0770   -4.1500  -18.0140 C.3    69  LYS69       0.1093
     63  NZ       -60.9290   -5.4750  -18.6570 N.3    69  LYS69      -0.1314
     64  N        -58.7130   -0.7370  -23.3450 N.am   70  ILE70      -0.1964
     65  CA       -58.9470    0.4460  -24.1960 C.3    70  ILE70       0.1712
     66  C        -60.2140    1.1400  -23.6940 C.2    70  ILE70       0.2458
     67  O        -61.0420    0.4950  -23.0670 O.2    70  ILE70      -0.2730
     68  CB       -59.0310    0.0970  -25.7230 C.3    70  ILE70       0.0289
     69  CG1      -60.1610   -0.8950  -26.0820 C.3    70  ILE70       0.0022
     70  CG2      -57.7020   -0.4560  -26.1950 C.3    70  ILE70       0.0023
     71  CD1      -61.5300   -0.2810  -26.3520 C.3    70  ILE70       0.0001
     72  N        -60.3690    2.4440  -23.9590 N.am   71  PRO71      -0.2727
     73  CA       -59.4900    3.3480  -24.6890 C.3    71  PRO71       0.1402
     74  C        -58.4780    4.0190  -23.8020 C.2    71  PRO71       0.2269
     75  O        -58.7020    4.1190  -22.6200 O.2    71  PRO71      -0.2865
     76  CB       -60.4490    4.4140  -25.1950 C.3    71  PRO71       0.0296
     77  CG       -61.4940    4.4850  -24.1190 C.3    71  PRO71       0.0237
     78  CD       -61.6810    3.0720  -23.6860 C.3    71  PRO71       0.0939
     79  N        -73.2820    2.0130  -25.7200 N.3   188  TRP188     -0.1241
     80  CA       -73.6910    0.8620  -24.9380 C.3   188  TRP188      0.1605
     81  C        -75.1270    0.4550  -25.2600 C.2   188  TRP188      0.2264
     82  O        -75.4040   -0.7320  -25.4550 O.2   188  TRP188     -0.2867
     83  CB       -73.5270    1.1290  -23.4220 C.3   188  TRP188      0.0550
     84  CG       -72.1570    0.7180  -22.9480 C.ar  188  TRP188      0.0003
     85  CD1      -71.1230    1.5300  -22.6100 C.ar  188  TRP188      0.0946
     86  CD2      -71.6810   -0.6180  -22.8250 C.ar  188  TRP188      0.0152
     87  NE1      -70.0180    0.7800  -22.2750 N.ar  188  TRP188     -0.2442
     88  CE2      -70.3370   -0.5450  -22.3890 C.ar  188  TRP188      0.0810
     89  CE3      -72.2440   -1.8750  -23.0830 C.ar  188  TRP188      0.0012
     90  CZ2      -69.5560   -1.6770  -22.1880 C.ar  188  TRP188      0.0191
     91  CZ3      -71.4750   -3.0090  -22.8660 C.ar  188  TRP188      0.0001
     92  CH2      -70.1390   -2.9000  -22.4260 C.ar  188  TRP188      0.0015
@<TRIPOS>BOND
     1     8     6    1
     2     2     3    1
     3     2     5    1
     4     2     1    1
     5     3     4    2
     6     6     5    1
     7     6     7    1
     8    31    32    1
     9     9    10    1
    10    33    32    1
    11    33    34    2
    12    32    35    1
    13    10    11    1
    14    10    13    1
    15    15    13    1
    16    35    36    1
    17    12    11    2
    18    11    16   am
    19    13    14    1
    20    37    36   ar
    21    37    39   ar
    22    16    22    1
    23    16    17    1
    24    22    21    1
    25    36    38   ar
    26    39    41   ar
    27    21    20    1
    28    17    20    1
    29    17    18    1
    30    71    69    1
    31    70    68    1
    32    69    68    1
    33    42    43    1
    34    38    40   ar
    35    68    65    1
    36    79    80    1
    37    49    48    2
    38    18    19    2
    39    18    23   am
    40    82    81    2
    41    41    40   ar
    42    81    80    1
    43    76    73    1
    44    76    77    1
    45    25    26    2
    46    25    24    1
    47    23    24    1
    48    80    83    1
    49    73    72    1
    50    73    74    1
    51    48    50   am
    52    48    47    1
    53    43    46    1
    54    43    44    1
    55    46    47    1
    56    65    66    1
    57    65    64    1
    58    24    27    1
    59    77    78    1
    60    72    66   am
    61    72    78    1
    62    74    75    2
    63    66    67    2
    64    83    84    1
    65    44    45    2
    66    64    57   am
    67    27    28    1
    68    89    91   ar
    69    89    86   ar
    70    84    86   ar
    71    84    85   ar
    72    91    92   ar
    73    86    88   ar
    74    85    87   ar
    75    92    90   ar
    76    88    87   ar
    77    88    90   ar
    78    57    58    2
    79    57    56    1
    80    28    29    2
    81    28    30   am
    82    56    55    1
    83    56    59    1
    84    54    53    2
    85    53    55   am
    86    53    52    1
    87    59    60    1
    88    52    51    1
    89    60    61    1
    90    61    62    1
    91    63    62    1
