@<TRIPOS>MOLECULE
tmp/4ni1A02.pdb
 81 77 0 0 0
SMALL
GASTEIGER

@<TRIPOS>ATOM
      1  N         26.1160   16.7620   52.5680 N.3    95  PRO95      -0.2116
      2  CA        27.4750   17.3040   52.4220 C.3    95  PRO95       0.1372
      3  C         27.6280   18.7330   52.9300 C.2    95  PRO95       0.2244
      4  O         28.6390   19.0840   53.5500 O.2    95  PRO95      -0.2868
      5  CB        27.7370   17.2060   50.9140 C.3    95  PRO95       0.0268
      6  CG        26.9600   16.0150   50.5290 C.3    95  PRO95       0.0207
      7  CD        25.6690   16.1390   51.3060 C.3    95  PRO95       0.0892
      8  N         28.8110   19.3810   56.6270 N.3    98  PHE98      -0.1227
      9  CA        30.1950   19.2740   57.0280 C.3    98  PHE98       0.1736
     10  C         30.8440   20.6300   57.0250 C.2    98  PHE98       0.2595
     11  O         31.6720   20.9220   57.8840 O.2    98  PHE98      -0.2718
     12  CB        30.9290   18.2900   56.1280 C.3    98  PHE98       0.0547
     13  CG        30.4760   16.9020   56.3360 C.ar   98  PHE98      -0.0202
     14  CD1       30.9870   16.1460   57.3810 C.ar   98  PHE98      -0.0042
     15  CD2       29.4230   16.3860   55.5720 C.ar   98  PHE98      -0.0042
     16  CE1       30.4580   14.8920   57.6790 C.ar   98  PHE98      -0.0003
     17  CE2       28.8880   15.1320   55.8610 C.ar   98  PHE98      -0.0003
     18  CZ        29.4060   14.3790   56.9170 C.ar   98  PHE98      -0.0000
     19  N         30.4310   21.4760   56.0770 N.am   99  LYS99      -0.1980
     20  CA        30.9360   22.8360   55.9950 C.3    99  LYS99       0.1596
     21  C         30.4660   23.6340   57.2120 C.2    99  LYS99       0.2287
     22  O         31.2190   24.3910   57.7980 O.2    99  LYS99      -0.2864
     23  CB        30.4250   23.5370   54.7180 C.3    99  LYS99       0.0298
     24  CG        31.0550   23.0220   53.3970 C.3    99  LYS99       0.0038
     25  CD        30.5210   23.7840   52.1480 C.3    99  LYS99       0.0206
     26  CE        31.2330   23.3210   50.8490 C.3    99  LYS99       0.1093
     27  NZ        31.0070   24.2530   49.6580 N.3    99  LYS99      -0.1314
     28  N         32.3820   22.4290   60.3360 N.3   102  SER102     -0.1217
     29  CA        33.7620   22.8840   60.2000 C.3   102  SER102      0.1889
     30  C         33.8380   24.3740   60.5810 C.2   102  SER102      0.2288
     31  O         34.6760   24.7640   61.3710 O.2   102  SER102     -0.2866
     32  CB        34.2930   22.6600   58.7680 C.3   102  SER102      0.2089
     33  OG        34.4960   21.2680   58.5130 O.3   102  SER102     -0.2183
     34  N         38.6160   20.7180   55.8180 N.3   130  ALA130     -0.1245
     35  CA        38.0390   20.4410   54.5130 C.3   130  ALA130      0.1562
     36  C         38.4400   19.0340   54.0690 C.2   130  ALA130      0.2260
     37  O         37.6570   18.3470   53.4080 O.2   130  ALA130     -0.2867
     38  CB        38.4950   21.5390   53.4510 C.3   130  ALA130      0.0290
     39  N         36.3030   16.5480   56.0690 N.3   133  SER133     -0.1202
     40  CA        34.9630   16.5840   55.4810 C.3   133  SER133      0.2020
     41  C         34.9510   15.8820   54.1090 C.2   133  SER133      0.2619
     42  O         34.0300   15.1400   53.8140 O.2   133  SER133     -0.2717
     43  CB        34.5040   18.0280   55.3210 C.3   133  SER133      0.2103
     44  OG        34.3540   18.6440   56.5860 O.3   133  SER133     -0.2182
     45  N         35.9670   16.1130   53.2820 N.am  134  THR134     -0.1952
     46  CA        36.0150   15.4360   51.9690 C.3   134  THR134      0.1897
     47  C         36.1070   13.9070   52.1890 C.2   134  THR134      0.2313
     48  O         35.5130   13.1100   51.4430 O.2   134  THR134     -0.2863
     49  CB        37.2260   15.8890   51.1140 C.3   134  THR134      0.1794
     50  OG1       37.1110   17.2840   50.8220 O.3   134  THR134     -0.2208
     51  CG2       37.2260   15.1230   49.7830 C.3   134  THR134      0.0378
     52  N         32.6430   12.5570   53.2330 N.3   137  THR137     -0.1218
     53  CA        31.6210   12.5550   52.1860 C.3   137  THR137      0.1862
     54  C         32.0710   11.7210   50.9830 C.2   137  THR137      0.2287
     55  O         31.3470   11.6300   49.9950 O.2   137  THR137     -0.2866
     56  CB        31.3470   13.9730   51.6430 C.3   137  THR137      0.1770
     57  OG1       32.5590   14.5010   51.0810 O.3   137  THR137     -0.2211
     58  CG2       30.8240   14.8810   52.7150 C.3   137  THR137      0.0375
     59  N         29.9120    9.2080   49.0980 N.3   140  TYR140     -0.1227
     60  CA        28.8780    9.6760   48.1600 C.3   140  TYR140      0.1736
     61  C         29.4570    9.7340   46.7440 C.2   140  TYR140      0.2595
     62  O         28.7090    9.8580   45.7740 O.2   140  TYR140     -0.2718
     63  CB        28.3760   11.0910   48.4800 C.3   140  TYR140      0.0548
     64  CG        27.4980   11.2230   49.7030 C.ar  140  TYR140     -0.0200
     65  CD1       26.3960   10.3810   49.8980 C.ar  140  TYR140     -0.0009
     66  CD2       27.7920   12.1700   50.6840 C.ar  140  TYR140     -0.0009
     67  CE1       25.6100   10.4810   51.0490 C.ar  140  TYR140      0.0417
     68  CE2       27.0220   12.2760   51.8440 C.ar  140  TYR140      0.0417
     69  CZ        25.9360   11.4290   52.0180 C.ar  140  TYR140      0.1957
     70  OH        25.1810   11.5140   53.1540 O.3   140  TYR140     -0.2866
     71  N         30.7860    9.7010   46.6310 N.am  141  ARG141     -0.1980
     72  CA        31.4440    9.7360   45.3250 C.3   141  ARG141      0.1597
     73  C         31.9410    8.3340   44.9660 C.2   141  ARG141      0.2287
     74  O         33.0340    8.2320   44.3760 O.2   141  ARG141     -0.2864
     75  CB        32.6300   10.7110   45.3380 C.3   141  ARG141      0.0334
     76  CG        32.2620   12.1170   45.7250 C.3   141  ARG141      0.0492
     77  CD        33.4340   13.0630   45.6070 C.3   141  ARG141      0.2205
     78  NE        34.4810   12.8270   46.5940 N.pl3 141  ARG141     -0.0865
     79  CZ        34.4190   13.2160   47.8650 C.cat 141  ARG141      0.5346
     80  NH1       33.3520   13.8670   48.3160 N.pl3 141  ARG141      0.1354
     81  NH2       35.4330   12.9670   48.6880 N.pl3 141  ARG141      0.1354
@<TRIPOS>BOND
     1    74    73    2
     2    73    72    1
     3    72    75    1
     4    72    71    1
     5    75    76    1
     6    77    76    1
     7    77    78    1
     8    62    61    2
     9    78    79    2
    10    71    61   am
    11    61    60    1
    12    79    80    1
    13    79    81    1
    14    60    63    1
    15    60    59    1
    16    63    64    1
    17    27    26    1
    18    64    65   ar
    19    64    66   ar
    20    51    49    1
    21    65    67   ar
    22    55    54    2
    23     6     5    1
    24     6     7    1
    25    66    68   ar
    26    50    49    1
    27    26    25    1
    28     5     2    1
    29    54    53    1
    30    67    69   ar
    31    57    56    1
    32    49    46    1
    33     7     1    1
    34    48    47    2
    35    56    53    1
    36    56    58    1
    37    68    69   ar
    38    46    47    1
    39    46    45    1
    40    69    70    1
    41    25    24    1
    42    53    52    1
    43     2     1    1
    44     2     3    1
    45     3     4    2
    46    45    41   am
    47    24    23    1
    48    37    36    2
    49    38    35    1
    50    42    41    2
    51    36    35    1
    52    41    40    1
    53    35    34    1
    54    23    20    1
    55    43    40    1
    56    43    44    1
    57    40    39    1
    58    15    17   ar
    59    15    13   ar
    60    17    18   ar
    61    20    19    1
    62    20    21    1
    63    19    10   am
    64    12    13    1
    65    12     9    1
    66    13    14   ar
    67     8     9    1
    68    18    16   ar
    69    10     9    1
    70    10    11    2
    71    21    22    2
    72    14    16   ar
    73    33    32    1
    74    32    29    1
    75    29    28    1
    76    29    30    1
    77    30    31    2
