@<TRIPOS>MOLECULE
tmp/4ni3B01.pdb
 120 114 0 0 0
SMALL
GASTEIGER

@<TRIPOS>ATOM
      1  N         16.4390    8.4820   -0.2760 N.3   277  ARG277     -0.1231
      2  CA        16.8440    9.8590   -0.0160 C.3   277  ARG277      0.1694
      3  C         16.2720   10.8150   -1.0610 C.2   277  ARG277      0.2592
      4  O         16.0510   10.4480   -2.2220 O.2   277  ARG277     -0.2718
      5  CB        18.3740    9.9680    0.0340 C.3   277  ARG277      0.0321
      6  CG        18.9660    9.2930    1.2780 C.3   277  ARG277      0.0489
      7  CD        20.4690    9.3820    1.3240 C.3   277  ARG277      0.2205
      8  NE        20.9900    8.6180    2.4520 N.pl3 277  ARG277     -0.0865
      9  CZ        22.2800    8.4880    2.7260 C.cat 277  ARG277      0.5346
     10  NH1       23.1830    9.0630    1.9470 N.pl3 277  ARG277      0.1354
     11  NH2       22.6630    7.7710    3.7750 N.pl3 277  ARG277      0.1354
     12  N         16.0380   12.0520   -0.6330 N.am  278  ASN278     -0.1974
     13  CA        15.3970   13.0640   -1.4740 C.3   278  ASN278      0.1688
     14  C         16.3450   13.6810   -2.4900 C.2   278  ASN278      0.2292
     15  O         15.9580   14.6100   -3.2290 O.2   278  ASN278     -0.2864
     16  CB        14.7560   14.1560   -0.5970 C.3   278  ASN278      0.1181
     17  CG        15.7410   14.8420    0.3080 C.2   278  ASN278      0.2629
     18  OD1       16.8950   15.0450   -0.0530 O.2   278  ASN278     -0.2716
     19  ND2       15.2900   15.1980    1.5060 N.am  278  ASN278     -0.0877
     20  N          9.7210   12.7250   -2.4080 N.3   283  ASP283     -0.1239
     21  CA         8.9470   12.5850   -1.1660 C.3   283  ASP283      0.1674
     22  C          7.4500   12.6360   -1.4520 C.2   283  ASP283      0.2266
     23  O          6.9740   13.5740   -2.1190 O.2   283  ASP283     -0.2867
     24  CB         9.2800   13.7010   -0.1790 C.3   283  ASP283      0.1410
     25  CG        10.6210   13.5460    0.4680 C.2   283  ASP283      0.3668
     26  OD1       11.5120   12.8710   -0.0810 O.co2 283  ASP283     -0.2456
     27  OD2       10.7870   14.1640    1.5510 O.co2 283  ASP283     -0.2456
     28  N          7.4090   23.8390   -0.2570 N.3   294  VAL294     -0.1231
     29  CA         8.5160   22.9430    0.0690 C.3   294  VAL294      0.1692
     30  C          9.3750   22.6860   -1.1690 C.2   294  VAL294      0.2592
     31  O          8.8460   22.4710   -2.2720 O.2   294  VAL294     -0.2718
     32  CB         8.0040   21.6020    0.6290 C.3   294  VAL294      0.0266
     33  CG1        9.1240   20.5430    0.7270 C.3   294  VAL294      0.0020
     34  CG2        7.3760   21.7860    2.0040 C.3   294  VAL294      0.0020
     35  N         10.6930   22.7370   -0.9960 N.am  295  ARG295     -0.1966
     36  CA        11.6510   22.3690   -2.0340 C.3   295  ARG295      0.1714
     37  C         12.6180   21.3490   -1.4280 C.2   295  ARG295      0.2458
     38  O         12.9940   21.4950   -0.2620 O.2   295  ARG295     -0.2730
     39  CB        12.3930   23.6110   -2.5510 C.3   295  ARG295      0.0347
     40  CG        11.4460   24.7220   -2.9740 C.3   295  ARG295      0.0492
     41  CD        12.1980   25.8900   -3.6190 C.3   295  ARG295      0.2205
     42  NE        11.2750   26.8880   -4.1660 N.pl3 295  ARG295     -0.0865
     43  CZ        10.6790   26.7810   -5.3540 C.cat 295  ARG295      0.5346
     44  NH1       10.8940   25.7210   -6.1540 N.pl3 295  ARG295      0.1354
     45  NH2        9.8420   27.7540   -5.7350 N.pl3 295  ARG295      0.1354
     46  N         13.0210   20.3250   -2.2000 N.am  296  PRO296     -0.2727
     47  CA        12.7360   20.1420   -3.6240 C.3   296  PRO296      0.1402
     48  C         11.3330   19.6060   -3.9090 C.2   296  PRO296      0.2269
     49  O         10.5430   19.2990   -3.0010 O.2   296  PRO296     -0.2865
     50  CB        13.8190   19.1470   -4.0670 C.3   296  PRO296      0.0296
     51  CG        13.9960   18.2630   -2.8310 C.3   296  PRO296      0.0237
     52  CD        13.9110   19.2680   -1.6720 C.3   296  PRO296      0.0939
     53  N         13.1510   27.7950    7.1760 N.3   521  THR521     -0.1218
     54  CA        14.5460   27.3830    6.9970 C.3   521  THR521      0.1862
     55  C         14.7540   26.9960    5.5350 C.2   521  THR521      0.2287
     56  O         13.9620   26.2390    4.9470 O.2   521  THR521     -0.2866
     57  CB        14.9330   26.2110    7.9150 C.3   521  THR521      0.1770
     58  OG1       14.1600   25.0620    7.5710 O.3   521  THR521     -0.2211
     59  CG2       14.6430   26.5560    9.3440 C.3   521  THR521      0.0375
     60  N         17.6120   25.7560    2.8070 N.3   523  ASP523     -0.1239
     61  CA        18.9630   25.2650    2.5990 C.3   523  ASP523      0.1674
     62  C         19.4360   25.4890    1.1680 C.2   523  ASP523      0.2266
     63  O         18.7390   26.1180    0.3630 O.2   523  ASP523     -0.2867
     64  CB        19.0660   23.7760    2.9950 C.3   523  ASP523      0.1410
     65  CG        18.1650   22.8400    2.1630 C.2   523  ASP523      0.3668
     66  OD1       17.5170   23.2520    1.1750 O.co2 523  ASP523     -0.2456
     67  OD2       18.1210   21.6310    2.5190 O.co2 523  ASP523     -0.2456
     68  N         23.8440   31.1180    7.2940 N.3   551  PHE551     -0.1241
     69  CA        24.8090   30.0990    7.6710 C.3   551  PHE551      0.1605
     70  C         25.6960   29.8210    6.4830 C.2   551  PHE551      0.2264
     71  O         25.2030   29.7060    5.3600 O.2   551  PHE551     -0.2867
     72  CB        24.1250   28.7950    8.1120 C.3   551  PHE551      0.0534
     73  CG        23.4210   28.8880    9.4190 C.ar  551  PHE551     -0.0203
     74  CD1       22.1140   29.3790    9.5010 C.ar  551  PHE551     -0.0042
     75  CD2       24.0510   28.4680   10.5740 C.ar  551  PHE551     -0.0042
     76  CE1       21.4570   29.4550   10.7380 C.ar  551  PHE551     -0.0003
     77  CE2       23.4090   28.5460   11.8020 C.ar  551  PHE551     -0.0003
     78  CZ        22.1090   29.0460   11.8810 C.ar  551  PHE551     -0.0000
     79  N         23.4130   23.3510    4.9670 N.3   555  ARG555     -0.1231
     80  CA        22.1860   23.0600    5.6910 C.3   555  ARG555      0.1694
     81  C         22.3560   23.4210    7.1830 C.2   555  ARG555      0.2592
     82  O         22.3460   22.5580    8.0830 O.2   555  ARG555     -0.2718
     83  CB        21.8030   21.5820    5.4970 C.3   555  ARG555      0.0321
     84  CG        20.3680   21.2490    5.8500 C.3   555  ARG555      0.0489
     85  CD        20.0040   19.8600    5.3300 C.3   555  ARG555      0.2205
     86  NE        19.6650   19.8780    3.9120 N.pl3 555  ARG555     -0.0865
     87  CZ        19.9470   18.9050    3.0530 C.cat 555  ARG555      0.5346
     88  NH1       20.6150   17.8160    3.4450 N.pl3 555  ARG555      0.1354
     89  NH2       19.5730   19.0220    1.7910 N.pl3 555  ARG555      0.1354
     90  N         22.4950   24.7260    7.4350 N.am  556  PHE556     -0.1962
     91  CA        22.4410   25.3300    8.7700 C.3   556  PHE556      0.1771
     92  C         23.6020   24.9240    9.6750 C.2   556  PHE556      0.2620
     93  O         23.4600   24.7980   10.8870 O.2   556  PHE556     -0.2715
     94  CB        21.0840   25.0230    9.4250 C.3   556  PHE556      0.0574
     95  CG        19.9560   25.1160    8.4450 C.ar  556  PHE556     -0.0200
     96  CD1       19.6780   26.3260    7.8320 C.ar  556  PHE556     -0.0042
     97  CD2       19.2550   23.9920    8.0430 C.ar  556  PHE556     -0.0042
     98  CE1       18.6940   26.4240    6.8700 C.ar  556  PHE556     -0.0003
     99  CE2       18.2620   24.0940    7.0820 C.ar  556  PHE556     -0.0003
    100  CZ        17.9900   25.3130    6.4950 C.ar  556  PHE556     -0.0000
    101  N         24.7480   24.7490    9.0340 N.am  557  THR557     -0.1951
    102  CA        26.0240   24.5220    9.7100 C.3   557  THR557      0.1897
    103  C         26.9740   25.6500    9.3520 C.2   557  THR557      0.2313
    104  O         26.6740   26.4620    8.4760 O.2   557  THR557     -0.2863
    105  CB        26.6700   23.1890    9.3070 C.3   557  THR557      0.1794
    106  OG1       26.9350   23.1820    7.9040 O.3   557  THR557     -0.2208
    107  CG2       25.7630   21.9990    9.6620 C.3   557  THR557      0.0378
    108  N         18.0180   31.0070    7.8210 N.3   579  VAL579     -0.1245
    109  CA        16.8820   30.8310    8.7030 C.3   579  VAL579      0.1561
    110  C         16.2120   32.1920    8.8720 C.2   579  VAL579      0.2260
    111  O         16.8620   33.1700    9.2360 O.2   579  VAL579     -0.2867
    112  CB        17.2960   30.2620   10.0750 C.3   579  VAL579      0.0252
    113  CG1       16.0800   30.1820   11.0300 C.3   579  VAL579      0.0019
    114  CG2       17.9720   28.8940    9.9140 C.3   579  VAL579      0.0019
    115  N         13.3220   34.3300   10.7630 N.3   581  SER581     -0.1217
    116  CA        12.6130   34.2080   12.0300 C.3   581  SER581      0.1889
    117  C         11.8360   35.4630   12.3940 C.2   581  SER581      0.2288
    118  O         12.2370   36.5740   12.0580 O.2   581  SER581     -0.2866
    119  CB        13.6040   33.8830   13.1480 C.3   581  SER581      0.2089
    120  OG        14.3290   32.7010   12.8520 O.3   581  SER581     -0.2183
@<TRIPOS>BOND
     1    44    43    1
     2    45    43    1
     3    43    42    2
     4    42    41    1
     5    50    47    1
     6    50    51    1
     7    48    47    1
     8    48    49    2
     9    47    46    1
    10    41    40    1
    11    15    14    2
    12    40    39    1
    13    51    52    1
    14    39    36    1
    15    14    13    1
    16    20    21    1
    17    31    30    2
    18     4     3    2
    19    46    52    1
    20    46    37   am
    21    23    22    2
    22    36    37    1
    23    36    35    1
    24    13    12    1
    25    13    16    1
    26    22    21    1
    27    37    38    2
    28    30    35   am
    29    30    29    1
    30    21    24    1
    31     3    12   am
    32     3     2    1
    33    16    17    1
    34     1     2    1
    35    28    29    1
    36    24    25    1
    37    26    25   ar
    38    18    17    2
    39     2     5    1
    40     5     6    1
    41    29    32    1
    42    17    19   am
    43    63    62    2
    44    25    27   ar
    45    32    33    1
    46    32    34    1
    47    62    61    1
    48    66    65   ar
    49     6     7    1
    50     7     8    1
    51    89    87    1
    52    10     9    1
    53    65    67   ar
    54    65    64    1
    55     8     9    2
    56    61    60    1
    57    61    64    1
    58     9    11    1
    59    87    88    1
    60    87    86    2
    61    86    85    1
    62    56    55    2
    63    79    80    1
    64    85    84    1
    65    71    70    2
    66    83    80    1
    67    83    84    1
    68    55    54    1
    69    80    81    1
    70    70    69    1
    71   100    98   ar
    72   100    99   ar
    73    98    96   ar
    74    54    53    1
    75    54    57    1
    76    99    97   ar
    77    81    90   am
    78    81    82    2
    79    68    69    1
    80    90    91    1
    81    58    57    1
    82    69    72    1
    83   108   109    1
    84    96    95   ar
    85   106   105    1
    86    57    59    1
    87    97    95   ar
    88    72    73    1
    89    95    94    1
    90   104   103    2
    91   109   110    1
    92   109   112    1
    93    91    94    1
    94    91    92    1
    95   110   111    2
    96   101    92   am
    97   101   102    1
    98   105   107    1
    99   105   102    1
   100   103   102    1
   101    73    74   ar
   102    73    75   ar
   103    74    76   ar
   104    92    93    2
   105   114   112    1
   106   112   113    1
   107    75    77   ar
   108    76    78   ar
   109   115   116    1
   110    77    78   ar
   111   116   117    1
   112   116   119    1
   113   118   117    2
   114   120   119    1
