@<TRIPOS>MOLECULE
tmp/4ni3B03.pdb
 124 124 0 0 0
SMALL
GASTEIGER

@<TRIPOS>ATOM
      1  N         -8.7660   -1.1040    2.7260 N.3    44  GLU44      -0.1231
      2  CA        -7.7680   -1.9480    2.1170 C.3    44  GLU44       0.1699
      3  C         -6.9190   -2.6880    3.1210 C.2    44  GLU44       0.2592
      4  O         -6.2330   -3.6300    2.7470 O.2    44  GLU44      -0.2718
      5  CB        -6.8710   -1.1210    1.1820 C.3    44  GLU44       0.0402
      6  CG        -5.8420   -0.2180    1.8840 C.3    44  GLU44       0.1161
      7  CD        -6.4630    0.9150    2.6740 C.2    44  GLU44       0.3649
      8  OE1       -7.6030    1.3310    2.3630 O.co2  44  GLU44      -0.2457
      9  OE2       -5.8100    1.4160    3.6130 O.co2  44  GLU44      -0.2457
     10  N         -6.9930   -2.2970    4.4000 N.am   45  TRP45      -0.1976
     11  CA        -6.3570   -3.0870    5.4530 C.3    45  TRP45       0.1640
     12  C         -7.1500   -4.3060    5.9020 C.2    45  TRP45       0.2290
     13  O         -6.6970   -5.0190    6.8160 O.2    45  TRP45      -0.2864
     14  CB        -6.0730   -2.1760    6.6550 C.3    45  TRP45       0.0576
     15  CG        -4.7560   -1.4980    6.6230 C.ar   45  TRP45       0.0006
     16  CD1       -4.0950   -1.0320    5.5270 C.ar   45  TRP45       0.0946
     17  CD2       -3.9470   -1.1610    7.7670 C.ar   45  TRP45       0.0152
     18  NE1       -2.9050   -0.4420    5.9240 N.ar   45  TRP45      -0.2442
     19  CE2       -2.7940   -0.5170    7.2810 C.ar   45  TRP45       0.0810
     20  CE3       -4.0960   -1.3340    9.1520 C.ar   45  TRP45       0.0012
     21  CZ2       -1.7820   -0.0550    8.1230 C.ar   45  TRP45       0.0191
     22  CZ3       -3.0820   -0.8750    9.9940 C.ar   45  TRP45       0.0001
     23  CH2       -1.9400   -0.2600    9.4710 C.ar   45  TRP45       0.0015
     24  N         -0.0850   -4.5970   -3.2230 N.3   124  HIS124     -0.1226
     25  CA        -0.2990   -3.8600   -1.9850 C.3   124  HIS124      0.1752
     26  C          0.4690   -4.5490   -0.8500 C.2   124  HIS124      0.2596
     27  O          1.5410   -5.0860   -1.0920 O.2   124  HIS124     -0.2718
     28  CB        -1.7940   -3.7270   -1.7020 C.3   124  HIS124      0.0759
     29  CG        -2.0950   -2.6560   -0.7130 C.ar  124  HIS124      0.0818
     30  ND1       -2.5040   -2.9180    0.5790 N.ar  124  HIS124     -0.2268
     31  CD2       -1.9680   -1.3160   -0.8120 C.ar  124  HIS124      0.1154
     32  CE1       -2.6020   -1.7720    1.2360 C.ar  124  HIS124      0.1986
     33  NE2       -2.2980   -0.7870    0.4070 N.ar  124  HIS124     -0.2212
     34  N         -0.0460   -4.5270    0.3850 N.am  125  HIS125     -0.1975
     35  CA         0.6600   -5.1730    1.5050 C.3   125  HIS125      0.1656
     36  C          0.3220   -6.6690    1.6290 C.2   125  HIS125      0.2291
     37  O          0.8990   -7.3800    2.4500 O.2   125  HIS125     -0.2864
     38  CB         0.2860   -4.5710    2.8520 C.3   125  HIS125      0.0771
     39  CG         0.4230   -3.0850    2.9750 C.ar  125  HIS125      0.0820
     40  ND1        1.5020   -2.3580    2.5090 N.ar  125  HIS125     -0.2267
     41  CD2       -0.3780   -2.2060    3.6210 C.ar  125  HIS125      0.1154
     42  CE1        1.3340   -1.0830    2.8510 C.ar  125  HIS125      0.1986
     43  NE2        0.1990   -0.9700    3.5210 N.ar  125  HIS125     -0.2212
     44  N          5.3010    2.4820   -0.8940 N.3   224  ASP224     -0.1225
     45  CA         4.7310    2.7580    0.4160 C.3   224  ASP224      0.1805
     46  C          5.8170    2.6520    1.4940 C.2   224  ASP224      0.2597
     47  O          7.0090    2.4090    1.1840 O.2   224  ASP224     -0.2718
     48  CB         3.5440    1.8120    0.6760 C.3   224  ASP224      0.1424
     49  CG         2.4560    2.4470    1.5280 C.2   224  ASP224      0.3668
     50  OD1        2.7550    3.4300    2.2660 O.co2 224  ASP224     -0.2456
     51  OD2        1.2950    1.9890    1.4440 O.co2 224  ASP224     -0.2456
     52  N          5.3900    2.8820    2.7340 N.am  225  PHE225     -0.1976
     53  CA         6.2560    2.9550    3.9180 C.3   225  PHE225      0.1639
     54  C          6.8430    1.5870    4.2490 C.2   225  PHE225      0.2290
     55  O          6.6310    0.5840    3.5390 O.2   225  PHE225     -0.2864
     56  CB         5.4280    3.5240    5.0960 C.3   225  PHE225      0.0560
     57  CG         4.7080    2.4880    5.8890 C.ar  225  PHE225     -0.0200
     58  CD1        4.9540    2.3190    7.2380 C.ar  225  PHE225     -0.0042
     59  CD2        3.8090    1.6410    5.2680 C.ar  225  PHE225     -0.0042
     60  CE1        4.2780    1.3250    7.9490 C.ar  225  PHE225     -0.0003
     61  CE2        3.1470    0.6290    5.9780 C.ar  225  PHE225     -0.0003
     62  CZ         3.3840    0.4840    7.3180 C.ar  225  PHE225     -0.0000
     63  N          6.8490    2.6650   12.8640 N.3   232  GLU232     -0.1245
     64  CA         5.5940    2.8490   12.1440 C.3   232  GLU232      0.1567
     65  C          4.8250    1.5610   11.8940 C.2   232  GLU232      0.2260
     66  O          3.7840    1.5800   11.2380 O.2   232  GLU232     -0.2867
     67  CB         5.8540    3.5460   10.8040 C.3   232  GLU232      0.0388
     68  CG         6.4790    4.9120   10.9490 C.3   232  GLU232      0.1160
     69  CD         5.5300    5.9390   11.5460 C.2   232  GLU232      0.3649
     70  OE1        4.2960    5.7490   11.4580 O.co2 232  GLU232     -0.2457
     71  OE2        6.0330    6.9430   12.0860 O.co2 232  GLU232     -0.2457
     72  N          7.4290    7.4430    1.0010 N.3   270  LYS270     -0.1245
     73  CA         6.6680    8.2620    1.9390 C.3   270  LYS270      0.1561
     74  C          7.5620    9.2560    2.6910 C.2   270  LYS270      0.2260
     75  O          8.7080    8.9540    3.0860 O.2   270  LYS270     -0.2867
     76  CB         5.9050    7.3820    2.9190 C.3   270  LYS270      0.0271
     77  CG         4.7840    6.6290    2.2200 C.3   270  LYS270      0.0035
     78  CD         3.6920    7.5950    1.7710 C.3   270  LYS270      0.0206
     79  CE         2.5480    6.9380    1.0070 C.3   270  LYS270      0.1093
     80  NZ         1.7400    5.9750    1.8340 N.3   270  LYS270     -0.1314
     81  N          7.9640   10.7660    5.4600 N.3   272  HIS272     -0.1241
     82  CA         8.5220   10.4900    6.7900 C.3   272  HIS272      0.1621
     83  C          9.4500    9.2590    6.8470 C.2   272  HIS272      0.2264
     84  O         10.2100    9.1010    7.8080 O.2   272  HIS272     -0.2867
     85  CB         7.3840   10.2930    7.7790 C.3   272  HIS272      0.0745
     86  CG         6.5100    9.1230    7.4450 C.ar  272  HIS272      0.0817
     87  ND1        6.8270    7.8290    7.8040 N.ar  272  HIS272     -0.2268
     88  CD2        5.3500    9.0470    6.7480 C.ar  272  HIS272      0.1154
     89  CE1        5.8850    7.0100    7.3650 C.ar  272  HIS272      0.1986
     90  NE2        4.9760    7.7240    6.7260 N.ar  272  HIS272     -0.2212
     91  N          1.1680   11.6480    2.3720 N.3   286  GLU286     -0.1245
     92  CA        -0.0350   10.8250    2.3070 C.3   286  GLU286      0.1567
     93  C         -1.2360   11.5390    2.8720 C.2   286  GLU286      0.2260
     94  O         -1.1840   12.0140    4.0060 O.2   286  GLU286     -0.2867
     95  CB         0.2060    9.5270    3.0880 C.3   286  GLU286      0.0388
     96  CG        -0.9880    8.5810    3.1670 C.3   286  GLU286      0.1160
     97  CD        -0.6800    7.3080    3.9430 C.2   286  GLU286      0.3649
     98  OE1        0.5100    6.9930    4.1830 O.co2 286  GLU286     -0.2457
     99  OE2       -1.6440    6.6250    4.3320 O.co2 286  GLU286     -0.2457
    100  N         -8.8240    3.4690    0.9090 N.3   309  TRP309     -0.1241
    101  CA        -8.2830    3.5810   -0.4510 C.3   309  TRP309      0.1605
    102  C         -9.0030    2.6210   -1.3860 C.2   309  TRP309      0.2264
    103  O         -8.9210    2.7490   -2.6220 O.2   309  TRP309     -0.2867
    104  CB        -6.7780    3.2880   -0.4420 C.3   309  TRP309      0.0550
    105  CG        -6.0150    4.2310    0.4380 C.ar  309  TRP309      0.0003
    106  CD1       -5.9000    4.1730    1.8010 C.ar  309  TRP309      0.0946
    107  CD2       -5.3000    5.4120    0.0270 C.ar  309  TRP309      0.0152
    108  NE1       -5.1360    5.2270    2.2580 N.ar  309  TRP309     -0.2442
    109  CE2       -4.7580    6.0000    1.1890 C.ar  309  TRP309      0.0810
    110  CE3       -5.0360    6.0060   -1.2100 C.ar  309  TRP309      0.0012
    111  CZ2       -3.9910    7.1500    1.1500 C.ar  309  TRP309      0.0191
    112  CZ3       -4.2830    7.1710   -1.2410 C.ar  309  TRP309      0.0001
    113  CH2       -3.7750    7.7300   -0.0770 C.ar  309  TRP309      0.0015
    114  N         -2.1450   13.1190    6.5320 N.3   392  PHE392     -0.1241
    115  CA        -3.3910   12.8490    7.2520 C.3   392  PHE392      0.1605
    116  C         -4.0700   14.1230    7.7180 C.2   392  PHE392      0.2264
    117  O         -4.4720   14.2480    8.8960 O.2   392  PHE392     -0.2867
    118  CB        -3.1380   11.8950    8.4400 C.3   392  PHE392      0.0534
    119  CG        -2.4220   10.6550    8.0360 C.ar  392  PHE392     -0.0203
    120  CD1       -1.0660   10.4990    8.3050 C.ar  392  PHE392     -0.0042
    121  CD2       -3.0790    9.6750    7.3270 C.ar  392  PHE392     -0.0042
    122  CE1       -0.3870    9.3620    7.8920 C.ar  392  PHE392     -0.0003
    123  CE2       -2.4020    8.5090    6.9380 C.ar  392  PHE392     -0.0003
    124  CZ        -1.0540    8.3700    7.2210 C.ar  392  PHE392     -0.0000
@<TRIPOS>BOND
     1    24    25    1
     2   103   102    2
     3    25    28    1
     4    25    26    1
     5    28    29    1
     6   102   101    1
     7   112   110   ar
     8   112   113   ar
     9   110   107   ar
    10    27    26    2
    11    44    45    1
    12    26    34   am
    13    31    29   ar
    14    31    33   ar
    15    29    30   ar
    16   101   104    1
    17   101   100    1
    18   104   105    1
    19   113   111   ar
    20   107   105   ar
    21   107   109   ar
    22    34    35    1
    23    33    32   ar
    24    45    48    1
    25    45    46    1
    26   105   106   ar
    27    30    32   ar
    28    48    49    1
    29    72    73    1
    30    79    78    1
    31    79    80    1
    32   111   109   ar
    33     5     6    1
    34     5     2    1
    35    47    46    2
    36   109   108   ar
    37    51    49   ar
    38    46    52   am
    39    35    36    1
    40    35    38    1
    41    49    50   ar
    42    36    37    2
    43    78    77    1
    44   106   108   ar
    45     6     7    1
    46    73    74    1
    47    73    76    1
    48     2     1    1
    49     2     3    1
    50    77    76    1
    51    92    91    1
    52    92    93    1
    53    92    95    1
    54     8     7   ar
    55    40    42   ar
    56    40    39   ar
    57     7     9   ar
    58    74    75    2
    59    52    53    1
    60     4     3    2
    61    42    43   ar
    62    38    39    1
    63    93    94    2
    64    39    41   ar
    65    95    96    1
    66     3    10   am
    67    96    97    1
    68    43    41   ar
    69    55    54    2
    70    53    54    1
    71    53    56    1
    72    97    98   ar
    73    97    99   ar
    74    10    11    1
    75    56    57    1
    76    59    57   ar
    77    59    61   ar
    78    11    12    1
    79    11    14    1
    80    81    82    1
    81    16    18   ar
    82    16    15   ar
    83    57    58   ar
    84    12    13    2
    85    18    19   ar
    86    61    62   ar
    87   114   115    1
    88    15    14    1
    89    15    17   ar
    90    90    88   ar
    91    90    89   ar
    92    88    86   ar
    93    82    83    1
    94    82    85    1
    95    83    84    2
    96   123   124   ar
    97   123   121   ar
    98   124   122   ar
    99    58    60   ar
   100   115   116    1
   101   115   118    1
   102    19    17   ar
   103    19    21   ar
   104    62    60   ar
   105   121   119   ar
   106    89    87   ar
   107    86    85    1
   108    86    87   ar
   109   116   117    2
   110    17    20   ar
   111   122   120   ar
   112   119   120   ar
   113   119   118    1
   114    21    23   ar
   115    20    22   ar
   116    23    22   ar
   117    67    68    1
   118    67    64    1
   119    68    69    1
   120    66    65    2
   121    70    69   ar
   122    69    71   ar
   123    65    64    1
   124    64    63    1
