@<TRIPOS>MOLECULE
tmp/4ni8H00.pdb
 112 106 0 0 0
SMALL
GASTEIGER

@<TRIPOS>ATOM
      1  N         21.7880   76.7890  -50.7510 N.3     8  GLU8       -0.1245
      2  CA        21.9580   76.0790  -49.4800 C.3     8  GLU8        0.1567
      3  C         21.9780   77.0540  -48.3080 C.2     8  GLU8        0.2260
      4  O         22.9490   77.1300  -47.5640 O.2     8  GLU8       -0.2867
      5  CB        23.2260   75.2180  -49.4740 C.3     8  GLU8        0.0388
      6  CG        23.1810   74.0970  -48.4310 C.3     8  GLU8        0.1160
      7  CD        24.5170   73.4130  -48.2440 C.2     8  GLU8        0.3649
      8  OE1       24.9650   72.7210  -49.1860 O.co2   8  GLU8       -0.2457
      9  OE2       25.1110   73.5620  -47.1580 O.co2   8  GLU8       -0.2457
     10  N         27.8180   70.4930  -32.0930 N.3    35  LEU35      -0.1245
     11  CA        27.1760   71.6500  -32.7120 C.3    35  LEU35       0.1561
     12  C         25.9860   72.1760  -31.9010 C.2    35  LEU35       0.2260
     13  O         25.8660   73.3830  -31.6680 O.2    35  LEU35      -0.2867
     14  CB        26.6920   71.2810  -34.1120 C.3    35  LEU35       0.0270
     15  CG        25.6780   72.2900  -34.6500 C.3    35  LEU35       0.0019
     16  CD1       26.4020   73.4570  -35.3130 C.3    35  LEU35       0.0001
     17  CD2       24.6810   71.6120  -35.5770 C.3    35  LEU35       0.0001
     18  N         29.2110   79.7280  -29.7860 N.3    46  ARG46      -0.1245
     19  CA        28.8790   80.4820  -30.9920 C.3    46  ARG46       0.1563
     20  C         27.5610   81.2250  -30.7610 C.2    46  ARG46       0.2260
     21  O         26.5440   80.9160  -31.3800 O.2    46  ARG46      -0.2867
     22  CB        28.7860   79.5290  -32.1980 C.3    46  ARG46       0.0307
     23  CG        30.0410   78.6510  -32.3810 C.3    46  ARG46       0.0489
     24  CD        29.8560   77.5080  -33.3840 C.3    46  ARG46       0.2205
     25  NE        29.8960   77.9810  -34.7650 N.pl3  46  ARG46      -0.0865
     26  CZ        29.8250   77.1920  -35.8350 C.cat  46  ARG46       0.5346
     27  NH1       29.7060   75.8740  -35.6980 N.pl3  46  ARG46       0.1354
     28  NH2       29.8770   77.7240  -37.0470 N.pl3  46  ARG46       0.1354
     29  N         17.8730   74.6740  -40.8610 N.3    77  THR77      -0.1203
     30  CA        19.2680   74.3300  -40.6060 C.3    77  THR77       0.1994
     31  C         19.4230   72.9280  -40.0040 C.2    77  THR77       0.2617
     32  O         18.5520   72.4500  -39.2800 O.2    77  THR77      -0.2717
     33  CB        19.9430   75.4050  -39.6960 C.3    77  THR77       0.1784
     34  OG1       21.3620   75.1990  -39.6600 O.3    77  THR77      -0.2211
     35  CG2       19.3770   75.3760  -38.2710 C.3    77  THR77       0.0376
     36  N         20.5220   72.2610  -40.3360 N.am   78  ALA78      -0.1979
     37  CA        20.8570   70.9920  -39.7030 C.3    78  ALA78       0.1597
     38  C         20.9730   71.2320  -38.2030 C.2    78  ALA78       0.2287
     39  O         21.4610   72.2840  -37.7820 O.2    78  ALA78      -0.2864
     40  CB        22.1700   70.4340  -40.2850 C.3    78  ALA78       0.0319
     41  N         21.4160   67.4620  -47.0900 N.3   174  HIS174     -0.1241
     42  CA        22.4020   68.2890  -46.4080 C.3   174  HIS174      0.1621
     43  C         23.1650   67.4420  -45.3880 C.2   174  HIS174      0.2264
     44  O         22.6540   66.4240  -44.9280 O.2   174  HIS174     -0.2867
     45  CB        21.6350   69.3970  -45.6730 C.3   174  HIS174      0.0745
     46  CG        22.5060   70.4570  -45.0800 C.ar  174  HIS174      0.0817
     47  ND1       23.0730   70.3370  -43.8290 N.ar  174  HIS174     -0.2268
     48  CD2       22.9090   71.6570  -45.5640 C.ar  174  HIS174      0.1154
     49  CE1       23.7920   71.4140  -43.5690 C.ar  174  HIS174      0.1986
     50  NE2       23.7040   72.2340  -44.6020 N.ar  174  HIS174     -0.2212
     51  N         32.6660   68.1070  -37.8040 N.3   193  SER193     -0.1202
     52  CA        31.9470   69.1620  -38.5020 C.3   193  SER193      0.2020
     53  C         32.2720   69.2290  -39.9960 C.2   193  SER193      0.2618
     54  O         32.6430   68.2360  -40.6260 O.2   193  SER193     -0.2717
     55  CB        32.2590   70.5080  -37.8200 C.3   193  SER193      0.2103
     56  OG        31.4620   71.5670  -38.3220 O.3   193  SER193     -0.2182
     57  N         32.1260   70.4260  -40.5440 N.am  194  ALA194     -0.1979
     58  CA        32.2840   70.6750  -41.9710 C.3   194  ALA194      0.1597
     59  C         33.6800   70.3440  -42.5070 C.2   194  ALA194      0.2287
     60  O         33.8350   70.0190  -43.6880 O.2   194  ALA194     -0.2864
     61  CB        31.9130   72.1210  -42.2900 C.3   194  ALA194      0.0319
     62  N         31.2830   65.9690  -42.0310 N.3   198  TYR198     -0.1241
     63  CA        30.0800   66.2580  -42.8090 C.3   198  TYR198      0.1605
     64  C         30.1370   65.5880  -44.1840 C.2   198  TYR198      0.2264
     65  O         29.1730   64.9630  -44.6330 O.2   198  TYR198     -0.2867
     66  CB        29.8960   67.7690  -42.9710 C.3   198  TYR198      0.0534
     67  CG        29.2250   68.4490  -41.7920 C.ar  198  TYR198     -0.0201
     68  CD1       28.9930   67.7600  -40.6020 C.ar  198  TYR198     -0.0009
     69  CD2       28.8220   69.7770  -41.8730 C.ar  198  TYR198     -0.0009
     70  CE1       28.3760   68.3880  -39.5160 C.ar  198  TYR198      0.0417
     71  CE2       28.1960   70.4160  -40.7960 C.ar  198  TYR198      0.0417
     72  CZ        27.9760   69.7110  -39.6280 C.ar  198  TYR198      0.1957
     73  OH        27.3610   70.3330  -38.5660 O.3   198  TYR198     -0.2866
     74  N         28.4560   71.0780  -51.2930 N.3   227  HIS227     -0.1241
     75  CA        29.8950   70.8800  -51.0990 C.3   227  HIS227      0.1621
     76  C         30.5390   70.1510  -52.2640 C.2   227  HIS227      0.2264
     77  O         31.3050   69.1900  -52.1020 O.2   227  HIS227     -0.2867
     78  CB        30.1300   70.2500  -49.7270 C.3   227  HIS227      0.0745
     79  CG        29.2700   70.8730  -48.6770 C.ar  227  HIS227      0.0817
     80  ND1       28.1840   70.2300  -48.1230 N.ar  227  HIS227     -0.2268
     81  CD2       29.2660   72.1300  -48.1700 C.ar  227  HIS227      0.1154
     82  CE1       27.5820   71.0480  -47.2770 C.ar  227  HIS227      0.1986
     83  NE2       28.2170   72.2060  -47.2890 N.ar  227  HIS227     -0.2212
     84  N         25.8820   78.8770  -48.5540 N.3   297  ASP297     -0.1239
     85  CA        25.9570   78.2380  -47.2330 C.3   297  ASP297      0.1674
     86  C         25.9270   79.3120  -46.1350 C.2   297  ASP297      0.2266
     87  O         26.5740   79.1740  -45.0920 O.2   297  ASP297     -0.2867
     88  CB        27.1920   77.3230  -47.0940 C.3   297  ASP297      0.1410
     89  CG        26.8860   76.0080  -46.4160 C.2   297  ASP297      0.3668
     90  OD1       25.8760   75.9260  -45.6740 O.co2 297  ASP297     -0.2456
     91  OD2       27.6750   75.0530  -46.6340 O.co2 297  ASP297     -0.2456
     92  N         26.7310   80.2010  -42.3820 N.3   300  TYR300     -0.1227
     93  CA        27.9570   79.5130  -41.9830 C.3   300  TYR300      0.1736
     94  C         29.1420   79.9410  -42.8480 C.2   300  TYR300      0.2595
     95  O         30.2980   79.7380  -42.4720 O.2   300  TYR300     -0.2718
     96  CB        27.7600   77.9940  -42.0320 C.3   300  TYR300      0.0548
     97  CG        26.6280   77.5250  -41.1460 C.ar  300  TYR300     -0.0200
     98  CD1       26.7940   77.4400  -39.7710 C.ar  300  TYR300     -0.0009
     99  CD2       25.3860   77.1940  -41.6830 C.ar  300  TYR300     -0.0009
    100  CE1       25.7580   77.0260  -38.9470 C.ar  300  TYR300      0.0417
    101  CE2       24.3440   76.7780  -40.8640 C.ar  300  TYR300      0.0417
    102  CZ        24.5420   76.7000  -39.4970 C.ar  300  TYR300      0.1957
    103  OH        23.5150   76.2890  -38.6760 O.3   300  TYR300     -0.2866
    104  N         28.8450   80.5140  -44.0140 N.am  301  GLN301     -0.1979
    105  CA        29.8600   81.1370  -44.8680 C.3   301  GLN301      0.1601
    106  C         29.3410   82.5200  -45.1930 C.2   301  GLN301      0.2287
    107  O         28.1230   82.7180  -45.2270 O.2   301  GLN301     -0.2864
    108  CB        30.0140   80.3920  -46.1960 C.3   301  GLN301      0.0394
    109  CG        30.3470   78.9210  -46.0900 C.3   301  GLN301      0.0908
    110  CD        31.7500   78.6020  -46.5450 C.2   301  GLN301      0.2608
    111  OE1       32.4580   79.4500  -47.1040 O.2   301  GLN301     -0.2717
    112  NE2       32.1590   77.3800  -46.3140 N.am  301  GLN301     -0.0878
@<TRIPOS>BOND
     1    76    77    2
     2    76    75    1
     3    74    75    1
     4    75    78    1
     5     1     2    1
     6    78    79    1
     7     2     5    1
     8     2     3    1
     9     5     6    1
    10     8     7   ar
    11    79    81   ar
    12    79    80   ar
    13    84    85    1
    14     6     7    1
    15     3     4    2
    16     7     9   ar
    17    81    83   ar
    18    80    82   ar
    19    83    82   ar
    20    85    88    1
    21    85    86    1
    22   111   110    2
    23    88    89    1
    24    41    42    1
    25    91    89   ar
    26   110   112   am
    27   110   109    1
    28    89    90   ar
    29    42    45    1
    30    42    43    1
    31   108   109    1
    32   108   105    1
    33    86    87    2
    34    45    46    1
    35    48    46   ar
    36    48    50   ar
    37    43    44    2
    38   107   106    2
    39   106   105    1
    40    46    47   ar
    41   105   104    1
    42    65    64    2
    43    50    49   ar
    44    64    63    1
    45   104    94   am
    46    47    49   ar
    47    60    59    2
    48    66    63    1
    49    66    67    1
    50    94    95    2
    51    94    93    1
    52    63    62    1
    53    59    58    1
    54    92    93    1
    55    61    58    1
    56    96    93    1
    57    96    97    1
    58    58    57    1
    59    69    67   ar
    60    69    71   ar
    61    67    68   ar
    62    99    97   ar
    63    99   101   ar
    64    97    98   ar
    65   101   102   ar
    66    29    30    1
    67    71    72   ar
    68    54    53    2
    69    30    31    1
    70    30    33    1
    71    68    70   ar
    72    57    53   am
    73    36    31   am
    74    36    37    1
    75    40    37    1
    76    31    32    2
    77    53    52    1
    78    98   100   ar
    79    37    38    1
    80    33    34    1
    81    33    35    1
    82    72    70   ar
    83    72    73    1
    84   102   100   ar
    85   102   103    1
    86    52    55    1
    87    52    51    1
    88    56    55    1
    89    38    39    2
    90    28    26    1
    91    26    27    1
    92    26    25    2
    93    17    15    1
    94    16    15    1
    95    25    24    1
    96    15    14    1
    97    14    11    1
    98    24    23    1
    99    11    10    1
   100    11    12    1
   101    23    22    1
   102    22    19    1
   103    12    13    2
   104    21    20    2
   105    19    20    1
   106    19    18    1
