@<TRIPOS>MOLECULE
tmp/4nidA00.pdb
 149 140 0 0 0
SMALL
GASTEIGER

@<TRIPOS>ATOM
      1  N        -25.0260   -6.0370   78.7160 N.3    50  MET50      -0.1245
      2  CA       -25.2300   -4.6900   78.1700 C.3    50  MET50       0.1570
      3  C        -26.5260   -4.0700   78.6920 C.2    50  MET50       0.2261
      4  O        -27.4750   -4.7830   79.0150 O.2    50  MET50      -0.2867
      5  CB       -25.2600   -4.7360   76.6490 C.3    50  MET50       0.0387
      6  CG       -23.8890   -5.0380   76.0610 C.3    50  MET50       0.0595
      7  SD       -24.0130   -5.2980   74.2860 S.3    50  MET50      -0.1393
      8  CE       -22.3390   -5.0250   73.7010 C.3    50  MET50       0.0692
      9  N        -24.3210    3.0540   75.1000 N.3   107  LEU107     -0.1245
     10  CA       -24.3000    1.6240   75.3710 C.3   107  LEU107      0.1561
     11  C        -23.4200    1.4060   76.6000 C.2   107  LEU107      0.2260
     12  O        -22.2810    1.8870   76.6370 O.2   107  LEU107     -0.2867
     13  CB       -23.7490    0.8760   74.1550 C.3   107  LEU107      0.0270
     14  CG       -23.4780   -0.6150   74.2580 C.3   107  LEU107      0.0019
     15  CD1      -24.7670   -1.3490   74.5980 C.3   107  LEU107      0.0001
     16  CD2      -22.9060   -1.1270   72.9390 C.3   107  LEU107      0.0001
     17  N        -21.5320   -1.3450   78.9210 N.3   109  ASN109     -0.1240
     18  CA       -20.9960   -2.7050   78.8190 C.3   109  ASN109      0.1653
     19  C        -20.4310   -3.1130   80.1670 C.2   109  ASN109      0.2266
     20  O        -19.7070   -2.3350   80.7850 O.2   109  ASN109     -0.2867
     21  CB       -19.8890   -2.7780   77.7370 C.3   109  ASN109      0.1155
     22  CG       -20.3890   -2.4450   76.3360 C.2   109  ASN109      0.2627
     23  OD1      -19.8480   -1.5590   75.6660 O.2   109  ASN109     -0.2716
     24  ND2      -21.4000   -3.1540   75.8850 N.am  109  ASN109     -0.0877
     25  N        -18.1590   -6.1210   81.9000 N.3   111  TYR111     -0.1241
     26  CA       -17.2720   -7.2610   81.6650 C.3   111  TYR111      0.1605
     27  C        -16.9470   -7.9550   82.9730 C.2   111  TYR111      0.2264
     28  O        -16.2990   -7.3680   83.8430 O.2   111  TYR111     -0.2867
     29  CB       -15.9410   -6.7920   81.0520 C.3   111  TYR111      0.0534
     30  CG       -16.0530   -6.1770   79.6770 C.ar  111  TYR111     -0.0201
     31  CD1      -16.4750   -4.8580   79.5130 C.ar  111  TYR111     -0.0009
     32  CD2      -15.6800   -6.9070   78.5460 C.ar  111  TYR111     -0.0009
     33  CE1      -16.5540   -4.2940   78.2390 C.ar  111  TYR111      0.0417
     34  CE2      -15.7590   -6.3500   77.2890 C.ar  111  TYR111      0.0417
     35  CZ       -16.2110   -5.0590   77.1500 C.ar  111  TYR111      0.1957
     36  OH       -16.2820   -4.5600   75.8720 O.3   111  TYR111     -0.2866
     37  N        -15.0220   -8.8550   73.7080 N.3   117  LEU117     -0.1245
     38  CA       -15.8120   -8.3440   72.5970 C.3   117  LEU117      0.1561
     39  C        -14.9390   -8.4820   71.3630 C.2   117  LEU117      0.2260
     40  O        -13.9390   -7.7730   71.2050 O.2   117  LEU117     -0.2867
     41  CB       -16.2450   -6.8930   72.8840 C.3   117  LEU117      0.0270
     42  CG       -17.3590   -6.2800   72.0460 C.3   117  LEU117      0.0019
     43  CD1      -18.6230   -7.1350   72.0280 C.3   117  LEU117      0.0001
     44  CD2      -17.6930   -4.8660   72.5320 C.3   117  LEU117      0.0001
     45  N        -14.7310   -5.8800   65.7650 N.3   120  HIS120     -0.1241
     46  CA       -15.9240   -5.4660   65.0680 C.3   120  HIS120      0.1621
     47  C        -15.7620   -4.0080   64.6650 C.2   120  HIS120      0.2264
     48  O        -14.8190   -3.3290   65.0800 O.2   120  HIS120     -0.2867
     49  CB       -17.1940   -5.6570   65.9330 C.3   120  HIS120      0.0745
     50  CG       -17.2490   -4.7520   67.1180 C.ar  120  HIS120      0.0817
     51  ND1      -16.6190   -5.0660   68.2990 N.ar  120  HIS120     -0.2268
     52  CD2      -17.8250   -3.5360   67.3010 C.ar  120  HIS120      0.1154
     53  CE1      -16.8100   -4.0860   69.1680 C.ar  120  HIS120      0.1986
     54  NE2      -17.5430   -3.1500   68.5970 N.ar  120  HIS120     -0.2212
     55  N        -18.0590   -0.3300   64.4980 N.3   122  ASP122     -0.1239
     56  CA       -19.2970    0.3800   64.7940 C.3   122  ASP122      0.1674
     57  C        -19.7410    1.0180   63.4710 C.2   122  ASP122      0.2266
     58  O        -19.2570    2.0740   63.0710 O.2   122  ASP122     -0.2867
     59  CB       -19.0800    1.4360   65.9050 C.3   122  ASP122      0.1410
     60  CG       -19.0060    0.8470   67.3130 C.2   122  ASP122      0.3668
     61  OD1      -18.4740   -0.2630   67.5080 O.co2 122  ASP122     -0.2456
     62  OD2      -19.4940    1.5380   68.2450 O.co2 122  ASP122     -0.2456
     63  N        -15.5870    6.5200   74.1180 N.3   134  SER134     -0.1217
     64  CA       -15.5900    5.2370   74.8120 C.3   134  SER134      0.1889
     65  C        -14.8620    5.3970   76.1650 C.2   134  SER134      0.2288
     66  O        -13.6610    5.6650   76.1890 O.2   134  SER134     -0.2866
     67  CB       -14.9130    4.1810   73.9030 C.3   134  SER134      0.2089
     68  OG       -15.0890    2.8560   74.3840 O.3   134  SER134     -0.2183
     69  N         -7.4140   -3.4250   74.7960 N.3   143  PHE143     -0.1241
     70  CA        -8.2150   -2.9060   73.7030 C.3   143  PHE143      0.1605
     71  C         -7.4360   -3.1200   72.4260 C.2   143  PHE143      0.2264
     72  O         -6.2490   -2.8000   72.3620 O.2   143  PHE143     -0.2867
     73  CB        -8.4090   -1.4070   73.9180 C.3   143  PHE143      0.0534
     74  CG        -9.2470   -0.7080   72.8740 C.ar  143  PHE143     -0.0203
     75  CD1      -10.5820   -1.0600   72.6550 C.ar  143  PHE143     -0.0042
     76  CD2       -8.7180    0.3750   72.1820 C.ar  143  PHE143     -0.0042
     77  CE1      -11.3490   -0.3830   71.7110 C.ar  143  PHE143     -0.0003
     78  CE2       -9.4890    1.0710   71.2550 C.ar  143  PHE143     -0.0003
     79  CZ       -10.8020    0.6850   71.0260 C.ar  143  PHE143     -0.0000
     80  N         -6.3220   -0.4110   78.6470 N.3   159  LEU159     -0.1245
     81  CA        -7.2070    0.6830   79.0300 C.3   159  LEU159      0.1561
     82  C         -7.4710    0.5190   80.5120 C.2   159  LEU159      0.2260
     83  O         -7.9260   -0.5540   80.9500 O.2   159  LEU159     -0.2867
     84  CB        -8.5270    0.6310   78.2650 C.3   159  LEU159      0.0270
     85  CG        -8.4190    0.8430   76.7540 C.3   159  LEU159      0.0019
     86  CD1       -9.7930    0.8490   76.0940 C.3   159  LEU159      0.0001
     87  CD2       -7.6590    2.1200   76.3860 C.3   159  LEU159      0.0001
     88  N        -12.6960    7.9120   68.6990 N.3   167  TRP167     -0.1241
     89  CA       -12.3540    7.7890   67.2820 C.3   167  TRP167      0.1605
     90  C        -13.4360    8.3370   66.3740 C.2   167  TRP167      0.2264
     91  O        -14.6060    8.4110   66.7630 O.2   167  TRP167     -0.2867
     92  CB       -11.8800    6.3750   66.9100 C.3   167  TRP167      0.0550
     93  CG       -12.8390    5.2230   67.0780 C.ar  167  TRP167      0.0003
     94  CD1      -13.5210    4.5740   66.0780 C.ar  167  TRP167      0.0946
     95  CD2      -13.1500    4.5170   68.2930 C.ar  167  TRP167      0.0152
     96  NE1      -14.2460    3.5300   66.6010 N.ar  167  TRP167     -0.2442
     97  CE2      -14.0500    3.4830   67.9610 C.ar  167  TRP167      0.0810
     98  CE3      -12.7710    4.6800   69.6360 C.ar  167  TRP167      0.0012
     99  CZ2      -14.5660    2.5910   68.9240 C.ar  167  TRP167      0.0191
    100  CZ3      -13.2840    3.7990   70.5910 C.ar  167  TRP167      0.0001
    101  CH2      -14.1780    2.7730   70.2320 C.ar  167  TRP167      0.0015
    102  N        -12.1480   -2.8140   66.0250 N.3   176  HIS176     -0.1226
    103  CA       -11.6490   -2.7430   67.3730 C.3   176  HIS176      0.1752
    104  C        -12.3260   -3.8160   68.2200 C.2   176  HIS176      0.2597
    105  O        -13.3200   -4.4250   67.8030 O.2   176  HIS176     -0.2718
    106  CB       -11.9180   -1.3510   67.9420 C.3   176  HIS176      0.0759
    107  CG       -13.3630   -1.0020   67.9430 C.ar  176  HIS176      0.0818
    108  ND1      -14.0170   -0.5510   66.8170 N.ar  176  HIS176     -0.2268
    109  CD2      -14.3090   -1.1320   68.9020 C.ar  176  HIS176      0.1154
    110  CE1      -15.2980   -0.3830   67.0940 C.ar  176  HIS176      0.1986
    111  NE2      -15.4980   -0.7190   68.3520 N.ar  176  HIS176     -0.2212
    112  N        -11.8130   -4.0190   69.4320 N.am  177  GLY177     -0.1942
    113  CA       -12.2950   -5.1010   70.2850 C.3   177  GLY177      0.2014
    114  C        -11.6390   -5.0870   71.6470 C.2   177  GLY177      0.2638
    115  O        -10.7280   -4.2850   71.9160 O.2   177  GLY177     -0.2714
    116  N        -12.1210   -5.9890   72.4950 N.am  178  ILE178     -0.1977
    117  CA       -11.6080   -6.1550   73.8540 C.3   178  ILE178      0.1596
    118  C        -11.2390   -7.6200   74.0800 C.2   178  ILE178      0.2287
    119  O        -12.0470   -8.5250   73.8330 O.2   178  ILE178     -0.2864
    120  CB       -12.6570   -5.6920   74.8890 C.3   178  ILE178      0.0276
    121  CG1      -12.8470   -4.1530   74.8590 C.3   178  ILE178      0.0022
    122  CG2      -12.2820   -6.1730   76.2910 C.3   178  ILE178      0.0022
    123  CD1      -11.7330   -3.3330   75.4890 C.3   178  ILE178      0.0001
    124  N        -15.2950   -4.7200   84.8250 N.3   193  ARG193     -0.1245
    125  CA       -15.0070   -3.5200   84.0620 C.3   193  ARG193      0.1563
    126  C        -16.3230   -3.0370   83.4990 C.2   193  ARG193      0.2260
    127  O        -17.1550   -3.8440   83.0650 O.2   193  ARG193     -0.2867
    128  CB       -14.0360   -3.8390   82.9220 C.3   193  ARG193      0.0307
    129  CG       -13.9050   -2.7230   81.8950 C.3   193  ARG193      0.0489
    130  CD       -12.7660   -3.0220   80.9420 C.3   193  ARG193      0.2205
    131  NE       -12.5030   -1.8780   80.0670 N.pl3 193  ARG193     -0.0865
    132  CZ       -13.0540   -1.6790   78.8790 C.cat 193  ARG193      0.5346
    133  NH1      -13.8890   -2.5730   78.3370 N.pl3 193  ARG193      0.1354
    134  NH2      -12.7450   -0.5770   78.2230 N.pl3 193  ARG193      0.1354
    135  N        -17.8220   -0.2230   80.5310 N.3   195  ASN195     -0.1240
    136  CA       -17.4790    0.7030   79.4690 C.3   195  ASN195      0.1653
    137  C        -18.7160    1.4830   79.0420 C.2   195  ASN195      0.2266
    138  O        -19.7800    0.9170   78.9480 O.2   195  ASN195     -0.2867
    139  CB       -16.8910   -0.0660   78.2960 C.3   195  ASN195      0.1155
    140  CG       -16.4730    0.8400   77.1770 C.2   195  ASN195      0.2627
    141  OD1      -17.2420    1.0690   76.2550 O.2   195  ASN195     -0.2716
    142  ND2      -15.2790    1.3990   77.2800 N.am  195  ASN195     -0.0877
    143  N        -20.1700    3.6480   75.8960 N.3   197  THR197     -0.1218
    144  CA       -19.9510    3.9750   74.4830 C.3   197  THR197      0.1862
    145  C        -21.0110    4.9490   74.0470 C.2   197  THR197      0.2287
    146  O        -22.1960    4.5950   73.9810 O.2   197  THR197     -0.2866
    147  CB       -19.9960    2.6930   73.6600 C.3   197  THR197      0.1770
    148  OG1      -18.8520    1.9130   74.0100 O.3   197  THR197     -0.2211
    149  CG2      -19.9410    3.0050   72.1710 C.3   197  THR197      0.0375
@<TRIPOS>BOND
     1    58    57    2
     2    57    56    1
     3    55    56    1
     4    47    46    1
     5    47    48    2
     6    56    59    1
     7    46    45    1
     8    46    49    1
     9    59    60    1
    10    49    50    1
    11   102   103    1
    12    94    96   ar
    13    94    93   ar
    14    90    91    2
    15    90    89    1
    16    96    97   ar
    17   108   110   ar
    18   108   107   ar
    19    92    93    1
    20    92    89    1
    21    93    95   ar
    22   110   111   ar
    23    50    52   ar
    24    50    51   ar
    25    89    88    1
    26    52    54   ar
    27    60    61   ar
    28    60    62   ar
    29   103   106    1
    30   103   104    1
    31   105   104    2
    32   106   107    1
    33   107   109   ar
    34    97    95   ar
    35    97    99   ar
    36   104   112   am
    37    95    98   ar
    38    51    53   ar
    39   111   109   ar
    40    54    53   ar
    41    99   101   ar
    42   112   113    1
    43    98   100   ar
    44   101   100   ar
    45   113   114    1
    46    79    78   ar
    47    79    77   ar
    48    40    39    2
    49    78    76   ar
    50    39    38    1
    51   114   115    2
    52   114   116   am
    53    77    75   ar
    54    43    42    1
    55    42    44    1
    56    42    41    1
    57   149   147    1
    58    76    74   ar
    59    72    71    2
    60    71    70    1
    61   116   117    1
    62    38    41    1
    63    38    37    1
    64    75    74   ar
    65    74    73    1
    66    16    14    1
    67   147   148    1
    68   147   144    1
    69     8     7    1
    70    70    73    1
    71    70    69    1
    72   119   118    2
    73   117   118    1
    74   117   120    1
    75    67    68    1
    76    67    64    1
    77   146   145    2
    78   145   144    1
    79    63    64    1
    80    13    14    1
    81    13    10    1
    82    14    15    1
    83     7     6    1
    84   144   143    1
    85    64    65    1
    86   121   120    1
    87   121   123    1
    88   120   122    1
    89     9    10    1
    90    10    11    1
    91    23    22    2
    92    36    35    1
    93    24    22   am
    94     6     5    1
    95    86    85    1
    96    65    66    2
    97   141   140    2
    98    22    21    1
    99    87    85    1
   100    11    12    2
   101     5     2    1
   102    85    84    1
   103    35    34   ar
   104    35    33   ar
   105   140   142   am
   106   140   139    1
   107    34    32   ar
   108    21    18    1
   109     2     3    1
   110     2     1    1
   111   134   132    1
   112    33    31   ar
   113    84    81    1
   114   139   136    1
   115   133   132    1
   116    32    30   ar
   117    80    81    1
   118     3     4    2
   119    18    17    1
   120    18    19    1
   121   132   131    2
   122   138   137    2
   123    81    82    1
   124   137   136    1
   125   136   135    1
   126    31    30   ar
   127    30    29    1
   128   131   130    1
   129    19    20    2
   130    82    83    2
   131   130   129    1
   132    29    26    1
   133    26    25    1
   134    26    27    1
   135   129   128    1
   136   128   125    1
   137    27    28    2
   138   127   126    2
   139   126   125    1
   140   125   124    1
