@<TRIPOS>MOLECULE
tmp/4nj3A00.pdb
 221 209 0 0 0
SMALL
GASTEIGER

@<TRIPOS>ATOM
      1  N         -1.1340   23.8310    3.5990 N.3    10  ILE10      -0.1231
      2  CA        -0.0430   24.0320    4.5480 C.3    10  ILE10       0.1692
      3  C         -0.4340   23.7180    5.9910 C.2    10  ILE10       0.2592
      4  O          0.4050   23.7630    6.8880 O.2    10  ILE10      -0.2718
      5  CB         0.5310   25.4550    4.4780 C.3    10  ILE10       0.0266
      6  CG1       -0.5650   26.4930    4.7030 C.3    10  ILE10       0.0019
      7  CG2        1.2600   25.6860    3.1410 C.3    10  ILE10       0.0020
      8  CD1       -0.0690   27.9300    4.6170 C.3    10  ILE10       0.0001
      9  N         -1.7040   23.4060    6.2180 N.am   11  GLY11      -0.1957
     10  CA        -2.1620   23.1040    7.5700 C.3    11  GLY11       0.1869
     11  C         -3.5000   22.3750    7.6190 C.2    11  GLY11       0.2309
     12  O         -4.2450   22.3460    6.6390 O.2    11  GLY11      -0.2863
     13  N         -9.4030   23.9570   13.4350 N.3    15  TYR15      -0.1241
     14  CA       -10.6260   24.5130   12.8690 C.3    15  TYR15       0.1605
     15  C        -10.9670   23.9140   11.5290 C.2    15  TYR15       0.2264
     16  O        -12.0310   23.3150   11.3540 O.2    15  TYR15      -0.2867
     17  CB       -10.5070   26.0280   12.7500 C.3    15  TYR15       0.0534
     18  CG       -10.5220   26.7280   14.0850 C.ar   15  TYR15      -0.0201
     19  CD1      -11.3580   26.2860   15.1060 C.ar   15  TYR15      -0.0009
     20  CD2       -9.6720   27.8020   14.3450 C.ar   15  TYR15      -0.0009
     21  CE1      -11.3730   26.9140   16.3380 C.ar   15  TYR15       0.0417
     22  CE2       -9.6810   28.4390   15.5740 C.ar   15  TYR15       0.0417
     23  CZ       -10.5340   27.9880   16.5690 C.ar   15  TYR15       0.1957
     24  OH       -10.5500   28.6090   17.7980 O.3    15  TYR15      -0.2866
     25  N         -5.7240   24.7920    6.0340 N.3    18  VAL18      -0.1245
     26  CA        -5.0190   26.0190    5.6910 C.3    18  VAL18       0.1561
     27  C         -4.2820   25.8500    4.3720 C.2    18  VAL18       0.2260
     28  O         -3.5400   24.8780    4.1760 O.2    18  VAL18      -0.2867
     29  CB        -4.0120   26.4510    6.7950 C.3    18  VAL18       0.0252
     30  CG1       -3.4370   27.8370    6.4860 C.3    18  VAL18       0.0019
     31  CG2       -4.6800   26.4610    8.1590 C.3    18  VAL18       0.0019
     32  N         -2.3300   33.2990    3.3560 N.3    31  ALA31      -0.1245
     33  CA        -2.6430   32.0410    4.0070 C.3    31  ALA31       0.1562
     34  C         -4.1480   32.0950    4.1760 C.2    31  ALA31       0.2260
     35  O         -4.6810   33.0140    4.7980 O.2    31  ALA31      -0.2867
     36  CB        -1.9600   31.9540    5.3820 C.3    31  ALA31       0.0290
     37  N         -7.4900   30.2570    5.5440 N.3    33  LYS33      -0.1245
     38  CA        -8.0420   29.2350    6.4290 C.3    33  LYS33       0.1561
     39  C         -9.5340   29.0880    6.1510 C.2    33  LYS33       0.2260
     40  O        -10.2710   30.0560    6.2090 O.2    33  LYS33      -0.2867
     41  CB        -7.8320   29.6230    7.8920 C.3    33  LYS33       0.0271
     42  CG        -8.4150   28.6130    8.8960 C.3    33  LYS33       0.0035
     43  CD        -7.6760   28.6520   10.2210 C.3    33  LYS33       0.0206
     44  CE        -8.1150   27.5050   11.1370 C.3    33  LYS33       0.1093
     45  NZ        -6.9820   26.9580   11.9510 N.3    33  LYS33      -0.1314
     46  N        -11.2690   42.3330   15.9320 N.3    49  LEU49      -0.1231
     47  CA        -9.8420   42.0110   16.0430 C.3    49  LEU49       0.1693
     48  C         -9.0660   42.2830   14.7550 C.2    49  LEU49       0.2591
     49  O         -7.8370   42.3870   14.7690 O.2    49  LEU49      -0.2718
     50  CB        -9.6590   40.5500   16.4710 C.3    49  LEU49       0.0284
     51  CG       -10.7980   39.9670   17.3000 C.3    49  LEU49       0.0019
     52  CD1      -11.3600   38.7140   16.6510 C.3    49  LEU49       0.0001
     53  CD2      -10.3510   39.6890   18.7220 C.3    49  LEU49       0.0001
     54  N         -9.7800   42.3900   13.6410 N.am   50  LYS50      -0.1980
     55  CA        -9.1440   42.6730   12.3600 C.3    50  LYS50       0.1596
     56  C         -8.4250   44.0270   12.3970 C.2    50  LYS50       0.2287
     57  O         -7.4680   44.2410   11.6640 O.2    50  LYS50      -0.2864
     58  CB       -10.1850   42.6680   11.2270 C.3    50  LYS50       0.0298
     59  CG        -9.6250   42.3090    9.8650 C.3    50  LYS50       0.0038
     60  CD       -10.5390   42.7680    8.7340 C.3    50  LYS50       0.0206
     61  CE       -12.0050   42.7020    9.1370 C.3    50  LYS50       0.1093
     62  NZ       -12.9050   42.5500    7.9540 N.3    50  LYS50      -0.1314
     63  N         -6.9070   45.2680   15.0130 N.3    52  LEU52      -0.1245
     64  CA        -5.7300   45.0840   15.8610 C.3    52  LEU52       0.1561
     65  C         -4.4620   44.8590   15.0280 C.2    52  LEU52       0.2260
     66  O         -4.2190   43.7540   14.5500 O.2    52  LEU52      -0.2867
     67  CB        -5.9650   43.8890   16.7930 C.3    52  LEU52       0.0270
     68  CG        -5.0730   43.7150   18.0170 C.3    52  LEU52       0.0019
     69  CD1       -5.5080   44.6620   19.1390 C.3    52  LEU52       0.0001
     70  CD2       -5.0970   42.2620   18.4910 C.3    52  LEU52       0.0001
     71  N          2.2740   40.6880   15.3940 N.3    57  ILE57      -0.1231
     72  CA         1.0520   39.9170   15.2770 C.3    57  ILE57       0.1692
     73  C          0.7500   39.7020   13.8040 C.2    57  ILE57       0.2591
     74  O          0.7440   40.6490   13.0260 O.2    57  ILE57      -0.2718
     75  CB        -0.1690   40.6220   15.9300 C.3    57  ILE57       0.0266
     76  CG1        0.0520   40.8310   17.4120 C.3    57  ILE57       0.0019
     77  CG2       -1.4260   39.7840   15.7290 C.3    57  ILE57       0.0020
     78  CD1       -1.1330   41.6110   18.0960 C.3    57  ILE57       0.0001
     79  N          0.5180   38.4520   13.4170 N.am   58  VAL58      -0.1980
     80  CA         0.2120   38.1200   12.0220 C.3    58  VAL58       0.1595
     81  C         -1.1010   38.8300   11.6420 C.2    58  VAL58       0.2287
     82  O         -2.1050   38.6790   12.3160 O.2    58  VAL58      -0.2864
     83  CB         0.0380   36.6050   11.8160 C.3    58  VAL58       0.0276
     84  CG1       -0.6730   36.3070   10.4560 C.3    58  VAL58       0.0022
     85  CG2        1.3850   35.8810   11.9140 C.3    58  VAL58       0.0022
     86  N         -4.6220   39.7630   10.1370 N.3    60  LEU60      -0.1245
     87  CA        -5.8220   39.0990    9.6210 C.3    60  LEU60       0.1561
     88  C         -6.3390   40.0570    8.5360 C.2    60  LEU60       0.2260
     89  O         -6.8250   41.1500    8.8350 O.2    60  LEU60      -0.2867
     90  CB        -6.8770   38.9270   10.7170 C.3    60  LEU60       0.0270
     91  CG        -8.2730   38.5260   10.2200 C.3    60  LEU60       0.0019
     92  CD1       -8.2030   37.3160    9.2700 C.3    60  LEU60       0.0001
     93  CD2       -9.1790   38.2240   11.3850 C.3    60  LEU60       0.0001
     94  N        -10.8480   32.8090    6.7290 N.3    72  LEU72      -0.1245
     95  CA       -10.0130   33.8620    7.3050 C.3    72  LEU72       0.1561
     96  C         -8.7750   33.9980    6.4230 C.2    72  LEU72       0.2260
     97  O         -8.1280   33.0060    6.1210 O.2    72  LEU72      -0.2867
     98  CB        -9.5930   33.5060    8.7520 C.3    72  LEU72       0.0270
     99  CG       -10.7500   33.2180    9.7180 C.3    72  LEU72       0.0019
    100  CD1      -10.2310   33.0160   11.1550 C.3    72  LEU72       0.0001
    101  CD2      -11.7280   34.3680    9.6750 C.3    72  LEU72       0.0001
    102  N         -5.0460   35.4930    6.0020 N.3    74  PHE74      -0.1227
    103  CA        -3.9280   36.0560    6.7620 C.3    74  PHE74       0.1736
    104  C         -2.7200   36.4430    5.9240 C.2    74  PHE74       0.2595
    105  O         -2.4830   35.8960    4.8570 O.2    74  PHE74      -0.2718
    106  CB        -3.4590   35.0510    7.8310 C.3    74  PHE74       0.0547
    107  CG        -4.5550   34.5390    8.7070 C.ar   74  PHE74      -0.0202
    108  CD1       -5.0170   35.2920    9.7670 C.ar   74  PHE74      -0.0042
    109  CD2       -5.0840   33.2770    8.5040 C.ar   74  PHE74      -0.0042
    110  CE1       -6.0140   34.8010   10.6060 C.ar   74  PHE74      -0.0003
    111  CE2       -6.0870   32.7950    9.3250 C.ar   74  PHE74      -0.0003
    112  CZ        -6.5370   33.5680   10.3870 C.ar   74  PHE74      -0.0000
    113  N         -1.8950   37.3150    6.4910 N.am   75  GLU75      -0.1965
    114  CA        -0.6200   37.6540    5.9130 C.3    75  GLU75       0.1733
    115  C          0.1880   36.3480    5.9330 C.2    75  GLU75       0.2616
    116  O          0.0750   35.5470    6.8810 O.2    75  GLU75      -0.2715
    117  CB         0.0530   38.7320    6.7830 C.3    75  GLU75       0.0429
    118  CG         1.4380   38.4070    7.2460 C.3    75  GLU75       0.1163
    119  CD         2.0170   39.4980    8.1350 C.2    75  GLU75       0.3649
    120  OE1        1.3820   39.8670    9.1480 O.co2  75  GLU75      -0.2457
    121  OE2        3.1210   39.9650    7.8350 O.co2  75  GLU75      -0.2457
    122  N          0.9140   36.0820    4.8560 N.am   76  PHE76      -0.1960
    123  CA         1.6660   34.8280    4.7220 C.3    76  PHE76       0.1771
    124  C          3.1250   34.9470    5.1900 C.2    76  PHE76       0.2619
    125  O          3.8080   35.8990    4.8420 O.2    76  PHE76      -0.2715
    126  CB         1.6160   34.3600    3.2460 C.3    76  PHE76       0.0574
    127  CG         2.3750   33.0920    2.9820 C.ar   76  PHE76      -0.0200
    128  CD1        1.8210   31.8560    3.2970 C.ar   76  PHE76      -0.0042
    129  CD2        3.6620   33.1310    2.4410 C.ar   76  PHE76      -0.0042
    130  CE1        2.5360   30.6920    3.1030 C.ar   76  PHE76      -0.0003
    131  CE2        4.3830   31.9590    2.2500 C.ar   76  PHE76      -0.0003
    132  CZ         3.8150   30.7400    2.5650 C.ar   76  PHE76      -0.0000
    133  N          3.5920   33.9620    5.9770 N.am   77  LEU77      -0.1977
    134  CA         5.0020   33.8850    6.3870 C.3    77  LEU77       0.1596
    135  C          5.4620   32.4600    6.0770 C.2    77  LEU77       0.2287
    136  O          4.7140   31.5140    6.2420 O.2    77  LEU77      -0.2864
    137  CB         5.2110   34.2470    7.8770 C.3    77  LEU77       0.0297
    138  CG         5.2380   35.7620    8.1420 C.3    77  LEU77       0.0022
    139  CD1        3.8220   36.2930    8.1960 C.3    77  LEU77       0.0001
    140  CD2        5.9750   36.0760    9.4520 C.3    77  LEU77       0.0001
    141  N          7.8350   28.7430   10.5860 N.3    80  ASP80      -0.1239
    142  CA         7.4210   28.9020   11.9800 C.3    80  ASP80       0.1674
    143  C          8.5740   28.5510   12.8720 C.2    80  ASP80       0.2266
    144  O          9.5620   27.9310   12.4320 O.2    80  ASP80      -0.2867
    145  CB         6.1850   28.0660   12.3160 C.3    80  ASP80       0.1410
    146  CG         6.4280   26.5790   12.1700 C.2    80  ASP80       0.3668
    147  OD1        7.2470   26.0280   12.9220 O.co2  80  ASP80      -0.2456
    148  OD2        5.7890   25.9620   11.3070 O.co2  80  ASP80      -0.2456
    149  N         -6.8710   41.2480   24.9660 N.3   117  VAL117     -0.1245
    150  CA        -6.9200   40.0860   24.1010 C.3   117  VAL117      0.1561
    151  C         -5.9230   39.0590   24.6260 C.2   117  VAL117      0.2260
    152  O         -4.7590   39.3920   24.8670 O.2   117  VAL117     -0.2867
    153  CB        -6.5670   40.4260   22.6520 C.3   117  VAL117      0.0252
    154  CG1       -6.2180   39.1550   21.8920 C.3   117  VAL117      0.0019
    155  CG2       -7.7410   41.1570   21.9740 C.3   117  VAL117      0.0019
    156  N          4.8120   26.1950   16.9950 N.3   125  GLN125     -0.1231
    157  CA         4.1430   25.9600   15.6890 C.3   125  GLN125      0.1698
    158  C          3.3830   27.1880   15.2570 C.2   125  GLN125      0.2592
    159  O          3.2250   27.4460   14.0610 O.2   125  GLN125     -0.2718
    160  CB         3.1250   24.8220   15.8040 C.3   125  GLN125      0.0381
    161  CG         3.6710   23.4360   15.6700 C.3   125  GLN125      0.0905
    162  CD         2.6270   22.3970   16.0480 C.2   125  GLN125      0.2608
    163  OE1        1.6580   22.1840   15.3120 O.2   125  GLN125     -0.2717
    164  NE2        2.7440   21.8580   17.2550 N.am  125  GLN125     -0.0878
    165  N          2.8400   27.9170   16.2300 N.am  126  ASN126     -0.1974
    166  CA         2.0810   29.1250   15.9120 C.3   126  ASN126      0.1688
    167  C          2.7960   30.4560   16.0710 C.2   126  ASN126      0.2292
    168  O          2.1690   31.4980   16.2550 O.2   126  ASN126     -0.2864
    169  CB         0.6110   29.1070   16.4200 C.3   126  ASN126      0.1181
    170  CG         0.4710   29.3020   17.9500 C.2   126  ASN126      0.2629
    171  OD1        1.2460   30.0400   18.5870 O.2   126  ASN126     -0.2716
    172  ND2       -0.6200   28.7440   18.5130 N.am  126  ASN126     -0.0877
    173  N          5.3650   32.6860   13.8470 N.3   128  LEU128     -0.1245
    174  CA         5.9130   32.7420   12.4900 C.3   128  LEU128      0.1561
    175  C          7.0760   33.6960   12.3630 C.2   128  LEU128      0.2260
    176  O          7.1100   34.7360   13.0190 O.2   128  LEU128     -0.2867
    177  CB         4.8010   33.0590   11.4790 C.3   128  LEU128      0.0270
    178  CG         3.5240   32.2210   11.6970 C.3   128  LEU128      0.0019
    179  CD1        2.5160   32.4950   10.5590 C.3   128  LEU128      0.0001
    180  CD2        3.9020   30.7310   11.7230 C.3   128  LEU128      0.0001
    181  N          0.6290   33.9580   15.9250 N.3   138  ALA138     -0.1231
    182  CA        -0.4540   33.4710   15.0370 C.3   138  ALA138      0.1694
    183  C         -1.4390   32.5290   15.7810 C.2   138  ALA138      0.2592
    184  O         -1.1710   32.0890   16.9070 O.2   138  ALA138     -0.2718
    185  CB         0.1230   32.7540   13.8170 C.3   138  ALA138      0.0304
    186  N         -2.5290   32.1710   15.0950 N.am  139  ASP139     -0.1960
    187  CA        -3.5670   31.2630   15.6270 C.3   139  ASP139      0.1840
    188  C         -4.0090   31.5440   17.0580 C.2   139  ASP139      0.2622
    189  O         -3.5910   30.8670   18.0100 O.2   139  ASP139     -0.2715
    190  CB        -3.1730   29.7980   15.4610 C.3   139  ASP139      0.1450
    191  CG        -4.3660   28.8540   15.6020 C.2   139  ASP139      0.3671
    192  OD1       -5.3840   29.2630   16.2040 O.co2 139  ASP139     -0.2456
    193  OD2       -4.2970   27.7200   15.0850 O.co2 139  ASP139     -0.2456
    194  N         -4.9000   32.5130   17.1940 N.am  140  PHE140     -0.1960
    195  CA        -5.4250   32.8970   18.4810 C.3   140  PHE140      0.1771
    196  C         -6.6790   32.0700   18.8470 C.2   140  PHE140      0.2620
    197  O         -7.3170   32.3240   19.8720 O.2   140  PHE140     -0.2715
    198  CB        -5.7780   34.3800   18.4750 C.3   140  PHE140      0.0574
    199  CG        -4.5840   35.2920   18.5570 C.ar  140  PHE140     -0.0200
    200  CD1       -4.4070   36.1210   19.6540 C.ar  140  PHE140     -0.0042
    201  CD2       -3.6670   35.3550   17.5160 C.ar  140  PHE140     -0.0042
    202  CE1       -3.3260   36.9740   19.7370 C.ar  140  PHE140     -0.0003
    203  CE2       -2.5770   36.2180   17.5870 C.ar  140  PHE140     -0.0003
    204  CZ        -2.4060   37.0240   18.7070 C.ar  140  PHE140     -0.0000
    205  N         -7.0400   31.1160   17.9940 N.am  141  GLY141     -0.1940
    206  CA        -8.2410   30.3030   18.2370 C.3   141  GLY141      0.2014
    207  C         -9.5160   31.1730   18.2260 C.2   141  GLY141      0.2639
    208  O        -10.4790   30.9060   18.9590 O.2   141  GLY141     -0.2714
    209  N         -9.5240   32.2010   17.3880 N.am  142  LEU142     -0.1963
    210  CA       -10.6710   33.0910   17.3010 C.3   142  LEU142      0.1728
    211  C        -12.0040   32.3580   17.0470 C.2   142  LEU142      0.2616
    212  O        -13.0350   32.7110   17.6280 O.2   142  LEU142     -0.2715
    213  CB       -10.4210   34.1670   16.2500 C.3   142  LEU142      0.0311
    214  CG        -9.1980   35.0210   16.5880 C.3   142  LEU142      0.0022
    215  CD1       -9.3150   36.4150   15.9830 C.3   142  LEU142      0.0001
    216  CD2       -9.0190   35.0910   18.1030 C.3   142  LEU142      0.0001
    217  N        -11.9720   31.3280   16.1990 N.am  143  ALA143     -0.1977
    218  CA       -13.1800   30.5640   15.8600 C.3   143  ALA143      0.1597
    219  C        -14.0110   30.1410   17.0780 C.2   143  ALA143      0.2287
    220  O        -15.2430   30.2100   17.0580 O.2   143  ALA143     -0.2864
    221  CB       -12.8200   29.3540   15.0110 C.3   143  ALA143      0.0319
@<TRIPOS>BOND
     1   131   129   ar
     2   131   132   ar
     3   129   127   ar
     4   132   130   ar
     5   127   126    1
     6   127   128   ar
     7   130   128   ar
     8     7     5    1
     9   126   123    1
    10    32    33    1
    11     1     2    1
    12    33    34    1
    13    33    36    1
    14    28    27    2
    15    34    35    2
    16    27    26    1
    17     5     2    1
    18     5     6    1
    19     2     3    1
    20     8     6    1
    21   123   122    1
    22   123   124    1
    23   125   124    2
    24   122   115   am
    25   105   104    2
    26   124   133   am
    27    37    38    1
    28    26    25    1
    29    26    29    1
    30   114   115    1
    31   114   113    1
    32   114   117    1
    33   104   113   am
    34   104   103    1
    35   115   116    2
    36   133   134    1
    37     3     9   am
    38     3     4    2
    39   102   103    1
    40   135   136    2
    41   135   134    1
    42    97    96    2
    43    39    40    2
    44    39    38    1
    45     9    10    1
    46   134   137    1
    47    96    95    1
    48    38    41    1
    49    30    29    1
    50    12    11    2
    51    94    95    1
    52   103   106    1
    53   117   118    1
    54    29    31    1
    55   118   119    1
    56    95    98    1
    57    10    11    1
    58   106   107    1
    59   121   119   ar
    60   137   138    1
    61    41    42    1
    62    62    61    1
    63   119   120   ar
    64   138   139    1
    65   138   140    1
    66   109   107   ar
    67   109   111   ar
    68    88    89    2
    69    88    87    1
    70   107   108   ar
    71    60    61    1
    72    60    59    1
    73    98    99    1
    74    42    43    1
    75    92    91    1
    76   111   112   ar
    77    87    86    1
    78    87    90    1
    79   101    99    1
    80    99   100    1
    81   108   110   ar
    82    59    58    1
    83    91    90    1
    84    91    93    1
    85    43    44    1
    86   112   110   ar
    87    84    83    1
    88   179   178    1
    89   141   142    1
    90    44    45    1
    91    58    55    1
    92   148   146   ar
    93    16    15    2
    94   177   178    1
    95   177   174    1
    96    15    14    1
    97    81    80    1
    98    81    82    2
    99    57    56    2
   100   178   180    1
   101    83    85    1
   102    83    80    1
   103   142   145    1
   104   142   143    1
   105    80    79    1
   106   146   145    1
   107   146   147   ar
   108    55    56    1
   109    55    54    1
   110   175   174    1
   111   175   176    2
   112   144   143    2
   113   174   173    1
   114    17    14    1
   115    17    18    1
   116    14    13    1
   117    74    73    2
   118    79    73   am
   119    54    48   am
   120    73    72    1
   121   185   182    1
   122   159   158    2
   123    18    20   ar
   124    18    19   ar
   125    20    22   ar
   126    66    65    2
   127    48    49    2
   128    48    47    1
   129   221   218    1
   130    63    64    1
   131    65    64    1
   132   182   183    1
   133   182   181    1
   134   193   191   ar
   135   186   187    1
   136   186   183   am
   137    19    21   ar
   138   158   157    1
   139   158   165   am
   140    72    71    1
   141    72    75    1
   142   163   162    2
   143   190   191    1
   144   190   187    1
   145    22    23   ar
   146   191   192   ar
   147   187   188    1
   148   161   160    1
   149   161   162    1
   150   157   160    1
   151   157   156    1
   152    77    75    1
   153   183   184    2
   154   218   217    1
   155   218   219    1
   156    64    67    1
   157   166   167    1
   158   166   165    1
   159   166   169    1
   160    75    76    1
   161    46    47    1
   162   215   214    1
   163    47    50    1
   164   162   164   am
   165   167   168    2
   166   217   211   am
   167   213   214    1
   168   213   210    1
   169    21    23   ar
   170   169   170    1
   171    50    51    1
   172    23    24    1
   173   214   216    1
   174    52    51    1
   175    67    68    1
   176   211   210    1
   177   211   212    2
   178   188   194   am
   179   188   189    2
   180   220   219    2
   181   194   195    1
   182    51    53    1
   183   210   209    1
   184   209   207   am
   185    76    78    1
   186   201   203   ar
   187   201   199   ar
   188   203   204   ar
   189   170   172   am
   190   170   171    2
   191   205   206    1
   192   205   196   am
   193    68    70    1
   194    68    69    1
   195   207   206    1
   196   207   208    2
   197   198   195    1
   198   198   199    1
   199   195   196    1
   200   199   200   ar
   201   204   202   ar
   202   196   197    2
   203   200   202   ar
   204   154   153    1
   205   155   153    1
   206   153   150    1
   207   150   151    1
   208   150   149    1
   209   151   152    2
