@<TRIPOS>MOLECULE
tmp/4njbA05.pdb
 105 103 0 0 0
SMALL
GASTEIGER

@<TRIPOS>ATOM
      1  N        -17.9520    2.3540   18.8850 N.3   105  GLN105     -0.1245
      2  CA       -18.8560    2.4450   20.0310 C.3   105  GLN105      0.1566
      3  C        -20.2280    1.9510   19.5800 C.2   105  GLN105      0.2260
      4  O        -20.9530    1.2900   20.3280 O.2   105  GLN105     -0.2867
      5  CB       -18.9430    3.8990   20.5400 C.3   105  GLN105      0.0367
      6  CG       -19.5990    4.0200   21.9240 C.3   105  GLN105      0.0905
      7  CD       -19.7440    5.4560   22.4070 C.2   105  GLN105      0.2608
      8  OE1      -19.7410    6.3880   21.6130 O.2   105  GLN105     -0.2717
      9  NE2      -19.9030    5.6330   23.7090 N.am  105  GLN105     -0.0878
     10  N        -22.3590   -1.2650   20.9460 N.3   109  HIS109     -0.1241
     11  CA       -23.6970   -1.1390   21.4860 C.3   109  HIS109      0.1621
     12  C        -24.7180   -1.9980   20.7860 C.2   109  HIS109      0.2264
     13  O        -25.7750   -2.3020   21.3420 O.2   109  HIS109     -0.2867
     14  CB       -24.1190    0.3210   21.4460 C.3   109  HIS109      0.0745
     15  CG       -23.4180    1.1650   22.4640 C.ar  109  HIS109      0.0817
     16  ND1      -23.7140    2.4970   22.6660 N.ar  109  HIS109     -0.2268
     17  CD2      -22.4630    0.8490   23.3690 C.ar  109  HIS109      0.1154
     18  CE1      -22.9740    2.9640   23.6550 C.ar  109  HIS109      0.1986
     19  NE2      -22.2060    1.9840   24.0990 N.ar  109  HIS109     -0.2212
     20  N        -24.4470   -5.2840   26.2860 N.3   113  PHE113     -0.1241
     21  CA       -24.8240   -4.3490   27.3270 C.3   113  PHE113      0.1605
     22  C        -25.1440   -5.1530   28.5810 C.2   113  PHE113      0.2264
     23  O        -26.0920   -5.9390   28.6110 O.2   113  PHE113     -0.2867
     24  CB       -26.0370   -3.5130   26.9030 C.3   113  PHE113      0.0534
     25  CG       -26.4470   -2.4770   27.9210 C.ar  113  PHE113     -0.0203
     26  CD1      -25.5010   -1.8970   28.7650 C.ar  113  PHE113     -0.0042
     27  CD2      -27.7720   -2.0550   28.0160 C.ar  113  PHE113     -0.0042
     28  CE1      -25.8650   -0.9150   29.6850 C.ar  113  PHE113     -0.0003
     29  CE2      -28.1450   -1.0710   28.9320 C.ar  113  PHE113     -0.0003
     30  CZ       -27.1880   -0.5010   29.7670 C.ar  113  PHE113     -0.0000
     31  N        -30.6560   12.7320   32.6940 N.3   235  PRO235     -0.2116
     32  CA       -29.3150   13.3030   32.8800 C.3   235  PRO235      0.1372
     33  C        -28.9980   14.4020   31.8630 C.2   235  PRO235      0.2244
     34  O        -28.2100   15.3060   32.1410 O.2   235  PRO235     -0.2868
     35  CB       -28.3930   12.0830   32.7600 C.3   235  PRO235      0.0268
     36  CG       -29.1470   11.1690   31.8530 C.3   235  PRO235      0.0207
     37  CD       -30.5760   11.3000   32.3500 C.3   235  PRO235      0.0892
     38  N        -30.2820    2.0090   24.9430 N.3   253  PHE253     -0.1227
     39  CA       -30.3590    2.8230   26.1480 C.3   253  PHE253      0.1736
     40  C        -29.2630    3.8790   26.4230 C.2   253  PHE253      0.2595
     41  O        -29.5080    4.8500   27.1450 O.2   253  PHE253     -0.2718
     42  CB       -30.4550    1.8360   27.3060 C.3   253  PHE253      0.0547
     43  CG       -30.2810    2.4400   28.6530 C.ar  253  PHE253     -0.0202
     44  CD1      -31.2910    3.1970   29.2280 C.ar  253  PHE253     -0.0042
     45  CD2      -29.1380    2.1680   29.3890 C.ar  253  PHE253     -0.0042
     46  CE1      -31.1640    3.6630   30.5310 C.ar  253  PHE253     -0.0003
     47  CE2      -29.0010    2.6220   30.6790 C.ar  253  PHE253     -0.0003
     48  CZ       -30.0190    3.3720   31.2570 C.ar  253  PHE253     -0.0000
     49  N        -28.0730    3.6950   25.8540 N.am  254  ARG254     -0.1980
     50  CA       -26.9550    4.6160   26.0730 C.3   254  ARG254      0.1597
     51  C        -26.7390    5.6600   24.9730 C.2   254  ARG254      0.2287
     52  O        -25.7520    6.3920   24.9970 O.2   254  ARG254     -0.2864
     53  CB       -25.6580    3.8070   26.2330 C.3   254  ARG254      0.0334
     54  CG       -25.7550    2.6180   27.1800 C.3   254  ARG254      0.0492
     55  CD       -24.8270    1.4660   26.7530 C.3   254  ARG254      0.2205
     56  NE       -25.3690    0.6380   25.6700 N.pl3 254  ARG254     -0.0865
     57  CZ       -24.8550   -0.5270   25.2760 C.cat 254  ARG254      0.5346
     58  NH1      -23.7750   -1.0130   25.8670 N.pl3 254  ARG254      0.1354
     59  NH2      -25.4410   -1.2210   24.3080 N.pl3 254  ARG254      0.1354
     60  N        -25.1430    9.1480   25.6690 N.3   257  GLU257     -0.1245
     61  CA       -23.9820    9.2180   26.5130 C.3   257  GLU257      0.1567
     62  C        -22.9980   10.3100   26.1170 C.2   257  GLU257      0.2260
     63  O        -22.3460   10.9290   26.9600 O.2   257  GLU257     -0.2867
     64  CB       -23.3000    7.8900   26.5080 C.3   257  GLU257      0.0388
     65  CG       -22.2960    7.8920   27.5580 C.3   257  GLU257      0.1160
     66  CD       -20.9030    7.9190   27.0110 C.2   257  GLU257      0.3649
     67  OE1      -20.0030    7.9850   27.8420 O.co2 257  GLU257     -0.2457
     68  OE2      -20.6890    7.8720   25.7840 O.co2 257  GLU257     -0.2457
     69  N        -11.8290    2.9140   24.2820 N.3   350  HIS350     -0.1241
     70  CA       -11.6540    3.9450   25.2940 C.3   350  HIS350      0.1621
     71  C        -10.3090    4.6800   25.1940 C.2   350  HIS350      0.2264
     72  O        -10.1750    5.8080   25.6690 O.2   350  HIS350     -0.2867
     73  CB       -11.8720    3.3190   26.6770 C.3   350  HIS350      0.0745
     74  CG       -13.2930    2.9060   26.9060 C.ar  350  HIS350      0.0817
     75  ND1      -13.6990    2.1490   27.9830 N.ar  350  HIS350     -0.2268
     76  CD2      -14.4110    3.1820   26.1980 C.ar  350  HIS350      0.1154
     77  CE1      -15.0080    1.9820   27.9280 C.ar  350  HIS350      0.1986
     78  NE2      -15.4630    2.6000   26.8550 N.ar  350  HIS350     -0.2212
     79  N        -23.9030   13.2600   27.8170 N.3   380  PHE380     -0.1241
     80  CA       -25.3360   13.4880   27.9950 C.3   380  PHE380      0.1605
     81  C        -25.7740   14.8740   27.5860 C.2   380  PHE380      0.2264
     82  O        -26.6420   15.4790   28.2200 O.2   380  PHE380     -0.2867
     83  CB       -25.6930   13.2340   29.4510 C.3   380  PHE380      0.0534
     84  CG       -25.4260   11.8360   29.8640 C.ar  380  PHE380     -0.0203
     85  CD1      -26.3040   10.8240   29.5100 C.ar  380  PHE380     -0.0042
     86  CD2      -24.2470   11.5090   30.5130 C.ar  380  PHE380     -0.0042
     87  CE1      -26.0080    9.5090   29.7920 C.ar  380  PHE380     -0.0003
     88  CE2      -23.9420   10.1930   30.7990 C.ar  380  PHE380     -0.0003
     89  CZ       -24.8220    9.1930   30.4380 C.ar  380  PHE380     -0.0000
     90  N        -21.8550   10.2880   35.3080 N.3   422  GLN422     -0.1231
     91  CA       -22.6850    9.0950   35.3290 C.3   422  GLN422      0.1683
     92  C        -24.0730    9.4480   35.8560 C.2   422  GLN422      0.2434
     93  O        -24.1980   10.0740   36.9070 O.2   422  GLN422     -0.2733
     94  CB       -22.0390    8.0260   36.2210 C.3   422  GLN422      0.0380
     95  CG       -20.6830    7.5420   35.7170 C.3   422  GLN422      0.0905
     96  CD       -20.6770    6.0540   35.3880 C.2   422  GLN422      0.2608
     97  OE1      -20.3270    5.2180   36.2260 O.2   422  GLN422     -0.2717
     98  NE2      -21.0820    5.7190   34.1670 N.am  422  GLN422     -0.0878
     99  N        -25.1320    9.0640   35.1250 N.am  423  PRO423     -0.2729
    100  CA       -26.5000    9.3600   35.5650 C.3   423  PRO423      0.1401
    101  C        -26.7160    9.0500   37.0480 C.2   423  PRO423      0.2269
    102  O        -26.1550    8.0900   37.5730 O.2   423  PRO423     -0.2865
    103  CB       -27.3430    8.4740   34.6530 C.3   423  PRO423      0.0296
    104  CG       -26.5810    8.5440   33.3660 C.3   423  PRO423      0.0237
    105  CD       -25.1420    8.3470   33.8370 C.3   423  PRO423      0.0939
@<TRIPOS>BOND
     1     1     2    1
     2     3     2    1
     3     3     4    2
     4     2     5    1
     5     5     6    1
     6    12    13    2
     7    12    11    1
     8    10    11    1
     9    14    11    1
    10    14    15    1
    11     8     7    2
    12     6     7    1
    13     7     9   am
    14    15    16   ar
    15    15    17   ar
    16    16    18   ar
    17    17    19   ar
    18    18    19   ar
    19    69    70    1
    20    59    57    1
    21    38    39    1
    22    51    52    2
    23    51    50    1
    24    71    70    1
    25    71    72    2
    26    57    56    2
    27    57    58    1
    28    70    73    1
    29    60    61    1
    30    56    55    1
    31    68    66   ar
    32    49    50    1
    33    49    40   am
    34    50    53    1
    35    62    61    1
    36    62    63    2
    37    39    40    1
    38    39    42    1
    39    76    78   ar
    40    76    74   ar
    41    53    54    1
    42    20    21    1
    43    40    41    2
    44    64    61    1
    45    64    65    1
    46    73    74    1
    47    55    54    1
    48    78    77   ar
    49    24    21    1
    50    24    25    1
    51    74    75   ar
    52    66    65    1
    53    66    67   ar
    54    42    43    1
    55    21    22    1
    56    81    80    1
    57    81    82    2
    58    79    80    1
    59    25    27   ar
    60    25    26   ar
    61    77    75   ar
    62    80    83    1
    63    27    29   ar
    64    22    23    2
    65    43    44   ar
    66    43    45   ar
    67    26    28   ar
    68    29    30   ar
    69    44    46   ar
    70    45    47   ar
    71    83    84    1
    72    85    87   ar
    73    85    84   ar
    74    28    30   ar
    75    87    89   ar
    76    84    86   ar
    77    89    88   ar
    78    86    88   ar
    79    46    48   ar
    80    47    48   ar
    81    36    37    1
    82    36    35    1
    83    33    34    2
    84    33    32    1
    85    37    31    1
    86    31    32    1
    87    35    32    1
    88   104   105    1
    89   104   103    1
    90   105    99    1
    91    98    96   am
    92   103   100    1
    93    99   100    1
    94    99    92   am
    95    90    91    1
    96    91    92    1
    97    91    94    1
    98    96    95    1
    99    96    97    2
   100   100   101    1
   101    95    94    1
   102    92    93    2
   103   101   102    2
