@<TRIPOS>MOLECULE
tmp/4njdA00.pdb
 145 136 0 0 0
SMALL
GASTEIGER

@<TRIPOS>ATOM
      1  N        -14.8320   -7.8730   16.2640 N.3    29  ILE29      -0.1231
      2  CA       -15.7680   -8.2410   15.1850 C.3    29  ILE29       0.1692
      3  C        -15.5740   -7.5060   13.8670 C.2    29  ILE29       0.2593
      4  O        -16.0340   -7.9310   12.8330 O.2    29  ILE29      -0.2718
      5  CB       -17.2510   -8.0770   15.5940 C.3    29  ILE29       0.0266
      6  CG1      -17.5230   -6.6640   16.1610 C.3    29  ILE29       0.0019
      7  CG2      -17.6740   -9.1950   16.5730 C.3    29  ILE29       0.0020
      8  CD1      -18.9540   -6.4560   16.3830 C.3    29  ILE29       0.0001
      9  N        -14.8930   -6.3860   13.9030 N.am   30  GLY30      -0.1942
     10  CA       -14.8290   -5.5400   12.7340 C.3    30  GLY30       0.2014
     11  C        -13.6790   -4.5860   12.8840 C.2    30  GLY30       0.2639
     12  O        -13.2150   -4.3260   13.9980 O.2    30  GLY30      -0.2714
     13  N        -13.2070   -4.1080   11.7410 N.am   31  GLU31      -0.1963
     14  CA       -12.2370   -3.0300   11.6400 C.3    31  GLU31       0.1733
     15  C        -12.7710   -1.9660   10.7120 C.2    31  GLU31       0.2616
     16  O        -13.4650   -2.2800    9.7350 O.2    31  GLU31      -0.2715
     17  CB       -10.9650   -3.5390   11.0340 C.3    31  GLU31       0.0429
     18  CG        -9.9540   -3.8610   12.0440 C.3    31  GLU31       0.1163
     19  CD        -8.5970   -3.3410   11.6660 C.2    31  GLU31       0.3649
     20  OE1       -7.7140   -4.1720   11.3340 O.co2  31  GLU31      -0.2457
     21  OE2       -8.4350   -2.0970   11.6920 O.co2  31  GLU31      -0.2457
     22  N        -12.4470   -0.7090   11.0370 N.am   32  GLY32      -0.1955
     23  CA       -12.7840    0.4600   10.2070 C.3    32  GLY32       0.1869
     24  C        -11.6640    1.5000   10.1400 C.2    32  GLY32       0.2309
     25  O        -10.6080    1.3770   10.8060 O.2    32  GLY32      -0.2863
     26  N        -10.8670    2.8710   13.5300 N.3    35  GLY35      -0.1225
     27  CA       -10.4220    1.8370   14.4910 C.3    35  GLY35       0.1811
     28  C        -11.2490    0.5410   14.5200 C.2    35  GLY35       0.2280
     29  O        -12.0370    0.2570   13.6140 O.2    35  GLY35      -0.2866
     30  N        -13.8130   -2.6880   16.2060 N.3    37  VAL37      -0.1245
     31  CA       -15.0380   -2.9270   16.9830 C.3    37  VAL37       0.1561
     32  C        -15.0080   -4.3220   17.6550 C.2    37  VAL37       0.2260
     33  O        -14.6430   -5.3260   17.0400 O.2    37  VAL37      -0.2867
     34  CB       -16.2870   -2.7930   16.1100 C.3    37  VAL37       0.0252
     35  CG1      -17.5570   -2.9580   16.9200 C.3    37  VAL37       0.0019
     36  CG2      -16.2980   -1.4580   15.4140 C.3    37  VAL37       0.0019
     37  N        -21.4180   -3.7970   22.3760 N.3    50  ALA50      -0.1245
     38  CA       -20.3870   -3.6800   21.3560 C.3    50  ALA50       0.1562
     39  C        -19.5960   -2.4690   21.7170 C.2    50  ALA50       0.2260
     40  O        -20.1590   -1.4690   22.1170 O.2    50  ALA50      -0.2867
     41  CB       -20.9760   -3.5470   19.9660 C.3    50  ALA50       0.0290
     42  N        -16.7110    0.1600   20.2850 N.3    52  LYS52      -0.1245
     43  CA       -15.8800    0.7690   19.2180 C.3    52  LYS52       0.1561
     44  C        -14.6580    1.3920   19.8400 C.2    52  LYS52       0.2260
     45  O        -14.8160    2.2520   20.7120 O.2    52  LYS52      -0.2867
     46  CB       -16.6250    1.9470   18.6030 C.3    52  LYS52       0.0271
     47  CG       -17.5520    1.6550   17.4370 C.3    52  LYS52       0.0035
     48  CD       -18.4880    2.8590   17.1060 C.3    52  LYS52       0.0206
     49  CE       -17.7290    4.0890   16.5370 C.3    52  LYS52       0.1093
     50  NZ       -18.6950    5.0480   15.9490 N.3    52  LYS52      -0.1314
     51  N        -29.2180    2.0080   16.6240 N.3    81  VAL81      -0.1245
     52  CA       -28.3960    1.2570   17.5460 C.3    81  VAL81       0.1561
     53  C        -28.1020    2.1920   18.7250 C.2    81  VAL81       0.2260
     54  O        -27.5410    3.2950   18.5740 O.2    81  VAL81      -0.2867
     55  CB       -27.1480    0.7690   16.8880 C.3    81  VAL81       0.0252
     56  CG1      -26.1400    0.3210   17.9580 C.3    81  VAL81       0.0019
     57  CG2      -27.5150   -0.3730   16.0130 C.3    81  VAL81       0.0019
     58  N        -22.0820    0.2900   23.0460 N.3    97  MET97      -0.1230
     59  CA       -23.2940    0.2890   22.2660 C.3    97  MET97       0.1702
     60  C        -24.0530   -1.0150   22.3940 C.2    97  MET97       0.2592
     61  O        -23.5080   -2.0440   22.8030 O.2    97  MET97      -0.2718
     62  CB       -22.9510    0.5090   20.7700 C.3    97  MET97       0.0401
     63  CG       -22.5380    1.9850   20.3820 C.3    97  MET97       0.0596
     64  SD       -21.8370    1.9400   18.7000 S.3    97  MET97      -0.1393
     65  CE       -20.4320    0.8680   18.9210 C.3    97  MET97       0.0692
     66  N        -25.3150   -0.9550   21.9900 N.am   98  GLU98      -0.1966
     67  CA       -26.1630   -2.1120   21.8170 C.3    98  GLU98       0.1733
     68  C        -25.4580   -3.1020   20.8690 C.2    98  GLU98       0.2616
     69  O        -24.8940   -2.6810   19.8510 O.2    98  GLU98      -0.2715
     70  CB       -27.4530   -1.5950   21.1560 C.3    98  GLU98       0.0429
     71  CG       -28.6680   -2.4740   21.2700 C.3    98  GLU98       0.1163
     72  CD       -29.8620   -1.8980   20.5540 C.2    98  GLU98       0.3649
     73  OE1      -29.8490   -0.6990   20.1870 O.co2  98  GLU98      -0.2457
     74  OE2      -30.8140   -2.6590   20.3270 O.co2  98  GLU98      -0.2457
     75  N        -25.4490   -4.3880   21.2330 N.am   99  PHE99      -0.1960
     76  CA       -25.0130   -5.4750   20.3670 C.3    99  PHE99       0.1771
     77  C        -26.1720   -5.8980   19.4650 C.2    99  PHE99       0.2619
     78  O        -27.2780   -6.1890   19.9660 O.2    99  PHE99      -0.2715
     79  CB       -24.6040   -6.7070   21.1920 C.3    99  PHE99       0.0574
     80  CG       -24.0780   -7.8660   20.3560 C.ar   99  PHE99      -0.0200
     81  CD1      -23.2750   -7.6380   19.2110 C.ar   99  PHE99      -0.0042
     82  CD2      -24.3960   -9.1740   20.6860 C.ar   99  PHE99      -0.0042
     83  CE1      -22.8180   -8.7030   18.4390 C.ar   99  PHE99      -0.0003
     84  CE2      -23.9030  -10.2570   19.9460 C.ar   99  PHE99      -0.0003
     85  CZ       -23.1350  -10.0230   18.8160 C.ar   99  PHE99      -0.0000
     86  N        -25.9240   -5.9000   18.1480 N.am  100  LEU100     -0.1963
     87  CA       -26.8830   -6.4400   17.1910 C.3   100  LEU100      0.1728
     88  C        -26.3900   -7.7180   16.5550 C.2   100  LEU100      0.2616
     89  O        -25.6180   -7.6970   15.6050 O.2   100  LEU100     -0.2715
     90  CB       -27.2970   -5.4130   16.1340 C.3   100  LEU100      0.0311
     91  CG       -28.5430   -4.7270   16.7150 C.3   100  LEU100      0.0022
     92  CD1      -28.1400   -3.4470   17.3980 C.3   100  LEU100      0.0001
     93  CD2      -29.5970   -4.4700   15.6680 C.3   100  LEU100      0.0001
     94  N        -26.8900   -8.8170   17.1110 N.am  101  GLU101     -0.1963
     95  CA       -26.4850  -10.2020   16.8760 C.3   101  GLU101      0.1733
     96  C        -26.5750  -10.7120   15.4750 C.2   101  GLU101      0.2617
     97  O        -26.0050  -11.7650   15.2150 O.2   101  GLU101     -0.2715
     98  CB       -27.3850  -11.1100   17.7200 C.3   101  GLU101      0.0429
     99  CG       -28.0840  -10.3150   18.8140 C.3   101  GLU101      0.1163
    100  CD       -29.5360   -9.9800   18.5390 C.2   101  GLU101      0.3649
    101  OE1      -30.3060  -10.7630   17.9140 O.co2 101  GLU101     -0.2457
    102  OE2      -29.9190   -8.9060   19.0040 O.co2 101  GLU101     -0.2457
    103  N        -27.3200  -10.0440   14.5870 N.am  102  GLY102     -0.1940
    104  CA       -27.5180  -10.5360   13.2370 C.3   102  GLY102      0.2014
    105  C        -26.4830  -10.1380   12.1820 C.2   102  GLY102      0.2639
    106  O        -26.5700  -10.5580   11.0240 O.2   102  GLY102     -0.2714
    107  N        -25.5120   -9.3150   12.5450 N.am  103  GLY103     -0.1939
    108  CA       -24.5870   -8.7590   11.5410 C.3   103  GLY103      0.2014
    109  C        -25.1710   -7.6330   10.6990 C.2   103  GLY103      0.2638
    110  O        -26.3230   -7.2510   10.8260 O.2   103  GLY103     -0.2714
    111  N        -24.3520   -7.1280    9.8010 N.am  104  ALA104     -0.1977
    112  CA       -24.6950   -6.0320    8.9450 C.3   104  ALA104      0.1597
    113  C        -25.4100   -6.5000    7.6670 C.2   104  ALA104      0.2287
    114  O        -25.3290   -7.6940    7.2990 O.2   104  ALA104     -0.2864
    115  CB       -23.4120   -5.2410    8.5970 C.3   104  ALA104      0.0319
    116  N        -23.3260   -1.3150    5.2500 N.3   146  ASP146     -0.1239
    117  CA       -22.5330   -1.5800    6.5040 C.3   146  ASP146      0.1674
    118  C        -23.2080   -1.0260    7.7860 C.2   146  ASP146      0.2266
    119  O        -23.1360   -1.6470    8.8210 O.2   146  ASP146     -0.2867
    120  CB       -21.0910   -1.0640    6.4160 C.3   146  ASP146      0.1410
    121  CG       -20.3850   -1.5540    5.1960 C.2   146  ASP146      0.3668
    122  OD1      -21.0530   -1.6770    4.1400 O.co2 146  ASP146     -0.2456
    123  OD2      -19.1590   -1.8170    5.2740 O.co2 146  ASP146     -0.2456
    124  N        -27.6780   -2.8700   10.6620 N.3   149  LEU149     -0.1245
    125  CA       -27.4390   -4.0350   11.4420 C.3   149  LEU149      0.1561
    126  C        -28.7700   -4.6970   11.7650 C.2   149  LEU149      0.2260
    127  O        -29.8100   -4.0340   11.7730 O.2   149  LEU149     -0.2867
    128  CB       -26.7600   -3.6150   12.7230 C.3   149  LEU149      0.0270
    129  CG       -25.4270   -2.9130   12.6060 C.3   149  LEU149      0.0019
    130  CD1      -24.8780   -2.9610   13.9980 C.3   149  LEU149      0.0001
    131  CD2      -24.4810   -3.6100   11.6590 C.3   149  LEU149      0.0001
    132  N        -27.0110    2.1110   12.3440 N.3   159  SER159     -0.1202
    133  CA       -25.8150    2.1940   13.1690 C.3   159  SER159      0.2020
    134  C        -24.7490    3.0630   12.5140 C.2   159  SER159      0.2618
    135  O        -25.0390    3.7440   11.4800 O.2   159  SER159     -0.2717
    136  CB       -25.3210    0.7680   13.3670 C.3   159  SER159      0.2103
    137  OG       -23.9380    0.7260   13.5830 O.3   159  SER159     -0.2182
    138  N        -23.5440    3.0500   13.0960 N.am  160  ASP160     -0.1973
    139  CA       -22.3390    3.7260   12.5760 C.3   160  ASP160      0.1709
    140  C        -22.4590    5.2340   12.4190 C.2   160  ASP160      0.2293
    141  O        -22.3960    5.7770   11.2890 O.2   160  ASP160     -0.2864
    142  CB       -21.9010    3.1350   11.2520 C.3   160  ASP160      0.1436
    143  CG       -21.1480    1.8300   11.4060 C.2   160  ASP160      0.3671
    144  OD1      -21.0620    1.3240   12.5230 O.co2 160  ASP160     -0.2456
    145  OD2      -20.6190    1.3050   10.3960 O.co2 160  ASP160     -0.2456
@<TRIPOS>BOND
     1   122   121   ar
     2   121   123   ar
     3   121   120    1
     4   116   117    1
     5   120   117    1
     6   117   118    1
     7   114   113    2
     8   113   112    1
     9   118   119    2
    10   115   112    1
    11   112   111    1
    12    16    15    2
    13   111   109   am
    14    24    23    1
    15    24    25    2
    16    23    22    1
    17   145   143   ar
    18   124   125    1
    19   109   110    2
    20   109   108    1
    21    15    22   am
    22    15    14    1
    23   106   105    2
    24    17    14    1
    25    17    18    1
    26   142   143    1
    27   142   139    1
    28   141   140    2
    29    20    19   ar
    30   143   144   ar
    31   125   126    1
    32   125   128    1
    33   135   134    2
    34   108   107    1
    35    14    13    1
    36   131   129    1
    37    19    21   ar
    38    19    18    1
    39    13    11   am
    40   126   127    2
    41   105   107   am
    42   105   104    1
    43   132   133    1
    44   140   139    1
    45   134   138   am
    46   134   133    1
    47   139   138    1
    48   129   128    1
    49   129   130    1
    50    10    11    1
    51    10     9    1
    52     4     3    2
    53    11    12    2
    54   133   136    1
    55   104   103    1
    56   136   137    1
    57    26    27    1
    58    29    28    2
    59     3     9   am
    60     3     2    1
    61    27    28    1
    62   103    96   am
    63     2     5    1
    64     2     1    1
    65    97    96    2
    66    36    34    1
    67    96    95    1
    68     5     6    1
    69     5     7    1
    70    89    88    2
    71    93    91    1
    72    50    49    1
    73    57    55    1
    74    34    35    1
    75    34    31    1
    76    90    91    1
    77    90    87    1
    78     6     8    1
    79    30    31    1
    80    49    48    1
    81    88    94   am
    82    88    87    1
    83    51    52    1
    84    91    92    1
    85    95    94    1
    86    95    98    1
    87    55    52    1
    88    55    56    1
    89    31    32    1
    90    33    32    2
    91    48    47    1
    92    87    86    1
    93    47    46    1
    94    52    53    1
    95    98    99    1
    96   101   100   ar
    97    86    77   am
    98    83    85   ar
    99    83    81   ar
   100   100    99    1
   101   100   102   ar
   102    54    53    2
   103    46    43    1
   104    64    65    1
   105    64    63    1
   106    85    84   ar
   107    81    80   ar
   108    43    44    1
   109    43    42    1
   110    77    78    2
   111    77    76    1
   112    44    45    2
   113    69    68    2
   114    84    82   ar
   115    41    38    1
   116    73    72   ar
   117    74    72   ar
   118    80    82   ar
   119    80    79    1
   120    76    79    1
   121    76    75    1
   122    63    62    1
   123    72    71    1
   124    62    59    1
   125    68    75   am
   126    68    67    1
   127    70    71    1
   128    70    67    1
   129    38    39    1
   130    38    37    1
   131    39    40    2
   132    67    66    1
   133    66    60   am
   134    59    60    1
   135    59    58    1
   136    60    61    2
