@<TRIPOS>MOLECULE
tmp/4njeA00.pdb
 77 73 0 0 0
SMALL
GASTEIGER

@<TRIPOS>ATOM
      1  N         53.1150   26.4460  181.5070 N.3    10  GLY10      -0.1210
      2  CA        53.9500   26.5160  182.6890 C.3    10  GLY10       0.1956
      3  C         55.3690   26.9880  182.4370 C.2    10  GLY10       0.2612
      4  O         55.7610   27.2450  181.3090 O.2    10  GLY10      -0.2717
      5  N         56.1370   27.0850  183.5170 N.am   11  THR11      -0.1952
      6  CA        57.5050   27.5820  183.4860 C.3    11  THR11       0.1897
      7  C         58.3550   26.7710  182.5160 C.2    11  THR11       0.2313
      8  O         59.2320   27.3280  181.8460 O.2    11  THR11      -0.2863
      9  CB        58.1230   27.6110  184.9230 C.3    11  THR11       0.1794
     10  OG1       57.5110   28.6640  185.6830 O.3    11  THR11      -0.2208
     11  CG2       59.6190   27.8390  184.8960 C.3    11  THR11       0.0378
     12  N         50.0560   29.8510  182.6500 N.3    51  ASP51      -0.1225
     13  CA        50.6650   29.6550  183.9530 C.3    51  ASP51       0.1805
     14  C         49.6840   28.8280  184.7680 C.2    51  ASP51       0.2598
     15  O         48.4880   29.1090  184.7720 O.2    51  ASP51      -0.2718
     16  CB        50.9190   31.0010  184.6260 C.3    51  ASP51       0.1424
     17  CG        51.5390   30.8590  185.9960 C.2    51  ASP51       0.3668
     18  OD1       50.8300   30.4530  186.9350 O.co2  51  ASP51      -0.2456
     19  OD2       52.7370   31.1560  186.1360 O.co2  51  ASP51      -0.2456
     20  N         50.1740   27.7980  185.4440 N.am   52  SER52      -0.1952
     21  CA        49.2610   26.8470  186.0890 C.3    52  SER52       0.1924
     22  C         48.3920   27.4880  187.1790 C.2    52  SER52       0.2314
     23  O         47.4050   26.9040  187.6060 O.2    52  SER52      -0.2863
     24  CB        49.9900   25.5870  186.5890 C.3    52  SER52       0.2116
     25  OG        50.7250   25.8110  187.7790 O.3    52  SER52      -0.2180
     26  N         53.1650   20.8040  182.5200 N.3    81  HIS81      -0.1226
     27  CA        52.2420   21.5740  183.3290 C.3    81  HIS81       0.1752
     28  C         53.0960   22.5310  184.1440 C.2    81  HIS81       0.2597
     29  O         54.2690   22.2560  184.3920 O.2    81  HIS81      -0.2718
     30  CB        51.4900   20.5870  184.2330 C.3    81  HIS81       0.0759
     31  CG        50.2030   21.1010  184.8210 C.ar   81  HIS81       0.0818
     32  ND1       50.1530   22.1200  185.7440 N.ar   81  HIS81      -0.2268
     33  CD2       48.9280   20.6600  184.6850 C.ar   81  HIS81       0.1154
     34  CE1       48.9000   22.3120  186.1280 C.ar   81  HIS81       0.1986
     35  NE2       48.1350   21.4410  185.4950 N.ar   81  HIS81      -0.2212
     36  N         52.5310   23.6710  184.5260 N.am   82  GLY82      -0.1942
     37  CA        53.2040   24.5480  185.4600 C.3    82  GLY82       0.2014
     38  C         53.2080   23.8700  186.8200 C.2    82  GLY82       0.2640
     39  O         52.3000   23.0800  187.1300 O.2    82  GLY82      -0.2714
     40  N         54.2160   24.1770  187.6380 N.am   83  THR83      -0.1936
     41  CA        54.3480   23.5340  188.9570 C.3    83  THR83       0.2028
     42  C         53.3300   24.0340  190.0120 C.2    83  THR83       0.2642
     43  O         52.9280   23.2880  190.8890 O.2    83  THR83      -0.2714
     44  CB        55.8070   23.6120  189.5000 C.3    83  THR83       0.1808
     45  OG1       56.1300   24.9630  189.8560 O.3    83  THR83      -0.2208
     46  CG2       56.7990   23.1200  188.4460 C.3    83  THR83       0.0379
     47  N         52.8930   25.2820  189.9130 N.am   84  ASP84      -0.1971
     48  CA        51.9620   25.8240  190.9070 C.3    84  ASP84       0.1709
     49  C         50.7250   24.9170  191.1970 C.2    84  ASP84       0.2293
     50  O         50.3430   24.7370  192.3520 O.2    84  ASP84      -0.2864
     51  CB        51.5520   27.2810  190.5540 C.3    84  ASP84       0.1436
     52  CG        52.7530   28.2690  190.5660 C.2    84  ASP84       0.3671
     53  OD1       53.8390   27.9220  191.1070 O.co2  84  ASP84      -0.2456
     54  OD2       52.6080   29.3960  190.0320 O.co2  84  ASP84      -0.2456
     55  N         58.7390   21.9840  185.1150 N.3   109  SER109     -0.1202
     56  CA        60.0550   22.3860  185.5970 C.3   109  SER109      0.2020
     57  C         60.0310   23.7490  186.3050 C.2   109  SER109      0.2618
     58  O         59.1580   24.5940  186.0550 O.2   109  SER109     -0.2717
     59  CB        61.1140   22.3370  184.4810 C.3   109  SER109      0.2103
     60  OG        61.1070   23.5010  183.6840 O.3   109  SER109     -0.2182
     61  N         60.9900   23.9210  187.2110 N.am  110  MET110     -0.1979
     62  CA        61.1640   25.1380  187.9850 C.3   110  MET110      0.1605
     63  C         61.9910   26.1120  187.1660 C.2   110  MET110      0.2287
     64  O         61.9450   27.3250  187.3730 O.2   110  MET110     -0.2864
     65  CB        61.8780   24.8030  189.3020 C.3   110  MET110      0.0413
     66  CG        61.1620   23.7360  190.1070 C.3   110  MET110      0.0598
     67  SD        59.4820   24.2350  190.6290 S.3   110  MET110     -0.1393
     68  CE        59.8710   25.5100  191.8440 C.3   110  MET110      0.0692
     69  N         53.3880   19.7660  196.0240 N.3   154  LYS154     -0.1245
     70  CA        54.4740   20.7390  195.9240 C.3   154  LYS154      0.1561
     71  C         54.9170   21.1790  197.3280 C.2   154  LYS154      0.2260
     72  O         54.1360   21.7370  198.1100 O.2   154  LYS154     -0.2867
     73  CB        54.0410   21.9550  195.1020 C.3   154  LYS154      0.0271
     74  CG        55.1760   22.9030  194.7520 C.3   154  LYS154      0.0035
     75  CD        54.6870   24.0320  193.8690 C.3   154  LYS154      0.0206
     76  CE        55.8430   24.8550  193.3510 C.3   154  LYS154      0.1093
     77  NZ        55.3530   25.8550  192.3660 N.3   154  LYS154     -0.1314
@<TRIPOS>BOND
     1     4     3    2
     2     1     2    1
     3     8     7    2
     4     3     2    1
     5     3     5   am
     6     7     6    1
     7    26    27    1
     8    12    13    1
     9    27    28    1
    10    27    30    1
    11     6     5    1
    12     6     9    1
    13    60    59    1
    14    13    16    1
    15    13    14    1
    16    28    29    2
    17    28    36   am
    18    30    31    1
    19    59    56    1
    20    36    37    1
    21    16    17    1
    22    33    31   ar
    23    33    35   ar
    24    14    15    2
    25    14    20   am
    26    31    32   ar
    27    11     9    1
    28     9    10    1
    29    55    56    1
    30    20    21    1
    31    37    38    1
    32    35    34   ar
    33    56    57    1
    34    32    34   ar
    35    17    19   ar
    36    17    18   ar
    37    58    57    2
    38    21    24    1
    39    21    22    1
    40    57    61   am
    41    24    25    1
    42    38    39    2
    43    38    40   am
    44    63    64    2
    45    63    62    1
    46    22    23    2
    47    61    62    1
    48    40    41    1
    49    62    65    1
    50    46    44    1
    51    41    44    1
    52    41    42    1
    53    65    66    1
    54    44    45    1
    55    47    42   am
    56    47    48    1
    57    42    43    2
    58    54    52   ar
    59    66    67    1
    60    51    52    1
    61    51    48    1
    62    52    53   ar
    63    67    68    1
    64    48    49    1
    65    49    50    2
    66    77    76    1
    67    76    75    1
    68    75    74    1
    69    74    73    1
    70    73    70    1
    71    70    69    1
    72    70    71    1
    73    71    72    2
