@<TRIPOS>MOLECULE
tmp/4njiA01.pdb
 127 121 0 0 0
SMALL
GASTEIGER

@<TRIPOS>ATOM
      1  N         -7.2130   83.6450   33.7130 N.3     8  PHE8       -0.1241
      2  CA        -5.9900   82.8530   33.6420 C.3     8  PHE8        0.1605
      3  C         -4.8880   83.5180   32.8150 C.2     8  PHE8        0.2264
      4  O         -5.1550   84.3180   31.9200 O.2     8  PHE8       -0.2867
      5  CB        -6.2930   81.4560   33.0870 C.3     8  PHE8        0.0534
      6  CG        -6.9160   81.4610   31.7170 C.ar    8  PHE8       -0.0203
      7  CD1       -6.1380   81.2450   30.5850 C.ar    8  PHE8       -0.0042
      8  CD2       -8.2760   81.6690   31.5570 C.ar    8  PHE8       -0.0042
      9  CE1       -6.7090   81.2440   29.3190 C.ar    8  PHE8       -0.0003
     10  CE2       -8.8550   81.6640   30.2920 C.ar    8  PHE8       -0.0003
     11  CZ        -8.0680   81.4570   29.1710 C.ar    8  PHE8       -0.0000
     12  N         -1.7550   83.2380   30.2590 N.3    10  THR10      -0.1203
     13  CA        -1.2590   82.3900   29.1820 C.3    10  THR10       0.1994
     14  C         -0.7120   83.2640   28.0530 C.2    10  THR10       0.2618
     15  O         -0.4860   84.4590   28.2470 O.2    10  THR10      -0.2717
     16  CB        -2.3840   81.4610   28.6450 C.3    10  THR10       0.1784
     17  OG1       -1.8410   80.5190   27.7140 O.3    10  THR10      -0.2211
     18  CG2       -3.4860   82.2760   27.9630 C.3    10  THR10       0.0376
     19  N         -0.4990   82.6740   26.8800 N.am   11  LEU11      -0.1965
     20  CA        -0.2010   83.4550   25.6870 C.3    11  LEU11       0.1728
     21  C         -1.4660   83.6160   24.8440 C.2    11  LEU11       0.2616
     22  O         -2.1960   82.6490   24.6310 O.2    11  LEU11      -0.2715
     23  CB         0.8980   82.7910   24.8480 C.3    11  LEU11       0.0311
     24  CG         2.2140   82.4270   25.5430 C.3    11  LEU11       0.0022
     25  CD1        3.1960   81.8150   24.5480 C.3    11  LEU11       0.0001
     26  CD2        2.8300   83.6260   26.2330 C.3    11  LEU11       0.0001
     27  N         -1.7340   84.8360   24.3910 N.am   12  GLN12      -0.1963
     28  CA        -2.7670   85.0650   23.3840 C.3    12  GLN12       0.1733
     29  C         -2.5140   84.1260   22.2080 C.2    12  GLN12       0.2617
     30  O         -1.4370   84.1390   21.6160 O.2    12  GLN12      -0.2715
     31  CB        -2.7700   86.5320   22.9320 C.3    12  GLN12       0.0408
     32  CG        -3.5080   86.8360   21.6250 C.3    12  GLN12       0.0908
     33  CD        -5.0090   86.5980   21.7060 C.2    12  GLN12       0.2608
     34  OE1       -5.4730   85.4740   21.5540 O.2    12  GLN12      -0.2717
     35  NE2       -5.7720   87.6600   21.9340 N.am   12  GLN12      -0.0878
     36  N         -3.4960   83.2910   21.8950 N.am   13  GLY13      -0.1940
     37  CA        -3.3420   82.3200   20.8310 C.3    13  GLY13       0.2014
     38  C         -3.6700   82.8240   19.4350 C.2    13  GLY13       0.2638
     39  O         -3.2480   82.2210   18.4550 O.2    13  GLY13      -0.2714
     40  N         -4.3960   83.9360   19.3360 N.am   14  GLU14      -0.1977
     41  CA        -5.0110   84.3340   18.0650 C.3    14  GLU14       0.1602
     42  C         -4.7420   85.7810   17.6650 C.2    14  GLU14       0.2287
     43  O         -4.3660   86.6130   18.4940 O.2    14  GLU14      -0.2864
     44  CB        -6.5340   84.1300   18.1310 C.3    14  GLU14       0.0415
     45  CG        -6.9660   82.7350   18.5130 C.3    14  GLU14       0.1163
     46  CD        -8.4720   82.6020   18.7210 C.2    14  GLU14       0.3649
     47  OE1       -9.2350   83.5390   18.3940 O.co2  14  GLU14      -0.2457
     48  OE2       -8.8930   81.5450   19.2250 O.co2  14  GLU14      -0.2457
     49  N         -6.1270   86.4280   30.5740 N.3    24  PHE24      -0.1241
     50  CA        -7.4380   86.3000   29.9690 C.3    24  PHE24       0.1605
     51  C         -8.5010   86.4260   31.0430 C.2    24  PHE24       0.2264
     52  O         -8.4550   85.7330   32.0530 O.2    24  PHE24      -0.2867
     53  CB        -7.5650   84.9670   29.2210 C.3    24  PHE24       0.0534
     54  CG        -7.0790   85.0350   27.8040 C.ar   24  PHE24      -0.0203
     55  CD1       -7.9710   84.9760   26.7440 C.ar   24  PHE24      -0.0042
     56  CD2       -5.7390   85.2160   27.5320 C.ar   24  PHE24      -0.0042
     57  CE1       -7.5270   85.0640   25.4380 C.ar   24  PHE24      -0.0003
     58  CE2       -5.2830   85.3080   26.2200 C.ar   24  PHE24      -0.0003
     59  CZ        -6.1760   85.2340   25.1750 C.ar   24  PHE24      -0.0000
     60  N        -12.3320   85.9090   31.0850 N.3    26  ARG26      -0.1245
     61  CA       -13.4670   85.4110   30.3200 C.3    26  ARG26       0.1563
     62  C        -14.7670   85.6710   31.0670 C.2    26  ARG26       0.2260
     63  O        -15.0460   85.0340   32.0810 O.2    26  ARG26      -0.2867
     64  CB       -13.3030   83.9110   30.0310 C.3    26  ARG26       0.0307
     65  CG       -14.3350   83.3510   29.0670 C.3    26  ARG26       0.0489
     66  CD       -14.1250   81.8700   28.7500 C.3    26  ARG26       0.2205
     67  NE       -12.7740   81.5340   28.2890 N.pl3  26  ARG26      -0.0865
     68  CZ       -12.2540   81.9070   27.1210 C.cat  26  ARG26       0.5346
     69  NH1      -12.9570   82.6550   26.2760 N.pl3  26  ARG26       0.1354
     70  NH2      -11.0230   81.5340   26.7980 N.pl3  26  ARG26       0.1354
     71  N        -16.5920   77.4380   20.3240 N.3    49  ASP49      -0.1225
     72  CA       -15.7070   76.4040   20.8620 C.3    49  ASP49       0.1805
     73  C        -15.4500   76.5860   22.3640 C.2    49  ASP49       0.2598
     74  O        -14.5650   75.9530   22.9290 O.2    49  ASP49      -0.2718
     75  CB       -14.3660   76.3810   20.0960 C.3    49  ASP49       0.1424
     76  CG       -13.4860   77.6220   20.3580 C.2    49  ASP49       0.3668
     77  OD1      -13.9340   78.5820   21.0190 O.co2  49  ASP49      -0.2456
     78  OD2      -12.3340   77.6450   19.8740 O.co2  49  ASP49      -0.2456
     79  N        -16.2380   77.4400   23.0040 N.am   50  THR50      -0.1953
     80  CA       -15.9260   77.9090   24.3480 C.3    50  THR50       0.1897
     81  C        -17.0390   77.6040   25.3520 C.2    50  THR50       0.2313
     82  O        -18.2210   77.6040   25.0030 O.2    50  THR50      -0.2863
     83  CB       -15.6400   79.4340   24.3230 C.3    50  THR50       0.1794
     84  OG1      -14.4590   79.6780   23.5450 O.3    50  THR50      -0.2208
     85  CG2      -15.4350   80.0010   25.7220 C.3    50  THR50       0.0378
     86  N        -12.6880   88.8040   27.2700 N.3    89  THR89      -0.1218
     87  CA       -13.3670   87.9360   26.3400 C.3    89  THR89       0.1862
     88  C        -14.5190   87.2690   27.0770 C.2    89  THR89       0.2287
     89  O        -14.9740   87.7760   28.1080 O.2    89  THR89      -0.2866
     90  CB       -12.3820   86.9100   25.7290 C.3    89  THR89       0.1770
     91  OG1      -13.0890   86.0010   24.8790 O.3    89  THR89      -0.2211
     92  CG2      -11.6300   86.1430   26.8220 C.3    89  THR89       0.0375
     93  N        -12.0770   90.8790   22.8070 N.3   115  GLU115     -0.1245
     94  CA       -12.5450   89.9790   21.7580 C.3   115  GLU115      0.1567
     95  C        -14.0590   90.0970   21.7310 C.2   115  GLU115      0.2260
     96  O        -14.7180   89.6700   22.6740 O.2   115  GLU115     -0.2867
     97  CB       -12.1300   88.5250   22.0320 C.3   115  GLU115      0.0388
     98  CG       -10.6420   88.2900   22.2210 C.3   115  GLU115      0.1160
     99  CD        -9.9450   87.8620   20.9340 C.2   115  GLU115      0.3649
    100  OE1       -8.7010   87.9760   20.8690 O.co2 115  GLU115     -0.2457
    101  OE2      -10.6420   87.4020   19.9960 O.co2 115  GLU115     -0.2457
    102  N         -5.4690   79.3060   15.5200 N.3   201  GLN201     -0.1245
    103  CA        -5.6440   79.1460   16.9600 C.3   201  GLN201      0.1566
    104  C         -4.4180   78.4230   17.5060 C.2   201  GLN201      0.2260
    105  O         -4.4470   77.2100   17.7170 O.2   201  GLN201     -0.2867
    106  CB        -6.9330   78.3850   17.2760 C.3   201  GLN201      0.0367
    107  CG        -8.1760   79.1160   16.7740 C.3   201  GLN201      0.0905
    108  CD        -9.4590   78.4880   17.2510 C.2   201  GLN201      0.2608
    109  OE1       -9.8780   77.4410   16.7540 O.2   201  GLN201     -0.2717
    110  NE2      -10.1010   79.1280   18.2250 N.am  201  GLN201     -0.0878
    111  N         -2.8860   78.2970   20.3180 N.3   203  HIS203     -0.1241
    112  CA        -2.9300   77.6590   21.6310 C.3   203  HIS203      0.1621
    113  C         -3.3750   76.1970   21.5370 C.2   203  HIS203      0.2264
    114  O         -3.0340   75.3850   22.3950 O.2   203  HIS203     -0.2867
    115  CB        -3.8450   78.4370   22.5930 C.3   203  HIS203      0.0745
    116  CG        -5.2480   78.6220   22.1000 C.ar  203  HIS203      0.0817
    117  ND1       -5.5740   79.5130   21.1000 N.ar  203  HIS203     -0.2268
    118  CD2       -6.4160   78.0640   22.5030 C.ar  203  HIS203      0.1154
    119  CE1       -6.8770   79.4770   20.8900 C.ar  203  HIS203      0.1986
    120  NE2       -7.4120   78.6070   21.7270 N.ar  203  HIS203     -0.2212
    121  N         -3.5710   76.6170   27.6540 N.3   209  PRO209     -0.2116
    122  CA        -4.8690   77.2680   27.8760 C.3   209  PRO209      0.1372
    123  C         -5.0710   78.4910   26.9780 C.2   209  PRO209      0.2244
    124  O         -6.1970   78.7920   26.5590 O.2   209  PRO209     -0.2868
    125  CB        -4.8080   77.6760   29.3480 C.3   209  PRO209      0.0268
    126  CG        -3.8880   76.6680   29.9680 C.3   209  PRO209      0.0207
    127  CD        -2.8620   76.3460   28.9180 C.3   209  PRO209      0.0892
@<TRIPOS>BOND
     1   102   103    1
     2   109   108    2
     3   107   108    1
     4   107   106    1
     5   103   106    1
     6   103   104    1
     7   108   110   am
     8   104   105    2
     9    42    41    1
    10    42    43    2
    11    41    44    1
    12    41    40    1
    13    44    45    1
    14    47    46   ar
    15    39    38    2
    16    45    46    1
    17    46    48   ar
    18    40    38   am
    19    38    37    1
    20    78    76   ar
    21   101    99   ar
    22    75    76    1
    23    75    72    1
    24   111   112    1
    25    71    72    1
    26    76    77   ar
    27    37    36    1
    28    72    73    1
    29   100    99   ar
    30   119   117   ar
    31   119   120   ar
    32    99    98    1
    33   117   116   ar
    34   113   112    1
    35   113   114    2
    36    34    33    2
    37    30    29    2
    38    32    33    1
    39    32    31    1
    40   112   115    1
    41    33    35   am
    42   120   118   ar
    43    95    94    1
    44    95    96    2
    45    94    97    1
    46    94    93    1
    47    36    29   am
    48    97    98    1
    49   116   118   ar
    50   116   115    1
    51    29    28    1
    52    73    74    2
    53    73    79   am
    54    31    28    1
    55    79    80    1
    56    28    27    1
    57    84    83    1
    58    83    80    1
    59    83    85    1
    60    80    81    1
    61    27    21   am
    62    25    24    1
    63    22    21    2
    64    21    20    1
    65    23    24    1
    66    23    20    1
    67    91    90    1
    68    82    81    2
    69    59    57   ar
    70    59    58   ar
    71    57    55   ar
    72    24    26    1
    73    20    19    1
    74    90    87    1
    75    90    92    1
    76    58    56   ar
    77    69    68    1
    78    87    88    1
    79    87    86    1
    80   124   123    2
    81    55    54   ar
    82    70    68    1
    83    19    14   am
    84   123   122    1
    85    88    89    2
    86    68    67    2
    87    56    54   ar
    88   121   122    1
    89   121   127    1
    90    17    16    1
    91    54    53    1
    92   122   125    1
    93    18    16    1
    94    14    15    2
    95    14    13    1
    96    67    66    1
    97    16    13    1
    98    66    65    1
    99   127   126    1
   100    65    64    1
   101    11     9   ar
   102    11    10   ar
   103    13    12    1
   104    53    50    1
   105     9     7   ar
   106   125   126    1
   107    50    49    1
   108    50    51    1
   109    64    61    1
   110    10     8   ar
   111    61    62    1
   112    61    60    1
   113     7     6   ar
   114    51    52    2
   115    62    63    2
   116     8     6   ar
   117     6     5    1
   118     4     3    2
   119     3     2    1
   120     5     2    1
   121     2     1    1
