@<TRIPOS>MOLECULE
tmp/4njiA00.pdb
 191 181 0 0 0
SMALL
GASTEIGER

@<TRIPOS>ATOM
      1  N         -4.3960   83.9360   19.3360 N.3    14  GLU14      -0.1245
      2  CA        -5.0110   84.3340   18.0650 C.3    14  GLU14       0.1567
      3  C         -4.7420   85.7810   17.6650 C.2    14  GLU14       0.2260
      4  O         -4.3660   86.6130   18.4940 O.2    14  GLU14      -0.2867
      5  CB        -6.5340   84.1300   18.1310 C.3    14  GLU14       0.0388
      6  CG        -6.9660   82.7350   18.5130 C.3    14  GLU14       0.1160
      7  CD        -8.4720   82.6020   18.7210 C.2    14  GLU14       0.3649
      8  OE1       -9.2350   83.5390   18.3940 O.co2  14  GLU14      -0.2457
      9  OE2       -8.8930   81.5450   19.2250 O.co2  14  GLU14      -0.2457
     10  N        -12.3320   85.9090   31.0850 N.3    26  ARG26      -0.1245
     11  CA       -13.4670   85.4110   30.3200 C.3    26  ARG26       0.1563
     12  C        -14.7670   85.6710   31.0670 C.2    26  ARG26       0.2260
     13  O        -15.0460   85.0340   32.0810 O.2    26  ARG26      -0.2867
     14  CB       -13.3030   83.9110   30.0310 C.3    26  ARG26       0.0307
     15  CG       -14.3350   83.3510   29.0670 C.3    26  ARG26       0.0489
     16  CD       -14.1250   81.8700   28.7500 C.3    26  ARG26       0.2205
     17  NE       -12.7740   81.5340   28.2890 N.pl3  26  ARG26      -0.0865
     18  CZ       -12.2540   81.9070   27.1210 C.cat  26  ARG26       0.5346
     19  NH1      -12.9570   82.6550   26.2760 N.pl3  26  ARG26       0.1354
     20  NH2      -11.0230   81.5340   26.7980 N.pl3  26  ARG26       0.1354
     21  N        -23.3350   85.2320   26.8950 N.3    30  CYS30      -0.1235
     22  CA       -23.2570   85.7840   25.5520 C.3    30  CYS30       0.1677
     23  C        -24.6550   86.1520   25.0460 C.2    30  CYS30       0.2270
     24  O        -25.6430   85.5740   25.4900 O.2    30  CYS30      -0.2867
     25  CB       -22.5980   84.7840   24.6080 C.3    30  CYS30       0.0956
     26  SG       -22.4510   85.3980   22.9390 S.3    30  CYS30      -0.0801
     27  N        -25.2970   82.3330   16.8880 N.3    45  CYS45      -0.1235
     28  CA       -23.9350   81.8310   16.7090 C.3    45  CYS45       0.1677
     29  C        -23.8540   80.3660   17.1410 C.2    45  CYS45       0.2270
     30  O        -24.0080   80.0500   18.3190 O.2    45  CYS45      -0.2867
     31  CB       -22.9290   82.6740   17.5020 C.3    45  CYS45       0.0956
     32  SG       -21.2030   82.1060   17.3400 S.3    45  CYS45      -0.0801
     33  N        -21.2750   77.9080   16.2630 N.3    47  PHE47      -0.1227
     34  CA       -20.0160   77.1660   16.1380 C.3    47  PHE47       0.1736
     35  C        -19.0720   77.3520   17.3230 C.2    47  PHE47       0.2596
     36  O        -17.9390   76.9150   17.2630 O.2    47  PHE47      -0.2718
     37  CB       -19.2840   77.5570   14.8390 C.3    47  PHE47       0.0547
     38  CG       -18.9420   79.0340   14.7400 C.ar   47  PHE47      -0.0202
     39  CD1      -17.7890   79.5420   15.3290 C.ar   47  PHE47      -0.0042
     40  CD2      -19.7710   79.9100   14.0520 C.ar   47  PHE47      -0.0042
     41  CE1      -17.4790   80.9010   15.2410 C.ar   47  PHE47      -0.0003
     42  CE2      -19.4590   81.2650   13.9570 C.ar   47  PHE47      -0.0003
     43  CZ       -18.3110   81.7580   14.5480 C.ar   47  PHE47      -0.0000
     44  N        -19.5440   77.9940   18.3880 N.am   48  CYS48      -0.1956
     45  CA       -18.6940   78.3790   19.5200 C.3    48  CYS48       0.1843
     46  C        -17.8870   77.2110   20.0840 C.2    48  CYS48       0.2625
     47  O        -18.4330   76.1270   20.2940 O.2    48  CYS48      -0.2714
     48  CB       -19.5560   78.9910   20.6260 C.3    48  CYS48       0.0997
     49  SG       -18.6350   79.9000   21.9000 S.3    48  CYS48      -0.0797
     50  N        -16.5920   77.4380   20.3240 N.am   49  ASP49      -0.1957
     51  CA       -15.7070   76.4040   20.8620 C.3    49  ASP49       0.1840
     52  C        -15.4500   76.5860   22.3640 C.2    49  ASP49       0.2622
     53  O        -14.5650   75.9530   22.9290 O.2    49  ASP49      -0.2715
     54  CB       -14.3660   76.3810   20.0960 C.3    49  ASP49       0.1450
     55  CG       -13.4860   77.6220   20.3580 C.2    49  ASP49       0.3671
     56  OD1      -13.9340   78.5820   21.0190 O.co2  49  ASP49      -0.2456
     57  OD2      -12.3340   77.6450   19.8740 O.co2  49  ASP49      -0.2456
     58  N        -16.2380   77.4400   23.0040 N.am   50  THR50      -0.1951
     59  CA       -15.9260   77.9090   24.3480 C.3    50  THR50       0.1897
     60  C        -17.0390   77.6040   25.3520 C.2    50  THR50       0.2313
     61  O        -18.2210   77.6040   25.0030 O.2    50  THR50      -0.2863
     62  CB       -15.6400   79.4340   24.3230 C.3    50  THR50       0.1794
     63  OG1      -14.4590   79.6780   23.5450 O.3    50  THR50      -0.2208
     64  CG2      -15.4350   80.0010   25.7220 C.3    50  THR50       0.0378
     65  N        -12.6880   88.8040   27.2700 N.3    89  THR89      -0.1203
     66  CA       -13.3670   87.9360   26.3400 C.3    89  THR89       0.1994
     67  C        -14.5190   87.2690   27.0770 C.2    89  THR89       0.2618
     68  O        -14.9740   87.7760   28.1080 O.2    89  THR89      -0.2717
     69  CB       -12.3820   86.9100   25.7290 C.3    89  THR89       0.1784
     70  OG1      -13.0890   86.0010   24.8790 O.3    89  THR89      -0.2211
     71  CG2      -11.6300   86.1430   26.8220 C.3    89  THR89       0.0376
     72  N        -15.0030   86.1500   26.5570 N.am   90  GLY90      -0.1942
     73  CA       -16.1670   85.4970   27.1290 C.3    90  GLY90       0.2014
     74  C        -16.5340   84.2880   26.2940 C.2    90  GLY90       0.2639
     75  O        -15.6440   83.5330   25.9100 O.2    90  GLY90      -0.2714
     76  N        -17.8190   84.1100   25.9800 N.am   91  GLY91      -0.1939
     77  CA       -18.8650   85.0570   26.3260 C.3    91  GLY91       0.2014
     78  C        -18.7930   86.3010   25.4580 C.2    91  GLY91       0.2639
     79  O        -17.8930   86.4310   24.6320 O.2    91  GLY91      -0.2714
     80  N        -19.7360   87.2210   25.6290 N.am   92  GLU92      -0.1963
     81  CA       -19.6220   88.5120   24.9610 C.3    92  GLU92       0.1718
     82  C        -19.2670   89.5520   26.0120 C.2    92  GLU92       0.2458
     83  O        -20.0890   89.8900   26.8600 O.2    92  GLU92      -0.2730
     84  CB       -20.9080   88.8860   24.2160 C.3    92  GLU92       0.0428
     85  CG       -20.8500   90.2680   23.5730 C.3    92  GLU92       0.1163
     86  CD       -19.5080   90.5400   22.9010 C.2    92  GLU92       0.3649
     87  OE1      -19.1120   89.7510   22.0090 O.co2  92  GLU92      -0.2457
     88  OE2      -18.8420   91.5360   23.2740 O.co2  92  GLU92      -0.2457
     89  N        -18.0190   90.0360   25.9780 N.am   93  PRO93      -0.2727
     90  CA       -17.5370   90.9090   27.0500 C.3    93  PRO93       0.1402
     91  C        -18.2700   92.2460   27.1120 C.2    93  PRO93       0.2269
     92  O        -18.3610   92.8090   28.1980 O.2    93  PRO93      -0.2865
     93  CB       -16.0560   91.1040   26.7070 C.3    93  PRO93       0.0296
     94  CG       -15.9440   90.7740   25.2640 C.3    93  PRO93       0.0237
     95  CD       -16.9500   89.6950   25.0230 C.3    93  PRO93       0.0939
     96  N        -12.0770   90.8790   22.8070 N.3   115  GLU115     -0.1231
     97  CA       -12.5450   89.9790   21.7580 C.3   115  GLU115      0.1699
     98  C        -14.0590   90.0970   21.7310 C.2   115  GLU115      0.2593
     99  O        -14.7180   89.6700   22.6740 O.2   115  GLU115     -0.2718
    100  CB       -12.1300   88.5250   22.0320 C.3   115  GLU115      0.0402
    101  CG       -10.6420   88.2900   22.2210 C.3   115  GLU115      0.1161
    102  CD        -9.9450   87.8620   20.9340 C.2   115  GLU115      0.3649
    103  OE1       -8.7010   87.9760   20.8690 O.co2 115  GLU115     -0.2457
    104  OE2      -10.6420   87.4020   19.9960 O.co2 115  GLU115     -0.2457
    105  N        -14.6190   90.6850   20.6820 N.am  116  THR116     -0.1939
    106  CA       -16.0590   90.9490   20.6810 C.3   116  THR116      0.2028
    107  C        -16.6960   90.5140   19.3630 C.2   116  THR116      0.2642
    108  O        -16.0390   90.5270   18.3180 O.2   116  THR116     -0.2714
    109  CB       -16.3580   92.4500   20.9540 C.3   116  THR116      0.1808
    110  OG1      -17.7710   92.6670   20.9650 O.3   116  THR116     -0.2208
    111  CG2      -15.7180   93.3480   19.8960 C.3   116  THR116      0.0379
    112  N        -17.9650   90.1070   19.4120 N.am  117  ASN117     -0.1971
    113  CA       -18.6290   89.6190   18.2070 C.3   117  ASN117      0.1688
    114  C        -19.1460   90.7800   17.3490 C.2   117  ASN117      0.2292
    115  O        -19.6800   90.5730   16.2640 O.2   117  ASN117     -0.2864
    116  CB       -19.7630   88.6360   18.5560 C.3   117  ASN117      0.1181
    117  CG       -20.8430   89.2500   19.4460 C.2   117  ASN117      0.2629
    118  OD1      -21.1100   90.4450   19.3820 O.2   117  ASN117     -0.2716
    119  ND2      -21.4730   88.4180   20.2800 N.am  117  ASN117     -0.0877
    120  N        -15.0010   89.9810   15.7070 N.3   132  SER132     -0.1217
    121  CA       -15.2060   88.7290   14.9890 C.3   132  SER132      0.1889
    122  C        -16.6730   88.5960   14.5730 C.2   132  SER132      0.2288
    123  O        -17.4830   88.0630   15.3250 O.2   132  SER132     -0.2866
    124  CB       -14.7760   87.5500   15.8600 C.3   132  SER132      0.2089
    125  OG       -14.6730   86.3690   15.0910 O.3   132  SER132     -0.2183
    126  N        -20.3000   87.6950   13.2670 N.3   134  LYS134     -0.1245
    127  CA       -21.0670   86.4910   13.0390 C.3   134  LYS134      0.1561
    128  C        -22.0750   86.7800   11.9290 C.2   134  LYS134      0.2260
    129  O        -22.7680   87.8020   11.9550 O.2   134  LYS134     -0.2867
    130  CB       -21.7370   86.0330   14.3370 C.3   134  LYS134      0.0271
    131  CG       -20.7590   85.9220   15.5320 C.3   134  LYS134      0.0035
    132  CD       -19.5750   84.9980   15.2340 C.3   134  LYS134      0.0206
    133  CE       -18.7310   84.6930   16.4800 C.3   134  LYS134      0.1093
    134  NZ       -17.5770   85.6220   16.6640 N.3   134  LYS134     -0.1314
    135  N        -11.3350   89.8840   12.7250 N.3   148  LYS148     -0.1245
    136  CA       -10.9040   88.4970   12.6620 C.3   148  LYS148      0.1561
    137  C        -12.0960   87.6080   12.3750 C.2   148  LYS148      0.2260
    138  O        -12.8900   87.3180   13.2710 O.2   148  LYS148     -0.2867
    139  CB       -10.2200   88.0920   13.9760 C.3   148  LYS148      0.0271
    140  CG        -9.6930   86.6640   13.9930 C.3   148  LYS148      0.0035
    141  CD        -9.0240   86.3580   15.3250 C.3   148  LYS148      0.0206
    142  CE       -10.0020   86.5160   16.4830 C.3   148  LYS148      0.1093
    143  NZ        -9.3640   86.3290   17.8160 N.3   148  LYS148     -0.1314
    144  N        -14.1010   84.2850   11.3420 N.3   150  VAL150     -0.1245
    145  CA       -14.0550   82.8240   11.3240 C.3   150  VAL150      0.1561
    146  C        -14.7250   82.2970   10.0650 C.2   150  VAL150      0.2260
    147  O        -15.8700   82.6520    9.7660 O.2   150  VAL150     -0.2867
    148  CB       -14.7290   82.2160   12.5630 C.3   150  VAL150      0.0252
    149  CG1      -14.7610   80.7020   12.4580 C.3   150  VAL150      0.0019
    150  CG2      -14.0030   82.6450   13.8210 C.3   150  VAL150      0.0019
    151  N         -9.7860   83.1810   10.2110 N.3   172  GLN172     -0.1231
    152  CA        -9.4370   82.1520   11.1800 C.3   172  GLN172      0.1683
    153  C        -10.2700   80.9200   10.8570 C.2   172  GLN172      0.2434
    154  O        -11.4910   81.0100   10.8040 O.2   172  GLN172     -0.2733
    155  CB        -9.7010   82.6690   12.6040 C.3   172  GLN172      0.0380
    156  CG        -9.6380   81.6450   13.7320 C.3   172  GLN172      0.0905
    157  CD        -9.3800   82.3050   15.0800 C.2   172  GLN172      0.2608
    158  OE1       -8.3660   82.9930   15.2650 O.2   172  GLN172     -0.2717
    159  NE2      -10.2940   82.1030   16.0270 N.am  172  GLN172     -0.0878
    160  N         -9.6240   79.7690   10.6050 N.am  173  PRO173     -0.2718
    161  CA       -10.4530   78.6110   10.2360 C.3   173  PRO173      0.1535
    162  C        -11.3370   78.1140   11.3780 C.2   173  PRO173      0.2598
    163  O        -10.9170   78.0820   12.5360 O.2   173  PRO173     -0.2715
    164  CB        -9.4280   77.5430    9.8460 C.3   173  PRO173      0.0310
    165  CG        -8.1490   77.9820   10.4720 C.3   173  PRO173      0.0237
    166  CD        -8.1850   79.4810   10.4970 C.3   173  PRO173      0.0939
    167  N        -12.5610   77.7320   11.0390 N.am  174  MET174     -0.1964
    168  CA       -13.4980   77.2490   12.0360 C.3   174  MET174      0.1736
    169  C        -13.0880   75.8740   12.5310 C.2   174  MET174      0.2616
    170  O        -12.9960   74.9150   11.7480 O.2   174  MET174     -0.2715
    171  CB       -14.9160   77.1980   11.4700 C.3   174  MET174      0.0427
    172  CG       -15.9650   76.8150   12.4960 C.3   174  MET174      0.0599
    173  SD       -17.6070   76.6410   11.7740 S.3   174  MET174     -0.1393
    174  CE       -18.0260   78.3450   11.4230 C.3   174  MET174      0.0692
    175  N        -12.8380   75.7830   13.8330 N.am  175  ASP175     -0.1971
    176  CA       -12.5350   74.5050   14.4630 C.3   175  ASP175      0.1709
    177  C        -13.8090   73.6800   14.5900 C.2   175  ASP175      0.2293
    178  O        -14.9080   74.2240   14.6930 O.2   175  ASP175     -0.2864
    179  CB       -11.8960   74.7080   15.8350 C.3   175  ASP175      0.1436
    180  CG       -11.2310   73.4440   16.3620 C.2   175  ASP175      0.3671
    181  OD1      -11.0380   72.4890   15.5760 O.co2 175  ASP175     -0.2456
    182  OD2      -10.8900   73.4110   17.5620 O.co2 175  ASP175     -0.2456
    183  N         -5.4690   79.3060   15.5200 N.3   201  GLN201     -0.1245
    184  CA        -5.6440   79.1460   16.9600 C.3   201  GLN201      0.1566
    185  C         -4.4180   78.4230   17.5060 C.2   201  GLN201      0.2260
    186  O         -4.4470   77.2100   17.7170 O.2   201  GLN201     -0.2867
    187  CB        -6.9330   78.3850   17.2760 C.3   201  GLN201      0.0367
    188  CG        -8.1760   79.1160   16.7740 C.3   201  GLN201      0.0905
    189  CD        -9.4590   78.4880   17.2510 C.2   201  GLN201      0.2608
    190  OE1       -9.8780   77.4410   16.7540 O.2   201  GLN201     -0.2717
    191  NE2      -10.1010   79.1280   18.2250 N.am  201  GLN201     -0.0878
@<TRIPOS>BOND
     1   147   146    2
     2   164   161    1
     3   164   165    1
     4   146   145    1
     5   151   152    1
     6   161   160    1
     7   161   162    1
     8   165   166    1
     9   166   160    1
    10   160   153   am
    11   154   153    2
    12   153   152    1
    13   167   162   am
    14   167   168    1
    15   152   155    1
    16   145   144    1
    17   145   148    1
    18   162   163    2
    19   174   173    1
    20   171   168    1
    21   171   172    1
    22   170   169    2
    23   173   172    1
    24   128   129    2
    25   128   127    1
    26   168   169    1
    27   137   136    1
    28   137   138    2
    29   149   148    1
    30   169   175   am
    31   148   150    1
    32   155   156    1
    33   136   135    1
    34   136   139    1
    35   127   126    1
    36   127   130    1
    37   156   157    1
    38   175   176    1
    39    42    40   ar
    40    42    43   ar
    41   139   140    1
    42   140   141    1
    43    40    38   ar
    44   130   131    1
    45   176   177    1
    46   176   179    1
    47    43    41   ar
    48   122   121    1
    49   122   123    2
    50   177   178    2
    51    38    37    1
    52    38    39   ar
    53    37    34    1
    54   121   120    1
    55   121   124    1
    56   157   158    2
    57   157   159   am
    58   125   124    1
    59   132   131    1
    60   132   133    1
    61    41    39   ar
    62   141   142    1
    63   183   184    1
    64   181   180   ar
    65   179   180    1
    66    34    33    1
    67    34    35    1
    68   115   114    2
    69   180   182   ar
    70   133   134    1
    71   142   143    1
    72    28    27    1
    73    28    29    1
    74    28    31    1
    75   190   189    2
    76   188   189    1
    77   188   187    1
    78   184   187    1
    79   184   185    1
    80    29    30    2
    81   189   191   am
    82    36    35    2
    83    35    44   am
    84    32    31    1
    85   114   113    1
    86   185   186    2
    87     3     2    1
    88     3     4    2
    89     2     5    1
    90     2     1    1
    91     5     6    1
    92   113   116    1
    93   113   112    1
    94   108   107    2
    95    44    45    1
    96     8     7   ar
    97     6     7    1
    98   116   117    1
    99     7     9   ar
   100   107   112   am
   101   107   106    1
   102   118   117    2
   103   117   119   am
   104    45    46    1
   105    45    48    1
   106    57    55   ar
   107   111   109    1
   108   104   102   ar
   109    46    47    2
   110    46    50   am
   111    54    55    1
   112    54    51    1
   113    50    51    1
   114    55    56   ar
   115    48    49    1
   116   106   105    1
   117   106   109    1
   118   105    98   am
   119    51    52    1
   120   103   102   ar
   121   102   101    1
   122   109   110    1
   123    98    97    1
   124    98    99    2
   125    97   100    1
   126    97    96    1
   127    87    86   ar
   128   100   101    1
   129    52    53    2
   130    52    58   am
   131    86    88   ar
   132    86    85    1
   133    26    25    1
   134    58    59    1
   135    63    62    1
   136    85    84    1
   137    84    81    1
   138    62    59    1
   139    62    64    1
   140    59    60    1
   141    25    22    1
   142    79    78    2
   143    70    69    1
   144    81    80    1
   145    81    82    1
   146    61    60    2
   147    95    94    1
   148    95    89    1
   149    23    24    2
   150    23    22    1
   151    94    93    1
   152    78    80   am
   153    78    77    1
   154    22    21    1
   155    69    66    1
   156    69    71    1
   157    75    74    2
   158    89    82   am
   159    89    90    1
   160    76    74   am
   161    76    77    1
   162    82    83    2
   163    19    18    1
   164    74    73    1
   165    66    67    1
   166    66    65    1
   167    72    67   am
   168    72    73    1
   169    93    90    1
   170    20    18    1
   171    90    91    1
   172    67    68    2
   173    91    92    2
   174    18    17    2
   175    17    16    1
   176    16    15    1
   177    15    14    1
   178    14    11    1
   179    11    12    1
   180    11    10    1
   181    12    13    2
