@<TRIPOS>MOLECULE
tmp/4njkB01.pdb
 118 113 0 0 0
SMALL
GASTEIGER

@<TRIPOS>ATOM
      1  N          9.1060   81.2780   -4.1530 N.3     8  PHE8       -0.1241
      2  CA         7.8170   80.6230   -4.0040 C.3     8  PHE8        0.1605
      3  C          6.8170   81.5380   -3.2970 C.2     8  PHE8        0.2264
      4  O          7.1760   82.4580   -2.5620 O.2     8  PHE8       -0.2867
      5  CB         7.9500   79.2740   -3.2570 C.3     8  PHE8        0.0534
      6  CG         8.6270   79.3760   -1.9000 C.ar    8  PHE8       -0.0203
      7  CD1        7.8910   79.3530   -0.7260 C.ar    8  PHE8       -0.0042
      8  CD2       10.0150   79.4190   -1.8020 C.ar    8  PHE8       -0.0042
      9  CE1        8.5020   79.4170    0.5150 C.ar    8  PHE8       -0.0003
     10  CE2       10.6480   79.5150   -0.5510 C.ar    8  PHE8       -0.0003
     11  CZ         9.8840   79.5100    0.6170 C.ar    8  PHE8       -0.0000
     12  N          3.6920   81.9340   -0.6750 N.3    10  THR10      -0.1203
     13  CA         3.0950   81.1930    0.4470 C.3    10  THR10       0.1994
     14  C          2.6550   82.1850    1.5250 C.2    10  THR10       0.2618
     15  O          2.5580   83.3830    1.2290 O.2    10  THR10      -0.2717
     16  CB         4.1230   80.1590    0.9890 C.3    10  THR10       0.1784
     17  OG1        3.5010   79.2460    1.8820 O.3    10  THR10      -0.2211
     18  CG2        5.3280   80.8620    1.6380 C.3    10  THR10       0.0376
     19  N          2.3570   81.7270    2.7440 N.am   11  LEU11      -0.1965
     20  CA         2.1810   82.6860    3.8600 C.3    11  LEU11       0.1728
     21  C          3.4820   82.7060    4.6530 C.2    11  LEU11       0.2616
     22  O          4.0610   81.6460    4.9010 O.2    11  LEU11      -0.2715
     23  CB         1.0430   82.3130    4.8090 C.3    11  LEU11       0.0311
     24  CG        -0.2710   81.8360    4.1310 C.3    11  LEU11       0.0022
     25  CD1       -1.3260   81.4520    5.1700 C.3    11  LEU11       0.0001
     26  CD2       -0.7730   83.0030    3.2920 C.3    11  LEU11       0.0001
     27  N          3.9080   83.8880    5.0660 N.am   12  GLN12      -0.1963
     28  CA         4.9800   84.0260    6.0750 C.3    12  GLN12       0.1733
     29  C          4.5870   83.2080    7.3210 C.2    12  GLN12       0.2617
     30  O          3.5020   83.4130    7.9050 O.2    12  GLN12      -0.2715
     31  CB         5.2070   85.5120    6.3880 C.3    12  GLN12       0.0408
     32  CG         6.0230   85.9260    7.6720 C.3    12  GLN12       0.0908
     33  CD         7.4740   85.3990    7.6680 C.2    12  GLN12       0.2608
     34  OE1        7.7160   84.2050    7.9230 O.2    12  GLN12      -0.2717
     35  NE2        8.4210   86.2810    7.3780 N.am   12  GLN12      -0.0878
     36  N          5.4400   82.2440    7.7030 N.am   13  GLY13      -0.1940
     37  CA         5.1340   81.3740    8.8330 C.3    13  GLY13       0.2014
     38  C          5.5550   81.9250   10.1880 C.2    13  GLY13       0.2638
     39  O          5.0920   81.4430   11.2290 O.2    13  GLY13      -0.2714
     40  N          6.3940   82.9580   10.1750 N.am   14  GLU14      -0.1977
     41  CA         7.1580   83.3640   11.3680 C.3    14  GLU14       0.1602
     42  C          7.0500   84.8370   11.6930 C.2    14  GLU14       0.2287
     43  O          6.7420   85.6470   10.8140 O.2    14  GLU14      -0.2864
     44  CB         8.6670   83.0060   11.1600 C.3    14  GLU14       0.0415
     45  CG         8.8570   81.4920   10.8510 C.3    14  GLU14       0.1163
     46  CD        10.3420   81.0840   10.6280 C.2    14  GLU14       0.3649
     47  OE1       11.2350   81.9120   10.8480 O.co2  14  GLU14      -0.2457
     48  OE2       10.5740   79.9270   10.2470 O.co2  14  GLU14      -0.2457
     49  N          8.4830   84.5450   -1.2350 N.3    24  PHE24      -0.1241
     50  CA         9.7630   84.2750   -0.5870 C.3    24  PHE24       0.1605
     51  C         10.8380   84.1470   -1.6610 C.2    24  PHE24       0.2264
     52  O         10.7180   83.3390   -2.5840 O.2    24  PHE24      -0.2867
     53  CB         9.7060   82.9950    0.2790 C.3    24  PHE24       0.0534
     54  CG         9.1990   83.2490    1.6800 C.ar   24  PHE24      -0.0203
     55  CD1       10.0780   83.3320    2.7630 C.ar   24  PHE24      -0.0042
     56  CD2        7.8490   83.4800    1.9090 C.ar   24  PHE24      -0.0042
     57  CE1        9.6090   83.6110    4.0530 C.ar   24  PHE24      -0.0003
     58  CE2        7.3710   83.7430    3.2080 C.ar   24  PHE24      -0.0003
     59  CZ         8.2410   83.7950    4.2820 C.ar   24  PHE24      -0.0000
     60  N         14.5730   83.1370   -1.8990 N.3    26  ARG26      -0.1245
     61  CA        15.6300   82.5070   -1.1010 C.3    26  ARG26       0.1563
     62  C         16.9550   82.5390   -1.8620 C.2    26  ARG26       0.2260
     63  O         17.1480   81.8040   -2.8170 O.2    26  ARG26      -0.2867
     64  CB        15.2810   81.0550   -0.7240 C.3    26  ARG26       0.0307
     65  CG        16.2930   80.4450    0.2830 C.3    26  ARG26       0.0489
     66  CD        15.9680   79.0180    0.7200 C.3    26  ARG26       0.2205
     67  NE        14.5920   78.8290    1.1940 N.pl3  26  ARG26      -0.0865
     68  CZ        14.0990   79.3210    2.3280 C.cat  26  ARG26       0.5346
     69  NH1       14.8660   80.0640    3.1480 N.pl3  26  ARG26       0.1354
     70  NH2       12.8220   79.0740    2.6430 N.pl3  26  ARG26       0.1354
     71  N         17.7370   74.8220    9.3620 N.3    49  ASP49      -0.1225
     72  CA        16.6680   73.9340    8.8620 C.3    49  ASP49       0.1805
     73  C         16.5150   74.0140    7.3380 C.2    49  ASP49       0.2598
     74  O         15.6030   73.4150    6.7780 O.2    49  ASP49      -0.2718
     75  CB        15.2800   74.2450    9.5640 C.3    49  ASP49       0.1424
     76  CG        14.7040   75.6470    9.2390 C.2    49  ASP49       0.3668
     77  OD1       15.3420   76.3650    8.4490 O.co2  49  ASP49      -0.2456
     78  OD2       13.5730   76.0410    9.7610 O.co2  49  ASP49      -0.2456
     79  N         17.4000   74.7390    6.6680 N.am   50  THR50      -0.1953
     80  CA        17.1310   75.1450    5.2970 C.3    50  THR50       0.1897
     81  C         18.1730   74.6610    4.2890 C.2    50  THR50       0.2313
     82  O         19.3440   74.5320    4.6210 O.2    50  THR50      -0.2863
     83  CB        17.0010   76.7190    5.2340 C.3    50  THR50       0.1794
     84  OG1       15.8320   77.1150    5.9700 O.3    50  THR50      -0.2208
     85  CG2       16.8580   77.2300    3.8000 C.3    50  THR50       0.0378
     86  N         15.2260   86.0770    1.8420 N.3    89  THR89      -0.1218
     87  CA        15.8090   85.2010    2.8250 C.3    89  THR89       0.1862
     88  C         16.9140   84.4020    2.1510 C.2    89  THR89       0.2287
     89  O         17.4740   84.8200    1.1120 O.2    89  THR89      -0.2866
     90  CB        14.6970   84.2770    3.4890 C.3    89  THR89       0.1770
     91  OG1       15.3170   83.4330    4.4810 O.3    89  THR89      -0.2211
     92  CG2       13.9110   83.4210    2.3960 C.3    89  THR89       0.0375
     93  N         14.9190   88.4600    6.1660 N.3   115  GLU115     -0.1245
     94  CA        15.2340   87.5710    7.2530 C.3   115  GLU115      0.1567
     95  C         16.7520   87.5390    7.2910 C.2   115  GLU115      0.2260
     96  O         17.3710   86.9780    6.3900 O.2   115  GLU115     -0.2867
     97  CB        14.7050   86.1510    6.9990 C.3   115  GLU115      0.0388
     98  CG        13.1910   86.0940    6.8090 C.3   115  GLU115      0.1160
     99  CD        12.4760   85.9270    8.1380 C.2   115  GLU115      0.3649
    100  OE1       11.2810   86.3240    8.2410 O.co2 115  GLU115     -0.2457
    101  OE2       13.0900   85.3630    9.0700 O.co2 115  GLU115     -0.2457
    102  N          4.1970   77.5860    9.5180 N.3   203  HIS203     -0.1241
    103  CA         4.0810   76.9030    8.2150 C.3   203  HIS203      0.1621
    104  C          4.3680   75.3840    8.3360 C.2   203  HIS203      0.2264
    105  O          3.8300   74.5670    7.5800 O.2   203  HIS203     -0.2867
    106  CB         5.0370   77.5390    7.1780 C.3   203  HIS203      0.0745
    107  CG         6.4840   77.5740    7.6030 C.ar  203  HIS203      0.0817
    108  ND1        6.9530   78.3830    8.6340 N.ar  203  HIS203     -0.2268
    109  CD2        7.5710   76.9300    7.1010 C.ar  203  HIS203      0.1154
    110  CE1        8.2630   78.2230    8.7500 C.ar  203  HIS203      0.1986
    111  NE2        8.6600   77.3310    7.8450 N.ar  203  HIS203     -0.2212
    112  N          4.6880   75.4440    2.3010 N.3   209  PRO209     -0.2116
    113  CA         6.0940   75.8860    2.1180 C.3   209  PRO209      0.1372
    114  C          6.4450   77.1390    2.9440 C.2   209  PRO209      0.2244
    115  O          7.6120   77.3810    3.3620 O.2   209  PRO209     -0.2868
    116  CB         6.1580   76.2020    0.6260 C.3   209  PRO209      0.0268
    117  CG         5.0440   75.3320   -0.0020 C.3   209  PRO209      0.0207
    118  CD         3.9460   75.3790    1.0330 C.3   209  PRO209      0.0892
@<TRIPOS>BOND
     1     1     2    1
     2     2     3    1
     3     2     5    1
     4     3     4    2
     5     5     6    1
     6    63    62    2
     7    52    51    2
     8     6     8   ar
     9     6     7   ar
    10    60    61    1
    11    62    61    1
    12     8    10   ar
    13    51    50    1
    14    49    50    1
    15    61    64    1
    16     7     9   ar
    17    64    65    1
    18    12    13    1
    19    50    53    1
    20    10    11   ar
    21   117   116    1
    22   117   118    1
    23    53    54    1
    24    65    66    1
    25    13    16    1
    26    13    14    1
    27     9    11   ar
    28   116   113    1
    29    66    67    1
    30    16    18    1
    31    16    17    1
    32   118   112    1
    33    89    88    2
    34    67    68    2
    35    15    14    2
    36    14    19   am
    37    54    56   ar
    38    54    55   ar
    39    86    87    1
    40    56    58   ar
    41   113   112    1
    42   113   114    1
    43    88    87    1
    44    68    70    1
    45    68    69    1
    46    92    90    1
    47    19    20    1
    48    55    57   ar
    49    87    90    1
    50   114   115    2
    51    58    59   ar
    52    26    24    1
    53    90    91    1
    54    85    83    1
    55    20    21    1
    56    20    23    1
    57    57    59   ar
    58    24    23    1
    59    24    25    1
    60    81    82    2
    61    81    80    1
    62    21    22    2
    63    21    27   am
    64    27    28    1
    65    83    80    1
    66    83    84    1
    67    80    79    1
    68    28    31    1
    69    28    29    1
    70    93    94    1
    71    31    32    1
    72    96    95    2
    73    79    73   am
    74    74    73    2
    75    98    97    1
    76    98    99    1
    77    97    94    1
    78   109   107   ar
    79   109   111   ar
    80   106   107    1
    81   106   103    1
    82    94    95    1
    83    29    36   am
    84    29    30    2
    85    73    72    1
    86    35    33   am
    87   105   104    2
    88   107   108   ar
    89    33    32    1
    90    33    34    2
    91    36    37    1
    92   111   110   ar
    93    99   100   ar
    94    99   101   ar
    95   103   104    1
    96   103   102    1
    97    77    76   ar
    98   108   110   ar
    99    37    38    1
   100    72    71    1
   101    72    75    1
   102    76    75    1
   103    76    78   ar
   104    40    38   am
   105    40    41    1
   106    38    39    2
   107    48    46   ar
   108    46    47   ar
   109    46    45    1
   110    43    42    2
   111    45    44    1
   112    44    41    1
   113    41    42    1
