@<TRIPOS>MOLECULE
tmp/4njmA00.pdb
 102 93 0 0 0
SMALL
GASTEIGER

@<TRIPOS>ATOM
      1  N         20.5940   10.5990   33.2100 N.3    11  LYS11      -0.1245
      2  CA        20.7040   10.9500   31.7930 C.3    11  LYS11       0.1561
      3  C         20.8800   12.4750   31.6820 C.2    11  LYS11       0.2260
      4  O         19.9010   13.2230   31.7600 O.2    11  LYS11      -0.2867
      5  CB        19.4440   10.4850   31.0520 C.3    11  LYS11       0.0271
      6  CG        19.4640   10.6830   29.5430 C.3    11  LYS11       0.0035
      7  CD        18.2550   10.0240   28.8810 C.3    11  LYS11       0.0206
      8  CE        16.9620   10.8000   29.0990 C.3    11  LYS11       0.1093
      9  NZ        15.7580    9.9930   28.7540 N.3    11  LYS11      -0.1314
     10  N         14.9210   14.4500   36.1780 N.3    57  ARG57      -0.1231
     11  CA        14.2880   14.0130   34.9440 C.3    57  ARG57       0.1694
     12  C         13.4820   12.7520   35.2250 C.2    57  ARG57       0.2592
     13  O         12.5960   12.7790   36.0850 O.2    57  ARG57      -0.2718
     14  CB        15.3110   13.8240   33.8260 C.3    57  ARG57       0.0321
     15  CG        15.6150   15.1220   33.1150 C.3    57  ARG57       0.0489
     16  CD        15.5600   14.9210   31.6090 C.3    57  ARG57       0.2205
     17  NE        16.8920   14.7360   31.1090 N.pl3  57  ARG57      -0.0865
     18  CZ        17.2400   14.5220   29.8470 C.cat  57  ARG57       0.5346
     19  NH1       16.3420   14.4170   28.8620 N.pl3  57  ARG57       0.1354
     20  NH2       18.5270   14.4070   29.5870 N.pl3  57  ARG57       0.1354
     21  N         13.7830   11.6520   34.5340 N.am   58  SER58      -0.1952
     22  CA        13.0150   10.4140   34.7270 C.3    58  SER58       0.1924
     23  C         13.4970    9.5570   35.8970 C.2    58  SER58       0.2314
     24  O         12.9160    8.4990   36.1600 O.2    58  SER58      -0.2863
     25  CB        13.0080    9.5650   33.4520 C.3    58  SER58       0.2116
     26  OG        12.2670   10.1970   32.4230 O.3    58  SER58      -0.2180
     27  N         10.2040   18.2260   38.3520 N.3    77  ARG77      -0.1231
     28  CA        10.5390   17.3510   37.2490 C.3    77  ARG77       0.1694
     29  C         10.6340   18.2290   36.0130 C.2    77  ARG77       0.2592
     30  O          9.6510   18.8440   35.6110 O.2    77  ARG77      -0.2718
     31  CB         9.4630   16.2870   37.0490 C.3    77  ARG77       0.0321
     32  CG         9.9180   15.0830   36.2420 C.3    77  ARG77       0.0489
     33  CD         9.8690   15.3150   34.7370 C.3    77  ARG77       0.2205
     34  NE         9.8080   14.0290   34.0440 N.pl3  77  ARG77      -0.0865
     35  CZ        10.7000   13.5830   33.1700 C.cat  77  ARG77       0.5346
     36  NH1       11.7290   14.3380   32.7990 N.pl3  77  ARG77       0.1354
     37  NH2       10.5370   12.3750   32.6410 N.pl3  77  ARG77       0.1354
     38  N         11.8250   18.2980   35.4290 N.am   78  ALA78      -0.1966
     39  CA        12.0200   19.0010   34.1680 C.3    78  ALA78       0.1728
     40  C         11.4860   18.0920   33.0730 C.2    78  ALA78       0.2617
     41  O         12.1760   17.1750   32.6250 O.2    78  ALA78      -0.2715
     42  CB        13.4920   19.2970   33.9570 C.3    78  ALA78       0.0334
     43  N         10.2420   18.3370   32.6720 N.am   79  GLY79      -0.1940
     44  CA         9.5280   17.4540   31.7550 C.3    79  GLY79       0.2014
     45  C          8.0710   17.2860   32.1420 C.2    79  GLY79       0.2639
     46  O          7.5240   18.0940   32.8950 O.2    79  GLY79      -0.2714
     47  N          7.4390   16.2360   31.6280 N.am   80  ALA80      -0.1963
     48  CA         5.9900   16.0910   31.7280 C.3    80  ALA80       0.1728
     49  C          5.5740   15.0630   32.7770 C.2    80  ALA80       0.2616
     50  O          4.8470   15.3960   33.7150 O.2    80  ALA80      -0.2715
     51  CB         5.3940   15.7410   30.3710 C.3    80  ALA80       0.0334
     52  N          6.0340   13.8260   32.6130 N.am   81  GLY81      -0.1955
     53  CA         5.6300   12.7220   33.4950 C.3    81  GLY81       0.1869
     54  C          6.3230   12.7230   34.8440 C.2    81  GLY81       0.2309
     55  O          7.4740   13.1430   34.9650 O.2    81  GLY81      -0.2863
     56  N          8.9180   19.9050   26.7090 N.3   104  ASN104     -0.1240
     57  CA         9.4630   18.8130   25.9140 C.3   104  ASN104      0.1653
     58  C          8.6760   18.4830   24.6710 C.2   104  ASN104      0.2266
     59  O          9.0480   17.5580   23.9420 O.2   104  ASN104     -0.2867
     60  CB         9.4770   17.5340   26.7680 C.3   104  ASN104      0.1155
     61  CG        10.6600   17.4690   27.6890 C.2   104  ASN104      0.2627
     62  OD1       10.6660   16.6960   28.6520 O.2   104  ASN104     -0.2716
     63  ND2       11.6760   18.2740   27.4070 N.am  104  ASN104     -0.0877
     64  N          9.4270   15.3130   21.4840 N.3   108  VAL108     -0.1245
     65  CA         8.6160   14.1000   21.5030 C.3   108  VAL108      0.1561
     66  C          7.7550   13.9910   20.2490 C.2   108  VAL108      0.2260
     67  O          7.7000   12.9230   19.6340 O.2   108  VAL108     -0.2867
     68  CB         7.7740   14.0220   22.8010 C.3   108  VAL108      0.0252
     69  CG1        6.9650   12.7330   22.8550 C.3   108  VAL108      0.0019
     70  CG2        8.6940   14.0900   24.0110 C.3   108  VAL108      0.0019
     71  N          5.3370    6.7710   22.3130 N.3   217  THR217     -0.1218
     72  CA         6.3620    7.6680   22.8470 C.3   217  THR217      0.1862
     73  C          6.0190    8.0890   24.2750 C.2   217  THR217      0.2287
     74  O          6.5940    9.0460   24.7960 O.2   217  THR217     -0.2866
     75  CB         6.5790    8.9190   21.9650 C.3   217  THR217      0.1770
     76  OG1        5.3510    9.6410   21.8350 O.3   217  THR217     -0.2211
     77  CG2        7.0960    8.5230   20.5880 C.3   217  THR217      0.0375
     78  N          4.8740    5.8790   27.8470 N.3   219  ARG219     -0.1245
     79  CA         5.5120    5.1050   28.9210 C.3   219  ARG219      0.1563
     80  C          5.3690    3.6050   28.6180 C.2   219  ARG219      0.2260
     81  O          4.3620    3.1790   28.0460 O.2   219  ARG219     -0.2867
     82  CB         4.8680    5.4300   30.2780 C.3   219  ARG219      0.0307
     83  CG         5.1050    6.8450   30.8130 C.3   219  ARG219      0.0489
     84  CD         6.5530    7.0390   31.2500 C.3   219  ARG219      0.2205
     85  NE         6.8510    8.3560   31.8240 N.pl3 219  ARG219     -0.0865
     86  CZ         7.2710    9.4150   31.1250 C.cat 219  ARG219      0.5346
     87  NH1        7.4210    9.3380   29.8060 N.pl3 219  ARG219      0.1354
     88  NH2        7.5420   10.5560   31.7470 N.pl3 219  ARG219      0.1354
     89  N         15.1210    6.1900   26.1440 N.3   265  LYS265     -0.1245
     90  CA        14.0490    7.1360   25.8100 C.3   265  LYS265      0.1561
     91  C         14.6600    8.4500   25.3100 C.2   265  LYS265      0.2260
     92  O         15.2040    9.2260   26.0930 O.2   265  LYS265     -0.2867
     93  CB        13.1370    7.3690   27.0230 C.3   265  LYS265      0.0271
     94  CG        11.9060    8.2330   26.7620 C.3   265  LYS265      0.0035
     95  CD        11.0130    8.3290   27.9990 C.3   265  LYS265      0.0206
     96  CE        11.7110    9.0630   29.1360 C.3   265  LYS265      0.1093
     97  NZ        10.7830    9.4150   30.2500 N.3   265  LYS265     -0.1314
     98  N         12.8950   13.3700   24.4610 N.3   268  ALA268     -0.1245
     99  CA        13.3100   14.6760   24.9610 C.3   268  ALA268      0.1562
    100  C         14.8180   14.9100   24.8780 C.2   268  ALA268      0.2260
    101  O         15.3250   15.9090   25.3940 O.2   268  ALA268     -0.2867
    102  CB        12.8050   14.8710   26.3850 C.3   268  ALA268      0.0290
@<TRIPOS>BOND
     1    67    66    2
     2    66    65    1
     3    77    75    1
     4    64    65    1
     5    65    68    1
     6    76    75    1
     7    75    72    1
     8    71    72    1
     9    68    69    1
    10    68    70    1
    11    72    73    1
    12    59    58    2
    13    73    74    2
    14    98    99    1
    15    58    57    1
    16   100    99    1
    17   100   101    2
    18    99   102    1
    19    91    90    1
    20    91    92    2
    21    90    89    1
    22    90    93    1
    23    57    56    1
    24    57    60    1
    25    94    93    1
    26    94    95    1
    27    60    61    1
    28    63    61   am
    29    61    62    2
    30    78    79    1
    31    95    96    1
    32    81    80    2
    33    80    79    1
    34     9     8    1
    35    19    18    1
    36     7     8    1
    37     7     6    1
    38    79    82    1
    39    96    97    1
    40     6     5    1
    41    20    18    1
    42    87    86    1
    43    18    17    2
    44    82    83    1
    45    51    48    1
    46    83    84    1
    47     5     2    1
    48    17    16    1
    49    86    88    1
    50    86    85    2
    51    84    85    1
    52    16    15    1
    53    47    48    1
    54    47    45   am
    55     3     4    2
    56     3     2    1
    57    48    49    1
    58    44    45    1
    59    44    43    1
    60     2     1    1
    61    45    46    2
    62    26    25    1
    63    52    49   am
    64    52    53    1
    65    41    40    2
    66    37    35    1
    67    43    40   am
    68    49    50    2
    69    36    35    1
    70    40    39    1
    71    15    14    1
    72    35    34    2
    73    25    22    1
    74    53    54    1
    75    14    11    1
    76    42    39    1
    77    34    33    1
    78    39    38    1
    79    21    22    1
    80    21    12   am
    81    22    23    1
    82    33    32    1
    83    54    55    2
    84    11    12    1
    85    11    10    1
    86    12    13    2
    87    38    29   am
    88    30    29    2
    89    23    24    2
    90    29    28    1
    91    32    31    1
    92    31    28    1
    93    28    27    1
