@<TRIPOS>MOLECULE
tmp/4nk2B00.pdb
 239 233 0 0 0
SMALL
GASTEIGER

@<TRIPOS>ATOM
      1  N         59.1530   54.7410   12.9880 N.3    50  ILE50      -0.1245
      2  CA        58.0190   55.4380   13.6120 C.3    50  ILE50       0.1561
      3  C         58.4490   56.5450   14.5790 C.2    50  ILE50       0.2260
      4  O         57.6520   57.0190   15.3960 O.2    50  ILE50      -0.2867
      5  CB        56.9830   54.4790   14.2790 C.3    50  ILE50       0.0252
      6  CG1       57.6070   53.6970   15.4480 C.3    50  ILE50       0.0019
      7  CG2       56.3570   53.5500   13.2320 C.3    50  ILE50       0.0019
      8  CD1       56.6250   52.7860   16.1700 C.3    50  ILE50       0.0001
      9  N         56.2480   59.6190   15.6810 N.3    53  LEU53      -0.1231
     10  CA        55.0850   59.5580   16.5500 C.3    53  LEU53       0.1693
     11  C         55.4160   60.1050   17.9130 C.2    53  LEU53       0.2592
     12  O         54.5420   60.3720   18.7140 O.2    53  LEU53      -0.2718
     13  CB        54.6070   58.1260   16.7200 C.3    53  LEU53       0.0284
     14  CG        54.0830   57.3890   15.5020 C.3    53  LEU53       0.0019
     15  CD1       53.5690   56.0490   15.9020 C.3    53  LEU53       0.0001
     16  CD2       53.0120   58.1830   14.8230 C.3    53  LEU53       0.0001
     17  N         56.6990   60.2460   18.1770 N.am   54  PHE54      -0.1963
     18  CA        57.1640   60.5050   19.5300 C.3    54  PHE54       0.1756
     19  C         57.6400   61.9270   19.7290 C.2    54  PHE54       0.2461
     20  O         58.5250   62.4050   19.0150 O.2    54  PHE54      -0.2730
     21  CB        58.2390   59.4880   19.9190 C.3    54  PHE54       0.0574
     22  CG        57.7310   58.0830   19.9290 C.ar   54  PHE54      -0.0200
     23  CD1       57.0960   57.5780   21.0520 C.ar   54  PHE54      -0.0042
     24  CD2       57.8410   57.2850   18.8010 C.ar   54  PHE54      -0.0042
     25  CE1       56.5970   56.2900   21.0620 C.ar   54  PHE54      -0.0003
     26  CE2       57.3450   55.9970   18.7980 C.ar   54  PHE54      -0.0003
     27  CZ        56.7190   55.4970   19.9300 C.ar   54  PHE54      -0.0000
     28  N         57.0490   62.6040   20.7190 N.am   55  PRO55      -0.2727
     29  CA        57.4400   63.9820   20.9990 C.3    55  PRO55       0.1402
     30  C         58.9590   64.0500   21.0170 C.2    55  PRO55       0.2269
     31  O         59.5820   63.4340   21.8850 O.2    55  PRO55      -0.2865
     32  CB        56.8800   64.2250   22.4040 C.3    55  PRO55       0.0296
     33  CG        55.7500   63.2420   22.5430 C.3    55  PRO55       0.0237
     34  CD        56.1930   62.0340   21.7750 C.3    55  PRO55       0.0939
     35  N         58.0900   61.2770   29.4470 N.3    64  LEU64      -0.1245
     36  CA        57.4150   60.1390   28.8500 C.3    64  LEU64       0.1561
     37  C         58.0900   58.8400   29.2530 C.2    64  LEU64       0.2260
     38  O         57.4420   57.9140   29.6840 O.2    64  LEU64      -0.2867
     39  CB        57.3920   60.2670   27.3310 C.3    64  LEU64       0.0270
     40  CG        56.3010   59.5130   26.5730 C.3    64  LEU64       0.0019
     41  CD1       56.8620   58.7340   25.4120 C.3    64  LEU64       0.0001
     42  CD2       55.5020   58.6290   27.4900 C.3    64  LEU64       0.0001
     43  N         57.3750   57.9470   32.8630 N.3    67  ARG67      -0.1231
     44  CA        56.0210   57.4320   32.9970 C.3    67  ARG67       0.1694
     45  C         55.8990   55.9810   32.5620 C.2    67  ARG67       0.2592
     46  O         55.3390   55.1730   33.2700 O.2    67  ARG67      -0.2718
     47  CB        55.0540   58.2760   32.1700 C.3    67  ARG67       0.0321
     48  CG        54.3520   59.3600   32.9310 C.3    67  ARG67       0.0489
     49  CD        53.6340   60.2910   31.9930 C.3    67  ARG67       0.2205
     50  NE        53.7010   61.6700   32.4460 N.pl3  67  ARG67      -0.0865
     51  CZ        53.3840   62.7220   31.7020 C.cat  67  ARG67       0.5346
     52  NH1       52.9800   62.5590   30.4550 N.pl3  67  ARG67       0.1354
     53  NH2       53.4790   63.9420   32.2130 N.pl3  67  ARG67       0.1354
     54  N         56.4080   55.6650   31.3830 N.am   68  SER68      -0.1952
     55  CA        56.3700   54.3030   30.8590 C.3    68  SER68       0.1924
     56  C         57.1050   53.3660   31.8120 C.2    68  SER68       0.2314
     57  O         56.6380   52.2630   32.1080 O.2    68  SER68      -0.2863
     58  CB        57.0180   54.2390   29.4710 C.3    68  SER68       0.2116
     59  OG        56.3240   55.0550   28.5440 O.3    68  SER68      -0.2180
     60  N         55.1520   52.5880   34.7890 N.3    71  PHE71      -0.1227
     61  CA        54.0920   51.6500   34.4240 C.3    71  PHE71       0.1736
     62  C         54.6250   50.2180   34.3620 C.2    71  PHE71       0.2595
     63  O         54.0310   49.3090   34.9450 O.2    71  PHE71      -0.2718
     64  CB        53.4590   52.0430   33.0830 C.3    71  PHE71       0.0547
     65  CG        52.2520   51.2320   32.7220 C.ar   71  PHE71      -0.0202
     66  CD1       52.3100   50.2910   31.7020 C.ar   71  PHE71      -0.0042
     67  CD2       51.0550   51.4090   33.4030 C.ar   71  PHE71      -0.0042
     68  CE1       51.1980   49.5440   31.3630 C.ar   71  PHE71      -0.0003
     69  CE2       49.9350   50.6580   33.0750 C.ar   71  PHE71      -0.0003
     70  CZ        50.0060   49.7280   32.0510 C.ar   71  PHE71      -0.0000
     71  N         55.7430   50.0220   33.6590 N.am   72  VAL72      -0.1980
     72  CA        56.3380   48.6860   33.5210 C.3    72  VAL72       0.1595
     73  C         56.7900   48.1060   34.8740 C.2    72  VAL72       0.2287
     74  O         56.5130   46.9410   35.1850 O.2    72  VAL72      -0.2864
     75  CB        57.4920   48.6800   32.4970 C.3    72  VAL72       0.0276
     76  CG1       58.3080   47.3880   32.5890 C.3    72  VAL72       0.0022
     77  CG2       56.9400   48.8630   31.0830 C.3    72  VAL72       0.0022
     78  N         53.2100   54.1420   39.0900 N.3    82  TYR82      -0.1241
     79  CA        52.3400   54.7130   38.0640 C.3    82  TYR82       0.1605
     80  C         50.9960   55.1830   38.6110 C.2    82  TYR82       0.2264
     81  O         50.6410   56.3540   38.4570 O.2    82  TYR82      -0.2867
     82  CB        52.1170   53.7520   36.8930 C.3    82  TYR82       0.0534
     83  CG        51.3780   54.4180   35.7540 C.ar   82  TYR82      -0.0201
     84  CD1       50.0100   54.2500   35.5940 C.ar   82  TYR82      -0.0009
     85  CD2       52.0470   55.2390   34.8560 C.ar   82  TYR82      -0.0009
     86  CE1       49.3280   54.8690   34.5600 C.ar   82  TYR82       0.0417
     87  CE2       51.3730   55.8620   33.8170 C.ar   82  TYR82       0.0417
     88  CZ        50.0150   55.6720   33.6770 C.ar   82  TYR82       0.1957
     89  OH        49.3370   56.2910   32.6510 O.3    82  TYR82      -0.2866
     90  N         49.8180   58.8040   38.0460 N.3    86  ARG86      -0.1245
     91  CA        48.9860   59.0440   36.8680 C.3    86  ARG86       0.1563
     92  C         47.5990   58.4780   37.0800 C.2    86  ARG86       0.2260
     93  O         46.6550   58.8420   36.3740 O.2    86  ARG86      -0.2867
     94  CB        49.6180   58.4350   35.6110 C.3    86  ARG86       0.0307
     95  CG        50.8990   59.1300   35.1660 C.3    86  ARG86       0.0489
     96  CD        50.6300   60.5640   34.7330 C.3    86  ARG86       0.2205
     97  NE        50.2190   60.6570   33.3320 N.pl3  86  ARG86      -0.0865
     98  CZ        49.8840   61.7920   32.7240 C.cat  86  ARG86       0.5346
     99  NH1       49.8970   62.9370   33.3930 N.pl3  86  ARG86       0.1354
    100  NH2       49.5290   61.7810   31.4480 N.pl3  86  ARG86       0.1354
    101  N         44.9630   52.5880   29.1150 N.3    91  MET91      -0.1245
    102  CA        46.0030   52.7400   28.0990 C.3    91  MET91       0.1570
    103  C         45.4850   52.9840   26.6690 C.2    91  MET91       0.2261
    104  O         45.9290   53.9210   26.0030 O.2    91  MET91      -0.2867
    105  CB        46.9860   51.5640   28.1520 C.3    91  MET91       0.0387
    106  CG        48.0310   51.7040   29.2440 C.3    91  MET91       0.0595
    107  SD        49.0410   53.1720   28.9880 S.3    91  MET91      -0.1393
    108  CE        49.0940   53.7880   30.6820 C.3    91  MET91       0.0692
    109  N         44.5260   56.4850   26.4250 N.3    94  ARG94      -0.1231
    110  CA        45.6710   57.3720   26.4850 C.3    94  ARG94       0.1694
    111  C         46.3630   57.4350   25.1390 C.2    94  ARG94       0.2592
    112  O         47.0260   58.4250   24.8240 O.2    94  ARG94      -0.2718
    113  CB        46.6570   56.9240   27.5770 C.3    94  ARG94       0.0321
    114  CG        46.1200   57.0990   28.9910 C.3    94  ARG94       0.0489
    115  CD        47.1990   56.9010   30.0520 C.3    94  ARG94       0.2205
    116  NE        46.6340   56.9590   31.4000 N.pl3  94  ARG94      -0.0865
    117  CZ        46.6400   58.0450   32.1710 C.cat  94  ARG94       0.5346
    118  NH1       47.1910   59.1700   31.7350 N.pl3  94  ARG94       0.1354
    119  NH2       46.1010   58.0020   33.3830 N.pl3  94  ARG94       0.1354
    120  N         46.2200   56.3850   24.3330 N.am   95  HIS95      -0.1976
    121  CA        46.8890   56.3680   23.0270 C.3    95  HIS95       0.1656
    122  C         46.0790   56.9480   21.8450 C.2    95  HIS95       0.2291
    123  O         46.6030   57.0710   20.7230 O.2    95  HIS95      -0.2864
    124  CB        47.4000   54.9550   22.7020 C.3    95  HIS95       0.0771
    125  CG        48.5750   54.5330   23.5340 C.ar   95  HIS95       0.0820
    126  ND1       48.4460   54.1230   24.8470 N.ar   95  HIS95      -0.2267
    127  CD2       49.8980   54.4680   23.2480 C.ar   95  HIS95       0.1154
    128  CE1       49.6430   53.8160   25.3250 C.ar   95  HIS95       0.1986
    129  NE2       50.5360   54.0160   24.3760 N.ar   95  HIS95      -0.2212
    130  N         45.3190   59.9160   21.1060 N.3    97  SER97      -0.1202
    131  CA        45.9020   61.1390   20.5500 C.3    97  SER97       0.2020
    132  C         47.0480   60.8770   19.5600 C.2    97  SER97       0.2618
    133  O         47.5130   61.7930   18.8800 O.2    97  SER97      -0.2717
    134  CB        46.3620   62.0730   21.6750 C.3    97  SER97       0.2103
    135  OG        46.6090   61.3460   22.8670 O.3    97  SER97      -0.2182
    136  N         47.4920   59.6290   19.4640 N.am   98  VAL98      -0.1979
    137  CA        48.5390   59.2860   18.5070 C.3    98  VAL98       0.1595
    138  C         48.0140   58.2580   17.5160 C.2    98  VAL98       0.2287
    139  O         47.3120   57.3190   17.9050 O.2    98  VAL98      -0.2864
    140  CB        49.8000   58.7430   19.2230 C.3    98  VAL98       0.0276
    141  CG1       49.4080   57.7320   20.2670 C.3    98  VAL98       0.0022
    142  CG2       50.7570   58.1270   18.2220 C.3    98  VAL98       0.0022
    143  N         48.0350   55.1430   15.6090 N.3   100  ILE100     -0.1245
    144  CA        48.7290   53.8580   15.7130 C.3   100  ILE100      0.1561
    145  C         48.0570   52.8170   14.8170 C.2   100  ILE100      0.2260
    146  O         46.9730   52.3220   15.1470 O.2   100  ILE100     -0.2867
    147  CB        48.7120   53.3290   17.1650 C.3   100  ILE100      0.0252
    148  CG1       49.4450   54.2850   18.1080 C.3   100  ILE100      0.0019
    149  CG2       49.3200   51.9360   17.2380 C.3   100  ILE100      0.0019
    150  CD1       49.2770   53.9200   19.5890 C.3   100  ILE100      0.0001
    151  N         52.7270   50.1510   12.7970 N.3   104  ALA104     -0.1231
    152  CA        53.2670   50.8450   13.9660 C.3   104  ALA104      0.1694
    153  C         53.4530   49.9040   15.1610 C.2   104  ALA104      0.2591
    154  O         54.5000   49.9160   15.8150 O.2   104  ALA104     -0.2718
    155  CB        52.3800   52.0060   14.3520 C.3   104  ALA104      0.0304
    156  N         52.4270   49.1150   15.4730 N.am  105  ARG105     -0.1980
    157  CA        52.5560   48.1400   16.5560 C.3   105  ARG105      0.1597
    158  C         53.6810   47.1450   16.2700 C.2   105  ARG105      0.2287
    159  O         54.4400   46.8130   17.1730 O.2   105  ARG105     -0.2864
    160  CB        51.2410   47.3920   16.8160 C.3   105  ARG105      0.0334
    161  CG        51.4480   46.0050   17.4660 C.3   105  ARG105      0.0492
    162  CD        50.1580   45.4120   18.0360 C.3   105  ARG105      0.2205
    163  NE        50.3450   44.0550   18.5730 N.pl3 105  ARG105     -0.0865
    164  CZ        50.4230   42.9570   17.8180 C.cat 105  ARG105      0.5346
    165  NH1       50.3530   43.0440   16.4880 N.pl3 105  ARG105      0.1354
    166  NH2       50.5820   41.7660   18.3830 N.pl3 105  ARG105      0.1354
    167  N         56.9550   48.7750   16.9730 N.3   108  TRP108     -0.1241
    168  CA        57.0530   49.0010   18.4120 C.3   108  TRP108      0.1605
    169  C         57.4590   47.6910   19.0730 C.2   108  TRP108      0.2264
    170  O         58.3060   47.6800   19.9670 O.2   108  TRP108     -0.2867
    171  CB        55.6870   49.4540   18.9350 C.3   108  TRP108      0.0550
    172  CG        55.6160   49.8660   20.3840 C.ar  108  TRP108      0.0003
    173  CD1       55.7520   51.1300   20.8900 C.ar  108  TRP108      0.0946
    174  CD2       55.3340   49.0150   21.5040 C.ar  108  TRP108      0.0152
    175  NE1       55.5840   51.1130   22.2600 N.ar  108  TRP108     -0.2442
    176  CE2       55.3180   49.8270   22.6580 C.ar  108  TRP108      0.0810
    177  CE3       55.0810   47.6420   21.6380 C.ar  108  TRP108      0.0012
    178  CZ2       55.0750   49.3090   23.9340 C.ar  108  TRP108      0.0191
    179  CZ3       54.8270   47.1310   22.9020 C.ar  108  TRP108      0.0001
    180  CH2       54.8360   47.9630   24.0360 C.ar  108  TRP108      0.0015
    181  N         61.1100   46.5390   20.9030 N.3   112  TYR112     -0.1241
    182  CA        61.0960   45.9700   22.2490 C.3   112  TYR112      0.1605
    183  C         61.8450   44.6450   22.2950 C.2   112  TYR112      0.2264
    184  O         62.5440   44.3620   23.2770 O.2   112  TYR112     -0.2867
    185  CB        59.6550   45.7820   22.7400 C.3   112  TYR112      0.0534
    186  CG        59.3820   46.3920   24.1000 C.ar  112  TYR112     -0.0201
    187  CD1       58.1940   47.0650   24.3580 C.ar  112  TYR112     -0.0009
    188  CD2       60.3100   46.2880   25.1260 C.ar  112  TYR112     -0.0009
    189  CE1       57.9440   47.6240   25.5940 C.ar  112  TYR112      0.0417
    190  CE2       60.0680   46.8510   26.3700 C.ar  112  TYR112      0.0417
    191  CZ        58.8870   47.5110   26.5940 C.ar  112  TYR112      0.1957
    192  OH        58.6440   48.0590   27.8320 O.3   112  TYR112     -0.2866
    193  N         52.8650   39.5050   27.4420 N.3   132  TRP132     -0.1227
    194  CA        52.1140   40.6600   27.9290 C.3   132  TRP132      0.1737
    195  C         52.0770   41.7870   26.9060 C.2   132  TRP132      0.2595
    196  O         51.0000   42.2370   26.5130 O.2   132  TRP132     -0.2718
    197  CB        52.6870   41.1850   29.2450 C.3   132  TRP132      0.0564
    198  CG        52.0320   42.4610   29.7290 C.ar  132  TRP132      0.0003
    199  CD1       50.6810   42.7100   29.8420 C.ar  132  TRP132      0.0946
    200  CD2       52.6960   43.6560   30.1760 C.ar  132  TRP132      0.0152
    201  NE1       50.4810   43.9840   30.3270 N.ar  132  TRP132     -0.2442
    202  CE2       51.6990   44.5810   30.5430 C.ar  132  TRP132      0.0810
    203  CE3       54.0390   44.0240   30.3080 C.ar  132  TRP132      0.0012
    204  CZ2       52.0020   45.8590   31.0290 C.ar  132  TRP132      0.0191
    205  CZ3       54.3420   45.2930   30.7930 C.ar  132  TRP132      0.0001
    206  CH2       53.3250   46.1960   31.1480 C.ar  132  TRP132      0.0015
    207  N         53.2410   42.2620   26.4770 N.am  133  ILE133     -0.1980
    208  CA        53.2450   43.3820   25.5420 C.3   133  ILE133      0.1595
    209  C         52.7310   42.9880   24.1540 C.2   133  ILE133      0.2287
    210  O         52.1530   43.8170   23.4450 O.2   133  ILE133     -0.2864
    211  CB        54.6300   44.0640   25.4410 C.3   133  ILE133      0.0276
    212  CG1       55.6850   43.0750   24.9400 C.3   133  ILE133      0.0022
    213  CG2       55.0070   44.6840   26.7880 C.3   133  ILE133      0.0022
    214  CD1       57.0780   43.7090   24.7280 C.3   133  ILE133      0.0001
    215  N         48.8920   42.9970   24.7060 N.3   136  PHE136     -0.1227
    216  CA        48.3890   44.2780   25.1830 C.3   136  PHE136      0.1736
    217  C         48.5100   45.3460   24.0900 C.2   136  PHE136      0.2596
    218  O         47.6090   46.1560   23.9160 O.2   136  PHE136     -0.2718
    219  CB        49.1590   44.6920   26.4380 C.3   136  PHE136      0.0547
    220  CG        48.5040   45.7760   27.2420 C.ar  136  PHE136     -0.0202
    221  CD1       47.1230   45.8940   27.3040 C.ar  136  PHE136     -0.0042
    222  CD2       49.2800   46.6750   27.9580 C.ar  136  PHE136     -0.0042
    223  CE1       46.5330   46.8950   28.0590 C.ar  136  PHE136     -0.0003
    224  CE2       48.6920   47.6790   28.7180 C.ar  136  PHE136     -0.0003
    225  CZ        47.3200   47.7870   28.7640 C.ar  136  PHE136     -0.0000
    226  N         49.6300   45.3450   23.3640 N.am  137  SER137     -0.1952
    227  CA        49.8560   46.3200   22.2960 C.3   137  SER137      0.1924
    228  C         48.7420   46.3210   21.2350 C.2   137  SER137      0.2314
    229  O         48.5240   47.3280   20.5700 O.2   137  SER137     -0.2863
    230  CB        51.2110   46.0820   21.6200 C.3   137  SER137      0.2116
    231  OG        51.2760   44.7780   21.0480 O.3   137  SER137     -0.2180
    232  N         46.1240   49.0630   21.5760 N.3   140  MET140     -0.1245
    233  CA        46.4820   50.4490   21.2910 C.3   140  MET140      0.1570
    234  C         46.2180   50.7960   19.8240 C.2   140  MET140      0.2261
    235  O         46.2570   51.9670   19.4410 O.2   140  MET140     -0.2867
    236  CB        47.9640   50.6980   21.6220 C.3   140  MET140      0.0387
    237  CG        48.3900   50.1330   22.9720 C.3   140  MET140      0.0595
    238  SD        47.3860   50.7850   24.3160 S.3   140  MET140     -0.1393
    239  CE        47.2690   49.3230   25.3570 C.3   140  MET140      0.0692
@<TRIPOS>BOND
     1   151   152    1
     2     1     2    1
     3     7     5    1
     4     2     5    1
     5     2     3    1
     6   152   155    1
     7   152   153    1
     8     5     6    1
     9     3     4    2
    10   145   146    2
    11   145   144    1
    12    16    14    1
    13   153   156   am
    14   153   154    2
    15     6     8    1
    16   156   157    1
    17    14    15    1
    18    14    13    1
    19   143   144    1
    20     9    10    1
    21   144   147    1
    22   158   157    1
    23   158   159    2
    24   165   164    1
    25    10    13    1
    26    10    11    1
    27   157   160    1
    28   160   161    1
    29   167   168    1
    30   147   149    1
    31   147   148    1
    32   161   162    1
    33   138   139    2
    34   138   137    1
    35   164   166    1
    36   164   163    2
    37    11    17   am
    38    11    12    2
    39   162   163    1
    40   148   150    1
    41    17    18    1
    42   142   140    1
    43   168   171    1
    44   168   169    1
    45   137   140    1
    46   137   136    1
    47    26    24   ar
    48    26    27   ar
    49    24    22   ar
    50   133   132    2
    51   171   172    1
    52    20    19    2
    53   169   170    2
    54   140   141    1
    55   235   234    2
    56   136   132   am
    57    18    19    1
    58    18    21    1
    59   132   131    1
    60    19    28   am
    61   234   233    1
    62    21    22    1
    63    22    23   ar
    64    27    25   ar
    65   172   173   ar
    66   172   174   ar
    67   131   130    1
    68   131   134    1
    69   229   228    2
    70    28    29    1
    71    28    34    1
    72   123   122    2
    73   173   175   ar
    74   181   182    1
    75    29    30    1
    76    29    32    1
    77    30    31    2
    78   231   230    1
    79    23    25   ar
    80   228   227    1
    81   233   232    1
    82   233   236    1
    83   174   177   ar
    84   174   176   ar
    85   230   227    1
    86   236   237    1
    87   177   179   ar
    88   134   135    1
    89    34    33    1
    90   122   121    1
    91   182   183    1
    92   182   185    1
    93   175   176   ar
    94   183   184    2
    95   227   226    1
    96    32    33    1
    97   176   178   ar
    98   124   121    1
    99   124   125    1
   100   185   186    1
   101   179   180   ar
   102   237   238    1
   103   121   120    1
   104   127   125   ar
   105   127   129   ar
   106   226   217   am
   107   210   209    2
   108   125   126   ar
   109   218   217    2
   110   178   180   ar
   111   217   216    1
   112   186   187   ar
   113   186   188   ar
   114   209   208    1
   115   238   239    1
   116   120   111   am
   117   187   189   ar
   118   129   128   ar
   119   215   216    1
   120   214   212    1
   121   112   111    2
   122   126   128   ar
   123   212   211    1
   124   188   190   ar
   125   111   110    1
   126   216   219    1
   127    41    40    1
   128   211   208    1
   129   211   213    1
   130   208   207    1
   131   189   191   ar
   132   104   103    2
   133   190   191   ar
   134   109   110    1
   135   219   220    1
   136   207   195   am
   137   110   113    1
   138   196   195    2
   139    40    39    1
   140    40    42    1
   141   191   192    1
   142   103   102    1
   143   195   194    1
   144   220   221   ar
   145   220   222   ar
   146   221   223   ar
   147    39    36    1
   148   193   194    1
   149   113   114    1
   150   194   197    1
   151   222   224   ar
   152   223   225   ar
   153   102   105    1
   154   102   101    1
   155   105   106    1
   156    59    58    1
   157   224   225   ar
   158    36    37    1
   159    36    35    1
   160   107   106    1
   161   107   108    1
   162   114   115    1
   163   197   198    1
   164    37    38    2
   165    58    55    1
   166   198   199   ar
   167   198   200   ar
   168   199   201   ar
   169   115   116    1
   170   200   203   ar
   171   200   202   ar
   172   203   205   ar
   173   201   202   ar
   174    52    51    1
   175   202   204   ar
   176   205   206   ar
   177    55    54    1
   178    55    56    1
   179   204   206   ar
   180    77    75    1
   181    68    66   ar
   182    68    70   ar
   183    54    45   am
   184   116   117    2
   185   100    98    1
   186    51    53    1
   187    51    50    2
   188    66    65   ar
   189   118   117    1
   190    56    57    2
   191    49    50    1
   192    49    48    1
   193    70    69   ar
   194    47    48    1
   195    47    44    1
   196   117   119    1
   197    75    76    1
   198    75    72    1
   199    45    44    1
   200    45    46    2
   201    89    88    1
   202    65    64    1
   203    65    67   ar
   204    98    97    2
   205    98    99    1
   206    43    44    1
   207    69    67   ar
   208    64    61    1
   209    97    96    1
   210    72    71    1
   211    72    73    1
   212    71    62   am
   213    88    87   ar
   214    88    86   ar
   215    87    85   ar
   216    62    61    1
   217    62    63    2
   218    61    60    1
   219    86    84   ar
   220    96    95    1
   221    85    83   ar
   222    73    74    2
   223    95    94    1
   224    84    83   ar
   225    94    91    1
   226    83    82    1
   227    93    92    2
   228    91    92    1
   229    91    90    1
   230    82    79    1
   231    79    80    1
   232    79    78    1
   233    81    80    2
