@<TRIPOS>MOLECULE
tmp/4nk3A00.pdb
 154 145 0 0 0
SMALL
GASTEIGER

@<TRIPOS>ATOM
      1  N          9.1300    8.4800   13.8210 N.3    61  GLY61      -0.1210
      2  CA         8.7090    9.1790   15.0430 C.3    61  GLY61       0.1956
      3  C          8.3330    8.2000   16.1410 C.2    61  GLY61       0.2612
      4  O          9.0820    7.2710   16.4140 O.2    61  GLY61      -0.2717
      5  N          7.1480    8.3910   16.7230 N.am   62  SER62      -0.1952
      6  CA         6.6920    7.6470   17.9100 C.3    62  SER62       0.1924
      7  C          6.5040    6.1490   17.7150 C.2    62  SER62       0.2314
      8  O          6.3590    5.4240   18.6970 O.2    62  SER62      -0.2863
      9  CB         5.4140    8.2720   18.4830 C.3    62  SER62       0.2116
     10  OG         5.6900    9.5630   19.0210 O.3    62  SER62      -0.2180
     11  N          3.9910   15.9390   27.3730 N.3   117  LEU117     -0.1231
     12  CA         4.1610   15.3500   26.0510 C.3   117  LEU117      0.1693
     13  C          5.6330   15.3380   25.6440 C.2   117  LEU117      0.2591
     14  O          6.1330   14.3280   25.1640 O.2   117  LEU117     -0.2718
     15  CB         3.3340   16.1160   25.0160 C.3   117  LEU117      0.0284
     16  CG         3.3480   15.5680   23.5810 C.3   117  LEU117      0.0019
     17  CD1        2.6940   14.1900   23.4930 C.3   117  LEU117      0.0001
     18  CD2        2.6570   16.5740   22.6530 C.3   117  LEU117      0.0001
     19  N          6.3040   16.4720   25.8330 N.am  118  GLN118     -0.1979
     20  CA         7.7290   16.6000   25.5170 C.3   118  GLN118      0.1601
     21  C          8.4800   17.1430   26.7020 C.2   118  GLN118      0.2287
     22  O          7.8870   17.7830   27.5750 O.2   118  GLN118     -0.2864
     23  CB         7.9350   17.5810   24.3580 C.3   118  GLN118      0.0394
     24  CG         7.0530   17.3440   23.1560 C.3   118  GLN118      0.0908
     25  CD         7.5250   16.1960   22.2910 C.2   118  GLN118      0.2608
     26  OE1        8.5390   15.5390   22.5770 O.2   118  GLN118     -0.2717
     27  NE2        6.7970   15.9510   21.2120 N.am  118  GLN118     -0.0878
     28  N         -0.0940   10.9410   27.4510 N.3   149  TYR149     -0.1241
     29  CA         0.9140   10.5000   26.4930 C.3   149  TYR149      0.1605
     30  C          2.1900   11.3510   26.6380 C.2   149  TYR149      0.2264
     31  O          2.1170   12.5860   26.7050 O.2   149  TYR149     -0.2867
     32  CB         0.3420   10.5660   25.0800 C.3   149  TYR149      0.0534
     33  CG         1.2310    9.9380   24.0250 C.ar  149  TYR149     -0.0201
     34  CD1        1.0320    8.6240   23.6130 C.ar  149  TYR149     -0.0009
     35  CD2        2.2590   10.6610   23.4400 C.ar  149  TYR149     -0.0009
     36  CE1        1.8450    8.0380   22.6350 C.ar  149  TYR149      0.0417
     37  CE2        3.0800   10.0900   22.4590 C.ar  149  TYR149      0.0417
     38  CZ         2.8610    8.7830   22.0620 C.ar  149  TYR149      0.1957
     39  OH         3.6480    8.2270   21.0830 O.3   149  TYR149     -0.2866
     40  N          6.6360   11.5590   25.8680 N.3   151  ASN151     -0.1240
     41  CA         8.0150   11.2070   25.5110 C.3   151  ASN151      0.1653
     42  C          8.9640   11.0560   26.7120 C.2   151  ASN151      0.2266
     43  O          9.6550   10.0480   26.7970 O.2   151  ASN151     -0.2867
     44  CB         8.5770   12.1740   24.4580 C.3   151  ASN151      0.1155
     45  CG         7.9780   11.9390   23.0810 C.2   151  ASN151      0.2627
     46  OD1        7.3660   10.9030   22.8300 O.2   151  ASN151     -0.2716
     47  ND2        8.1790   12.8890   22.1740 N.am  151  ASN151     -0.0877
     48  N         14.7220   15.1620   11.4860 N.3   211  VAL211     -0.1231
     49  CA        14.7190   15.2080   12.9440 C.3   211  VAL211      0.1692
     50  C         16.1160   15.5210   13.4810 C.2   211  VAL211      0.2592
     51  O         17.1180   14.9440   13.0420 O.2   211  VAL211     -0.2718
     52  CB        14.0930   13.9390   13.5740 C.3   211  VAL211      0.0266
     53  CG1       14.9680   12.7000   13.3240 C.3   211  VAL211      0.0020
     54  CG2       13.8130   14.1510   15.0830 C.3   211  VAL211      0.0020
     55  N         16.1660   16.4770   14.4010 N.am  212  GLY212     -0.1957
     56  CA        17.4100   16.8730   15.0380 C.3   212  GLY212      0.1869
     57  C         17.5270   16.2600   16.4180 C.2   212  GLY212      0.2309
     58  O         16.5600   15.6950   16.9350 O.2   212  GLY212     -0.2863
     59  N         11.2950    8.7360   19.6380 N.3   221  TYR221     -0.1241
     60  CA        10.9180    9.1360   18.2680 C.3   221  TYR221      0.1605
     61  C         12.0340    9.0760   17.2110 C.2   221  TYR221      0.2264
     62  O         11.8480    9.5640   16.0910 O.2   221  TYR221     -0.2867
     63  CB        10.3040   10.5450   18.2770 C.3   221  TYR221      0.0534
     64  CG        11.2010   11.6110   18.8670 C.ar  221  TYR221     -0.0201
     65  CD1       12.2120   12.2030   18.1010 C.ar  221  TYR221     -0.0009
     66  CD2       11.0330   12.0420   20.1860 C.ar  221  TYR221     -0.0009
     67  CE1       13.0340   13.1870   18.6240 C.ar  221  TYR221      0.0417
     68  CE2       11.8590   13.0350   20.7220 C.ar  221  TYR221      0.0417
     69  CZ        12.8540   13.6000   19.9330 C.ar  221  TYR221      0.1957
     70  OH        13.6790   14.5720   20.4440 O.3   221  TYR221     -0.2866
     71  N         -6.7380    7.4230   17.8740 N.3   286  ASN286     -0.1225
     72  CA        -5.4900    8.0190   17.3990 C.3   286  ASN286      0.1785
     73  C         -5.6160    9.5300   17.1660 C.2   286  ASN286      0.2597
     74  O         -4.8490   10.1170   16.3990 O.2   286  ASN286     -0.2718
     75  CB        -5.0410    7.3080   16.1150 C.3   286  ASN286      0.1169
     76  CG        -4.6200    5.8670   16.3700 C.2   286  ASN286      0.2627
     77  OD1       -3.5530    5.6090   16.9430 O.2   286  ASN286     -0.2716
     78  ND2       -5.4680    4.9240   15.9720 N.am  286  ASN286     -0.0877
     79  N         -6.5950   10.1550   17.8230 N.am  287  SER287     -0.1952
     80  CA        -6.8600   11.5730   17.6400 C.3   287  SER287      0.1924
     81  C         -5.9530   12.4440   18.5150 C.2   287  SER287      0.2314
     82  O         -5.2910   11.9590   19.4430 O.2   287  SER287     -0.2863
     83  CB        -8.3410   11.8880   17.9290 C.3   287  SER287      0.2116
     84  OG        -8.6480   11.7460   19.3180 O.3   287  SER287     -0.2180
     85  N         -3.5420   12.1790   22.3860 N.3   291  ALA291     -0.1231
     86  CA        -2.1230   12.4660   22.5310 C.3   291  ALA291      0.1694
     87  C         -1.8790   13.6160   23.5170 C.2   291  ALA291      0.2591
     88  O         -0.8500   13.6390   24.1960 O.2   291  ALA291     -0.2718
     89  CB        -1.5150   12.7950   21.1760 C.3   291  ALA291      0.0304
     90  N         -2.8240   14.5580   23.5980 N.am  292  LEU292     -0.1980
     91  CA        -2.5780   15.8290   24.2910 C.3   292  LEU292      0.1596
     92  C         -3.2800   16.0220   25.6380 C.2   292  LEU292      0.2287
     93  O         -2.8840   16.8910   26.4290 O.2   292  LEU292     -0.2864
     94  CB        -2.9310   17.0100   23.3730 C.3   292  LEU292      0.0297
     95  CG        -2.2200   17.1760   22.0230 C.3   292  LEU292      0.0022
     96  CD1       -2.4470   18.5870   21.4810 C.3   292  LEU292      0.0001
     97  CD2       -0.7320   16.8720   22.0990 C.3   292  LEU292      0.0001
     98  N          0.3190    1.7230   16.0830 N.3   314  LYS314     -0.1231
     99  CA         1.0280    2.8670   16.6150 C.3   314  LYS314      0.1693
    100  C          1.1890    3.8940   15.5010 C.2   314  LYS314      0.2593
    101  O          1.6360    3.5530   14.3920 O.2   314  LYS314     -0.2718
    102  CB         2.4060    2.4840   17.1550 C.3   314  LYS314      0.0285
    103  CG         3.0870    3.6410   17.9190 C.3   314  LYS314      0.0035
    104  CD         2.3030    3.9620   19.1900 C.3   314  LYS314      0.0206
    105  CE         2.8350    5.2190   19.9090 C.3   314  LYS314      0.1093
    106  NZ         2.3170    6.4750   19.2790 N.3   314  LYS314     -0.1314
    107  N          0.8070    5.1390   15.8040 N.am  315  THR315     -0.1939
    108  CA         1.1170    6.2820   14.9500 C.3   315  THR315      0.2028
    109  C          2.4690    6.8700   15.3360 C.2   315  THR315      0.2643
    110  O          2.9350    6.7100   16.4770 O.2   315  THR315     -0.2714
    111  CB         0.0780    7.4210   15.1050 C.3   315  THR315      0.1808
    112  OG1        0.0010    7.8150   16.4820 O.3   315  THR315     -0.2208
    113  CG2       -1.2850    6.9810   14.6510 C.3   315  THR315      0.0379
    114  N          3.0970    7.5840   14.4070 N.am  316  GLY316     -0.1939
    115  CA         4.3180    8.3110   14.7610 C.3   316  GLY316      0.2014
    116  C          4.5770    9.4310   13.7730 C.2   316  GLY316      0.2640
    117  O          4.3440    9.2650   12.5800 O.2   316  GLY316     -0.2714
    118  N          5.0450   10.5680   14.2850 N.am  317  SER317     -0.1935
    119  CA         5.3180   11.7520   13.4690 C.3   317  SER317      0.2055
    120  C          6.6270   12.3990   13.8670 C.2   317  SER317      0.2644
    121  O          7.1000   12.2440   15.0000 O.2   317  SER317     -0.2714
    122  CB         4.2030   12.8060   13.6420 C.3   317  SER317      0.2130
    123  OG         2.9420   12.2700   13.2710 O.3   317  SER317     -0.2179
    124  N          7.2060   13.1310   12.9250 N.am  318  THR318     -0.1936
    125  CA         8.2320   14.1240   13.2310 C.3   318  THR318      0.2028
    126  C          7.8150   15.3990   12.4970 C.2   318  THR318      0.2642
    127  O          6.7810   15.4050   11.8160 O.2   318  THR318     -0.2714
    128  CB         9.6320   13.6480   12.7890 C.3   318  THR318      0.1808
    129  OG1        9.6140   13.3310   11.3850 O.3   318  THR318     -0.2208
    130  CG2       10.0540   12.3950   13.5780 C.3   318  THR318      0.0379
    131  N          8.6050   16.4660   12.5960 N.am  319  ASN319     -0.1971
    132  CA         8.2690   17.7050   11.8790 C.3   319  ASN319      0.1688
    133  C          7.9840   17.4510   10.3920 C.2   319  ASN319      0.2292
    134  O          7.0840   18.0550    9.8210 O.2   319  ASN319     -0.2864
    135  CB         9.3680   18.7710   12.0220 C.3   319  ASN319      0.1181
    136  CG         9.5000   19.3170   13.4390 C.2   319  ASN319      0.2629
    137  OD1       10.5370   19.9010   13.7840 O.2   319  ASN319     -0.2716
    138  ND2        8.4630   19.1510   14.2540 N.am  319  ASN319     -0.0877
    139  N          4.2520   15.1460    7.5820 N.3   342  ASN342     -0.1240
    140  CA         3.4000   14.9550    8.7650 C.3   342  ASN342      0.1653
    141  C          1.9680   15.3580    8.3960 C.2   342  ASN342      0.2266
    142  O          1.6490   16.5420    8.3290 O.2   342  ASN342     -0.2867
    143  CB         3.9220   15.7980    9.9380 C.3   342  ASN342      0.1155
    144  CG         3.1600   15.5470   11.2520 C.2   342  ASN342      0.2627
    145  OD1        2.0820   14.9550   11.2670 O.2   342  ASN342     -0.2716
    146  ND2        3.7340   16.0070   12.3580 N.am  342  ASN342     -0.0877
    147  N         -3.2480   12.0850   11.6630 N.3   345  ASN345     -0.1240
    148  CA        -3.3960   10.6540   12.0050 C.3   345  ASN345      0.1653
    149  C         -4.6490   10.0290   11.4010 C.2   345  ASN345      0.2266
    150  O         -4.6160    8.8790   10.9500 O.2   345  ASN345     -0.2867
    151  CB        -3.4590   10.4450   13.5310 C.3   345  ASN345      0.1155
    152  CG        -2.0980   10.5480   14.2040 C.2   345  ASN345      0.2627
    153  OD1       -1.0610   10.5870   13.5400 O.2   345  ASN345     -0.2716
    154  ND2       -2.0990   10.5950   15.5350 N.am  345  ASN345     -0.0877
@<TRIPOS>BOND
     1   139   140    1
     2   142   141    2
     3   141   140    1
     4   140   143    1
     5   134   133    2
     6   143   144    1
     7   133   132    1
     8   150   149    2
     9   144   145    2
    10   144   146   am
    11   129   128    1
    12   149   148    1
    13    48    49    1
    14   147   148    1
    15   127   126    2
    16   132   135    1
    17   132   131    1
    18   148   151    1
    19   135   136    1
    20   126   131   am
    21   126   125    1
    22   117   116    2
    23   128   125    1
    24   128   130    1
    25   124   125    1
    26   124   120   am
    27    49    50    1
    28    49    52    1
    29    51    50    2
    30   123   122    1
    31    53    52    1
    32   136   137    2
    33   136   138   am
    34   119   122    1
    35   119   120    1
    36   119   118    1
    37    50    55   am
    38   151   152    1
    39   153   152    2
    40    52    54    1
    41   116   118   am
    42   116   115    1
    43     1     2    1
    44   120   121    2
    45   152   154   am
    46   101   100    2
    47    55    56    1
    48   114   115    1
    49   114   109   am
    50   113   111    1
    51   108   111    1
    52   108   109    1
    53   108   107    1
    54    56    57    1
    55     2     3    1
    56   111   112    1
    57   109   110    2
    58   100   107   am
    59   100    99    1
    60    78    76   am
    61    98    99    1
    62    62    61    2
    63    75    76    1
    64    75    72    1
    65     3     4    2
    66     3     5   am
    67    76    77    2
    68    74    73    2
    69    57    58    2
    70    99   102    1
    71     5     6    1
    72   102   103    1
    73    73    72    1
    74    73    79   am
    75    61    60    1
    76    72    71    1
    77    80    79    1
    78    80    83    1
    79    80    81    1
    80     7     6    1
    81     7     8    2
    82     6     9    1
    83   103   104    1
    84    83    84    1
    85    65    67   ar
    86    65    64   ar
    87    60    63    1
    88    60    59    1
    89    63    64    1
    90     9    10    1
    91    81    82    2
    92    67    69   ar
    93    64    66   ar
    94   104   105    1
    95   106   105    1
    96    69    70    1
    97    69    68   ar
    98    66    68   ar
    99    39    38    1
   100    89    86    1
   101    27    25   am
   102    96    95    1
   103    95    97    1
   104    95    94    1
   105    38    37   ar
   106    38    36   ar
   107    47    45   am
   108    25    26    2
   109    25    24    1
   110    85    86    1
   111    37    35   ar
   112    86    87    1
   113    36    34   ar
   114    18    16    1
   115    46    45    2
   116    45    44    1
   117    24    23    1
   118    94    91    1
   119    35    33   ar
   120    17    16    1
   121    87    90   am
   122    87    88    2
   123    16    15    1
   124    90    91    1
   125    34    33   ar
   126    33    32    1
   127    91    92    1
   128    23    20    1
   129    44    41    1
   130    15    12    1
   131    32    29    1
   132    14    13    2
   133    41    40    1
   134    41    42    1
   135    20    19    1
   136    20    21    1
   137    92    93    2
   138    13    19   am
   139    13    12    1
   140    12    11    1
   141    29    30    1
   142    29    28    1
   143    30    31    2
   144    21    22    2
   145    42    43    2
