@<TRIPOS>MOLECULE
tmp/4nk4F00.pdb
 84 80 0 0 0
SMALL
GASTEIGER

@<TRIPOS>ATOM
      1  N         35.7490   95.8740   -1.1700 N.3    20  ILE20      -0.1245
      2  CA        35.2510   97.2110   -1.5200 C.3    20  ILE20       0.1561
      3  C         34.0070   97.5730   -0.7040 C.2    20  ILE20       0.2260
      4  O         33.8820   98.6970   -0.1930 O.2    20  ILE20      -0.2867
      5  CB        34.9640   97.3130   -3.0410 C.3    20  ILE20       0.0252
      6  CG1       36.2800   97.3200   -3.8240 C.3    20  ILE20       0.0019
      7  CG2       34.1580   98.5710   -3.3760 C.3    20  ILE20       0.0019
      8  CD1       36.1030   97.3030   -5.3390 C.3    20  ILE20       0.0001
      9  N         27.9920   95.4220   -4.2790 N.3    91  SER91      -0.1202
     10  CA        29.3690   95.2010   -4.6910 C.3    91  SER91       0.2020
     11  C         29.5950   93.7010   -4.7690 C.2    91  SER91       0.2619
     12  O         30.2970   93.1110   -3.9380 O.2    91  SER91      -0.2717
     13  CB        30.3400   95.8470   -3.6970 C.3    91  SER91       0.2103
     14  OG        31.6830   95.7330   -4.1660 O.3    91  SER91      -0.2182
     15  N         28.9850   93.0930   -5.7800 N.am   92  ILE92      -0.1965
     16  CA        28.9580   91.6390   -5.9220 C.3    92  ILE92       0.1727
     17  C         29.4690   91.2770   -7.3020 C.2    92  ILE92       0.2616
     18  O         28.8840   91.6890   -8.3140 O.2    92  ILE92      -0.2715
     19  CB        27.5230   91.0990   -5.8130 C.3    92  ILE92       0.0290
     20  CG1       26.9200   91.4380   -4.4540 C.3    92  ILE92       0.0022
     21  CG2       27.4990   89.5820   -6.0460 C.3    92  ILE92       0.0023
     22  CD1       25.4610   91.0550   -4.3250 C.3    92  ILE92       0.0001
     23  N         30.5490   90.5040   -7.3540 N.am   93  ALA93      -0.1977
     24  CA        31.0430   90.0010   -8.6310 C.3    93  ALA93       0.1597
     25  C         31.5390   88.5900   -8.4980 C.2    93  ALA93       0.2287
     26  O         32.1810   88.2360   -7.5050 O.2    93  ALA93      -0.2864
     27  CB        32.1490   90.8500   -9.1530 C.3    93  ALA93       0.0319
     28  N         29.0100   98.5380   -8.3610 N.3   143  LEU143     -0.1231
     29  CA        30.4230   98.6820   -8.6840 C.3   143  LEU143      0.1693
     30  C         30.7100   98.0820  -10.0480 C.2   143  LEU143      0.2593
     31  O         30.2650   96.9830  -10.3660 O.2   143  LEU143     -0.2718
     32  CB        31.3030   97.9690   -7.6400 C.3   143  LEU143      0.0284
     33  CG        31.7420   98.7670   -6.4130 C.3   143  LEU143      0.0019
     34  CD1       32.7640   99.8260   -6.8090 C.3   143  LEU143      0.0001
     35  CD2       30.5540   99.3930   -5.6950 C.3   143  LEU143      0.0001
     36  N         31.4510   98.8230  -10.8500 N.am  144  THR144     -0.1939
     37  CA        31.9090   98.3480  -12.1480 C.3   144  THR144      0.2028
     38  C         33.4000   98.6470  -12.3630 C.2   144  THR144      0.2642
     39  O         34.1040   99.1170  -11.4500 O.2   144  THR144     -0.2714
     40  CB        31.0250   98.9320  -13.2790 C.3   144  THR144      0.1808
     41  OG1       31.2840   98.2310  -14.4990 O.3   144  THR144     -0.2208
     42  CG2       31.3030  100.4150  -13.4830 C.3   144  THR144      0.0379
     43  N         33.8860   98.3410  -13.5630 N.am  145  TYR145     -0.1973
     44  CA        35.2870   98.5130  -13.9000 C.3   145  TYR145      0.1639
     45  C         35.3690   98.8170  -15.3810 C.2   145  TYR145      0.2290
     46  O         34.5740   98.2840  -16.1700 O.2   145  TYR145     -0.2864
     47  CB        36.0480   97.2220  -13.5910 C.3   145  TYR145      0.0560
     48  CG        37.4940   97.2120  -14.0240 C.ar  145  TYR145     -0.0198
     49  CD1       38.3850   98.1740  -13.5590 C.ar  145  TYR145     -0.0009
     50  CD2       37.9810   96.2180  -14.8690 C.ar  145  TYR145     -0.0009
     51  CE1       39.7180   98.1630  -13.9430 C.ar  145  TYR145      0.0417
     52  CE2       39.3130   96.1950  -15.2620 C.ar  145  TYR145      0.0417
     53  CZ        40.1800   97.1670  -14.7930 C.ar  145  TYR145      0.1957
     54  OH        41.5130   97.1590  -15.1700 O.3   145  TYR145     -0.2866
     55  N         40.2630   89.7160  -18.4380 N.3   155  TYR155     -0.1241
     56  CA        39.0270   90.1040  -17.7490 C.3   155  TYR155      0.1605
     57  C         37.8380   89.3040  -18.2950 C.2   155  TYR155      0.2264
     58  O         36.8830   89.0070  -17.5630 O.2   155  TYR155     -0.2867
     59  CB        38.8010   91.6160  -17.8750 C.3   155  TYR155      0.0534
     60  CG        37.8420   92.1830  -16.8530 C.ar  155  TYR155     -0.0201
     61  CD1       38.0500   91.9940  -15.4890 C.ar  155  TYR155     -0.0009
     62  CD2       36.7510   92.9390  -17.2470 C.ar  155  TYR155     -0.0009
     63  CE1       37.1820   92.5210  -14.5550 C.ar  155  TYR155      0.0417
     64  CE2       35.8750   93.4710  -16.3190 C.ar  155  TYR155      0.0417
     65  CZ        36.0950   93.2610  -14.9780 C.ar  155  TYR155      0.1957
     66  OH        35.2270   93.7990  -14.0490 O.3   155  TYR155     -0.2866
     67  N         29.9560   93.2290  -16.8420 N.3   162  LYS162     -0.1245
     68  CA        30.0120   94.5960  -16.3280 C.3   162  LYS162      0.1561
     69  C         29.3570   95.5550  -17.3020 C.2   162  LYS162      0.2260
     70  O         28.7380   96.5320  -16.8860 O.2   162  LYS162     -0.2867
     71  CB        31.4530   95.0230  -16.0580 C.3   162  LYS162      0.0271
     72  CG        32.0660   94.3620  -14.8090 C.3   162  LYS162      0.0035
     73  CD        31.2830   94.7000  -13.5320 C.3   162  LYS162      0.0206
     74  CE        32.1200   94.3400  -12.2920 C.3   162  LYS162      0.1093
     75  NZ        31.3720   94.5510  -11.0040 N.3   162  LYS162     -0.1314
     76  N         35.4470  101.6140  -10.4590 N.3   188  ALA188     -0.1231
     77  CA        36.6090  101.7080   -9.5870 C.3   188  ALA188      0.1694
     78  C         37.8790  101.3270  -10.3240 C.2   188  ALA188      0.2592
     79  O         37.8530  100.4910  -11.2320 O.2   188  ALA188     -0.2718
     80  CB        36.4180  100.8060   -8.3830 C.3   188  ALA188      0.0304
     81  N         38.9950  101.9270   -9.9280 N.am  189  GLY189     -0.1957
     82  CA        40.2870  101.4390  -10.3760 C.3   189  GLY189      0.1869
     83  C         40.5940  100.1630   -9.6170 C.2   189  GLY189      0.2309
     84  O         39.8750   99.8040   -8.6840 O.2   189  GLY189     -0.2863
@<TRIPOS>BOND
     1    55    56    1
     2    57    56    1
     3    57    58    2
     4    59    56    1
     5    59    60    1
     6    69    70    2
     7    69    68    1
     8    62    60   ar
     9    62    64   ar
    10    60    61   ar
    11    67    68    1
    12    68    71    1
    13    64    65   ar
    14    46    45    2
    15    71    72    1
    16    61    63   ar
    17    45    44    1
    18    52    50   ar
    19    52    53   ar
    20    54    53    1
    21    65    63   ar
    22    65    66    1
    23    50    48   ar
    24    72    73    1
    25    53    51   ar
    26    41    40    1
    27    48    47    1
    28    48    49   ar
    29    51    49   ar
    30    44    47    1
    31    44    43    1
    32    43    38   am
    33    73    74    1
    34    42    40    1
    35    40    37    1
    36    38    37    1
    37    38    39    2
    38    74    75    1
    39    37    36    1
    40    79    78    2
    41    36    30   am
    42    76    77    1
    43    82    81    1
    44    82    83    1
    45    31    30    2
    46    78    81   am
    47    78    77    1
    48    30    29    1
    49    83    84    2
    50    77    80    1
    51    27    24    1
    52    29    28    1
    53    29    32    1
    54    24    25    1
    55    24    23    1
    56    25    26    2
    57    18    17    2
    58    32    33    1
    59    23    17   am
    60    17    16    1
    61    34    33    1
    62    33    35    1
    63    21    19    1
    64    16    19    1
    65    16    15    1
    66    19    20    1
    67    15    11   am
    68     8     6    1
    69    11    10    1
    70    11    12    2
    71    10     9    1
    72    10    13    1
    73    20    22    1
    74    14    13    1
    75     6     5    1
    76     7     5    1
    77     5     2    1
    78     2     1    1
    79     2     3    1
    80     3     4    2
