@<TRIPOS>MOLECULE
tmp/4nk4A00.pdb
 96 91 0 0 0
SMALL
GASTEIGER

@<TRIPOS>ATOM
      1  N         18.9380   48.1380   10.9080 N.3   146  TYR146     -0.1227
      2  CA        18.8360   46.7910   10.3650 C.3   146  TYR146      0.1736
      3  C         19.1750   46.8460    8.8930 C.2   146  TYR146      0.2596
      4  O         18.8280   47.8220    8.2100 O.2   146  TYR146     -0.2718
      5  CB        17.4140   46.2580   10.5550 C.3   146  TYR146      0.0548
      6  CG        17.1430   44.9130    9.9260 C.ar  146  TYR146     -0.0200
      7  CD1       17.9240   43.7990   10.2390 C.ar  146  TYR146     -0.0009
      8  CD2       16.0950   44.7490    9.0300 C.ar  146  TYR146     -0.0009
      9  CE1       17.6580   42.5520    9.6730 C.ar  146  TYR146      0.0417
     10  CE2       15.8200   43.5100    8.4600 C.ar  146  TYR146      0.0417
     11  CZ        16.6050   42.4190    8.7850 C.ar  146  TYR146      0.1957
     12  OH        16.3390   41.1900    8.2210 O.3   146  TYR146     -0.2866
     13  N         19.8360   45.8020    8.3980 N.am  147  GLY147     -0.1957
     14  CA        20.3050   45.7700    7.0230 C.3   147  GLY147      0.1869
     15  C         19.2130   45.8200    5.9640 C.2   147  GLY147      0.2309
     16  O         19.5120   45.9900    4.7830 O.2   147  GLY147     -0.2863
     17  N         18.9580   48.9210    3.2430 N.3   150  MET150     -0.1230
     18  CA        19.4310   49.0860    1.8570 C.3   150  MET150      0.1702
     19  C         19.5780   47.7850    1.0610 C.2   150  MET150      0.2592
     20  O         20.0670   47.7920   -0.0690 O.2   150  MET150     -0.2718
     21  CB        20.6950   49.9590    1.7830 C.3   150  MET150      0.0401
     22  CG        20.9250   50.6610    0.4260 C.3   150  MET150      0.0596
     23  SD        19.5500   51.7080   -0.1570 S.3   150  MET150     -0.1393
     24  CE        19.4980   52.9430    1.0840 C.3   150  MET150      0.0692
     25  N         19.1350   46.6750    1.6450 N.am  151  ARG151     -0.1980
     26  CA        18.9280   45.4530    0.8790 C.3   151  ARG151      0.1597
     27  C         17.5300   44.9900    1.2000 C.2   151  ARG151      0.2287
     28  O         17.0740   45.1460    2.3230 O.2   151  ARG151     -0.2864
     29  CB        19.9720   44.3910    1.2190 C.3   151  ARG151      0.0334
     30  CG        20.9680   44.2190    0.0990 C.3   151  ARG151      0.0492
     31  CD        22.3700   44.0500    0.6180 C.3   151  ARG151      0.2205
     32  NE        22.6250   42.6850    1.0570 N.pl3 151  ARG151     -0.0865
     33  CZ        23.7820   42.2860    1.5780 C.cat 151  ARG151      0.5346
     34  NH1       24.7720   43.1580    1.7260 N.pl3 151  ARG151      0.1354
     35  NH2       23.9490   41.0280    1.9580 N.pl3 151  ARG151      0.1354
     36  N         14.3430   43.2330    2.2730 N.3   153  VAL153     -0.1245
     37  CA        13.8050   42.1690    3.1190 C.3   153  VAL153      0.1561
     38  C         12.2920   42.1750    2.9240 C.2   153  VAL153      0.2260
     39  O         11.6570   43.2090    3.0760 O.2   153  VAL153     -0.2867
     40  CB        14.1220   42.4470    4.6010 C.3   153  VAL153      0.0252
     41  CG1       13.4730   41.3960    5.5190 C.3   153  VAL153      0.0019
     42  CG2       15.6360   42.4710    4.8210 C.3   153  VAL153      0.0019
     43  N         12.3190   35.1800    8.8510 N.3   206  ILE206     -0.1245
     44  CA        13.5050   36.0150    8.6750 C.3   206  ILE206      0.1561
     45  C         14.6120   35.5630    9.6270 C.2   206  ILE206      0.2260
     46  O         15.7760   35.3940    9.2280 O.2   206  ILE206     -0.2867
     47  CB        13.1720   37.5040    8.9100 C.3   206  ILE206      0.0252
     48  CG1       12.2390   38.0120    7.8120 C.3   206  ILE206      0.0019
     49  CG2       14.4460   38.3330    8.9740 C.3   206  ILE206      0.0019
     50  CD1       11.6140   39.3920    8.0950 C.3   206  ILE206      0.0001
     51  N         18.1430   33.7960    8.5350 N.3   210  SER210     -0.1217
     52  CA        19.3760   34.4780    8.8970 C.3   210  SER210      0.1889
     53  C         20.2580   33.5610    9.7320 C.2   210  SER210      0.2288
     54  O         21.4740   33.5310    9.5570 O.2   210  SER210     -0.2866
     55  CB        19.0790   35.7940    9.6210 C.3   210  SER210      0.2089
     56  OG        18.2210   36.6090    8.8220 O.3   210  SER210     -0.2183
     57  N         27.8140   46.2930   11.8500 N.3   246  TYR246     -0.1241
     58  CA        26.9660   45.1080   11.7320 C.3   246  TYR246      0.1605
     59  C         27.2220   44.1100   12.8440 C.2   246  TYR246      0.2264
     60  O         28.3400   43.6120   13.0040 O.2   246  TYR246     -0.2867
     61  CB        27.1490   44.4360   10.3660 C.3   246  TYR246      0.0534
     62  CG        26.4110   45.2040    9.2910 C.ar  246  TYR246     -0.0201
     63  CD1       25.1730   44.7770    8.8330 C.ar  246  TYR246     -0.0009
     64  CD2       26.9300   46.3940    8.7900 C.ar  246  TYR246     -0.0009
     65  CE1       24.4800   45.5050    7.8620 C.ar  246  TYR246      0.0417
     66  CE2       26.2420   47.1310    7.8320 C.ar  246  TYR246      0.0417
     67  CZ        25.0220   46.6800    7.3760 C.ar  246  TYR246      0.1957
     68  OH        24.3500   47.4230    6.4200 O.3   246  TYR246     -0.2866
     69  N         25.3880   41.0620   13.3400 N.3   248  ASP248     -0.1239
     70  CA        24.3750   40.2040   12.7360 C.3   248  ASP248      0.1674
     71  C         24.9410   38.8090   12.4820 C.2   248  ASP248      0.2266
     72  O         24.4480   38.0620   11.6230 O.2   248  ASP248     -0.2867
     73  CB        23.8980   40.8240   11.4120 C.3   248  ASP248      0.1410
     74  CG        24.9790   40.8110   10.3360 C.2   248  ASP248      0.3668
     75  OD1       26.1710   40.6630   10.6800 O.co2 248  ASP248     -0.2456
     76  OD2       24.6380   40.9620    9.1400 O.co2 248  ASP248     -0.2456
     77  N         25.8070   37.7900    8.7720 N.3   251  TYR251     -0.1227
     78  CA        24.8130   37.4400    7.7520 C.3   251  TYR251      0.1736
     79  C         24.9860   38.3080    6.5100 C.2   251  TYR251      0.2595
     80  O         24.8790   37.8310    5.3630 O.2   251  TYR251     -0.2718
     81  CB        23.3670   37.5730    8.2900 C.3   251  TYR251      0.0548
     82  CG        22.3570   37.3410    7.1850 C.ar  251  TYR251     -0.0200
     83  CD1       22.0470   36.0510    6.7620 C.ar  251  TYR251     -0.0009
     84  CD2       21.7590   38.4100    6.5270 C.ar  251  TYR251     -0.0009
     85  CE1       21.1530   35.8320    5.7170 C.ar  251  TYR251      0.0417
     86  CE2       20.8790   38.2030    5.4810 C.ar  251  TYR251      0.0417
     87  CZ        20.5800   36.9180    5.0820 C.ar  251  TYR251      0.1957
     88  OH        19.6990   36.7230    4.0400 O.3   251  TYR251     -0.2866
     89  N         25.2580   39.5870    6.7360 N.am  252  ASN252     -0.1974
     90  CA        25.3300   40.5410    5.6290 C.3   252  ASN252      0.1688
     91  C         26.3910   40.2240    4.5790 C.2   252  ASN252      0.2292
     92  O         26.2920   40.6980    3.4390 O.2   252  ASN252     -0.2864
     93  CB        25.5480   41.9610    6.1550 C.3   252  ASN252      0.1181
     94  CG        26.9540   42.1670    6.6980 C.2   252  ASN252      0.2629
     95  OD1       27.2500   41.8240    7.8570 O.2   252  ASN252     -0.2716
     96  ND2       27.8290   42.7220    5.8680 N.am  252  ASN252     -0.0877
@<TRIPOS>BOND
     1    23    22    1
     2    23    24    1
     3    20    19    2
     4    30    31    1
     5    30    29    1
     6    22    21    1
     7    31    32    1
     8    26    27    1
     9    26    29    1
    10    26    25    1
    11    32    33    2
    12    19    25   am
    13    19    18    1
    14    27    28    2
    15    33    34    1
    16    33    35    1
    17    21    18    1
    18    18    17    1
    19    36    37    1
    20    38    39    2
    21    38    37    1
    22    37    40    1
    23    92    91    2
    24    88    87    1
    25    91    90    1
    26    40    42    1
    27    40    41    1
    28    16    15    2
    29    87    86   ar
    30    87    85   ar
    31    80    79    2
    32    86    84   ar
    33    90    93    1
    34    90    89    1
    35    85    83   ar
    36    96    94   am
    37    15    14    1
    38    93    94    1
    39    68    67    1
    40    79    89   am
    41    79    78    1
    42    84    82   ar
    43    94    95    2
    44    83    82   ar
    45    14    13    1
    46    82    81    1
    47    67    66   ar
    48    67    65   ar
    49    78    81    1
    50    78    77    1
    51    48    50    1
    52    48    47    1
    53    66    64   ar
    54    65    63   ar
    55     4     3    2
    56    12    11    1
    57    13     3   am
    58    10    11   ar
    59    10     8   ar
    60    51    52    1
    61    44    43    1
    62    44    47    1
    63    44    45    1
    64    11     9   ar
    65    64    62   ar
    66    56    55    1
    67    63    62   ar
    68     3     2    1
    69    52    55    1
    70    52    53    1
    71    47    49    1
    72     8     6   ar
    73    76    74   ar
    74    46    45    2
    75    62    61    1
    76    54    53    2
    77     9     7   ar
    78     6     7   ar
    79     6     5    1
    80    74    75   ar
    81    74    73    1
    82     2     5    1
    83     2     1    1
    84    61    58    1
    85    73    70    1
    86    72    71    2
    87    58    57    1
    88    58    59    1
    89    71    70    1
    90    70    69    1
    91    59    60    2
