@<TRIPOS>MOLECULE
tmp/4nk4B00.pdb
 110 104 0 0 0
SMALL
GASTEIGER

@<TRIPOS>ATOM
      1  N         17.4050   69.4420  -14.3430 N.3    21  ILE21      -0.1245
      2  CA        17.7840   68.0820  -14.7200 C.3    21  ILE21       0.1561
      3  C         16.6890   67.3890  -15.5450 C.2    21  ILE21       0.2260
      4  O         16.9840   66.7330  -16.5590 O.2    21  ILE21      -0.2867
      5  CB        18.1300   67.2600  -13.4680 C.3    21  ILE21       0.0252
      6  CG1       19.4700   67.7500  -12.9030 C.3    21  ILE21       0.0019
      7  CG2       18.2320   65.7740  -13.8090 C.3    21  ILE21       0.0019
      8  CD1       19.7920   67.1610  -11.5310 C.3    21  ILE21       0.0001
      9  N         18.8970   61.0710   -7.4660 N.3   145  THR145     -0.1203
     10  CA        19.4440   61.1920   -6.1230 C.3   145  THR145      0.1994
     11  C         20.8290   61.8480   -6.1880 C.2   145  THR145      0.2617
     12  O         21.2720   62.2960   -7.2510 O.2   145  THR145     -0.2717
     13  CB        19.4630   59.8170   -5.4120 C.3   145  THR145      0.1784
     14  OG1       19.8140   59.9780   -4.0330 O.3   145  THR145     -0.2211
     15  CG2       20.4520   58.8590   -6.0950 C.3   145  THR145      0.0376
     16  N         21.4900   61.9230   -5.0400 N.am  146  TYR146     -0.1975
     17  CA        22.8050   62.5330   -4.9230 C.3   146  TYR146      0.1639
     18  C         23.5650   61.8200   -3.8160 C.2   146  TYR146      0.2290
     19  O         22.9660   61.3970   -2.8170 O.2   146  TYR146     -0.2864
     20  CB        22.6430   64.0190   -4.5830 C.3   146  TYR146      0.0560
     21  CG        23.9190   64.7850   -4.3070 C.ar  146  TYR146     -0.0198
     22  CD1       24.9690   64.7950   -5.2120 C.ar  146  TYR146     -0.0009
     23  CD2       24.0440   65.5490   -3.1490 C.ar  146  TYR146     -0.0009
     24  CE1       26.1320   65.5240   -4.9470 C.ar  146  TYR146      0.0417
     25  CE2       25.1910   66.2750   -2.8830 C.ar  146  TYR146      0.0417
     26  CZ        26.2200   66.2640   -3.7850 C.ar  146  TYR146      0.1957
     27  OH        27.3560   66.9830   -3.5200 O.3   146  TYR146     -0.2866
     28  N         23.7880   70.0350    3.1820 N.3   156  TYR156     -0.1241
     29  CA        22.7880   69.2430    2.4490 C.3   156  TYR156      0.1605
     30  C         21.6510   68.8400    3.3810 C.2   156  TYR156      0.2264
     31  O         20.5000   68.7250    2.9560 O.2   156  TYR156     -0.2867
     32  CB        23.4250   68.0170    1.7710 C.3   156  TYR156      0.0534
     33  CG        22.5910   67.4040    0.6590 C.ar  156  TYR156     -0.0201
     34  CD1       22.1800   68.1640   -0.4380 C.ar  156  TYR156     -0.0009
     35  CD2       22.2440   66.0580    0.6940 C.ar  156  TYR156     -0.0009
     36  CE1       21.4300   67.5990   -1.4550 C.ar  156  TYR156      0.0417
     37  CE2       21.4920   65.4830   -0.3160 C.ar  156  TYR156      0.0417
     38  CZ        21.0900   66.2580   -1.3900 C.ar  156  TYR156      0.1957
     39  OH        20.3430   65.6990   -2.4070 O.3   156  TYR156     -0.2866
     40  N         17.0000   61.6560    0.5390 N.3   163  LYS163     -0.1245
     41  CA        17.5620   60.9590   -0.6100 C.3   163  LYS163      0.1561
     42  C         17.9400   59.5380   -0.2240 C.2   163  LYS163      0.2260
     43  O         17.8170   58.6320   -1.0360 O.2   163  LYS163     -0.2867
     44  CB        18.7860   61.6870   -1.1660 C.3   163  LYS163      0.0271
     45  CG        18.4870   63.0130   -1.8840 C.3   163  LYS163      0.0035
     46  CD        17.6050   62.8040   -3.1260 C.3   163  LYS163      0.0206
     47  CE        17.6920   64.0010   -4.0700 C.3   163  LYS163      0.1093
     48  NZ        16.6750   63.8790   -5.1780 N.3   163  LYS163     -0.1314
     49  N         23.2020   61.7920   -9.5210 N.3   189  ALA189     -0.1231
     50  CA        23.8980   62.8000  -10.3090 C.3   189  ALA189      0.1694
     51  C         24.9280   63.5460   -9.4800 C.2   189  ALA189      0.2593
     52  O         24.7690   63.7110   -8.2720 O.2   189  ALA189     -0.2718
     53  CB        22.8880   63.8000  -10.8930 C.3   189  ALA189      0.0304
     54  N         25.9880   64.0040  -10.1380 N.am  190  GLY190     -0.1943
     55  CA        26.8810   64.9720   -9.5070 C.3   190  GLY190      0.1998
     56  C         26.2600   66.3540   -9.6250 C.2   190  GLY190      0.2481
     57  O         25.2110   66.5250  -10.2650 O.2   190  GLY190     -0.2729
     58  N         26.8870   67.3530   -9.0020 N.am  191  PRO191     -0.2715
     59  CA        26.3470   68.7100   -9.1510 C.3   191  PRO191      0.1536
     60  C         26.4610   69.2040  -10.5780 C.2   191  PRO191      0.2598
     61  O         27.4620   68.9450  -11.2490 O.2   191  PRO191     -0.2715
     62  CB        27.2460   69.5610   -8.2450 C.3   191  PRO191      0.0310
     63  CG        28.4830   68.7420   -8.0340 C.3   191  PRO191      0.0237
     64  CD        28.0400   67.2990   -8.0860 C.3   191  PRO191      0.0939
     65  N         25.4270   69.9140  -11.0310 N.am  192  VAL192     -0.1978
     66  CA        25.4260   70.4970  -12.3660 C.3   192  VAL192      0.1596
     67  C         25.7030   71.9790  -12.2000 C.2   192  VAL192      0.2287
     68  O         25.0200   72.6510  -11.4230 O.2   192  VAL192     -0.2864
     69  CB        24.0620   70.3190  -13.0230 C.3   192  VAL192      0.0276
     70  CG1       24.0260   71.0600  -14.3750 C.3   192  VAL192      0.0022
     71  CG2       23.7720   68.8240  -13.2250 C.3   192  VAL192      0.0022
     72  N         23.1010   75.3150  -12.0140 N.3   195  LEU195     -0.1231
     73  CA        21.9850   74.7650  -11.2550 C.3   195  LEU195      0.1693
     74  C         22.3350   74.6330   -9.7710 C.2   195  LEU195      0.2591
     75  O         21.5190   74.9470   -8.8800 O.2   195  LEU195     -0.2718
     76  CB        21.5820   73.3990  -11.8300 C.3   195  LEU195      0.0284
     77  CG        20.4330   72.6490  -11.1530 C.3   195  LEU195      0.0019
     78  CD1       19.1450   73.4590  -11.2020 C.3   195  LEU195      0.0001
     79  CD2       20.2260   71.2790  -11.8080 C.3   195  LEU195      0.0001
     80  N         23.5650   74.1900   -9.5060 N.am  196  ALA196     -0.1980
     81  CA        23.9800   73.9280   -8.1310 C.3   196  ALA196      0.1597
     82  C         23.9090   75.2080   -7.3110 C.2   196  ALA196      0.2287
     83  O         23.3250   75.2140   -6.2200 O.2   196  ALA196     -0.2864
     84  CB        25.3920   73.3320   -8.0940 C.3   196  ALA196      0.0319
     85  N         20.5600   76.1310   -6.2670 N.3   199  SER199     -0.1202
     86  CA        19.8070   75.1270   -5.5060 C.3   199  SER199      0.2020
     87  C         20.0950   75.0500   -4.0140 C.2   199  SER199      0.2618
     88  O         19.2900   74.4980   -3.2580 O.2   199  SER199     -0.2717
     89  CB        20.0460   73.7480   -6.1150 C.3   199  SER199      0.2103
     90  OG        19.5710   73.7260   -7.4470 O.3   199  SER199     -0.2182
     91  N         21.2400   75.5720   -3.5940 N.am  200  ILE200     -0.1979
     92  CA        21.6220   75.5030   -2.1840 C.3   200  ILE200      0.1595
     93  C         22.6870   76.5630   -1.9210 C.2   200  ILE200      0.2287
     94  O         23.4050   76.9610   -2.8370 O.2   200  ILE200     -0.2864
     95  CB        22.1100   74.0690   -1.8220 C.3   200  ILE200      0.0276
     96  CG1       22.2970   73.8860   -0.3090 C.3   200  ILE200      0.0022
     97  CG2       23.3810   73.7050   -2.5980 C.3   200  ILE200      0.0022
     98  CD1       22.7460   72.4590    0.0680 C.3   200  ILE200      0.0001
     99  N         26.1100   75.8680   -3.0640 N.3   203  GLY203     -0.1225
    100  CA        26.1050   75.0770   -4.2840 C.3   203  GLY203      0.1811
    101  C         27.2600   75.3580   -5.2220 C.2   203  GLY203      0.2280
    102  O         27.7930   74.4420   -5.8630 O.2   203  GLY203     -0.2866
    103  N         30.1950   73.5650   -3.8400 N.3   206  ILE206     -0.1245
    104  CA        30.0560   72.1230   -4.0570 C.3   206  ILE206      0.1561
    105  C         30.4070   71.7520   -5.5010 C.2   206  ILE206      0.2260
    106  O         31.1670   70.8050   -5.7560 O.2   206  ILE206     -0.2867
    107  CB        28.6330   71.6400   -3.7260 C.3   206  ILE206      0.0252
    108  CG1       28.3690   71.8010   -2.2220 C.3   206  ILE206      0.0019
    109  CG2       28.4630   70.1970   -4.1680 C.3   206  ILE206      0.0019
    110  CD1       26.9090   71.5890   -1.8160 C.3   206  ILE206      0.0001
@<TRIPOS>BOND
     1     4     3    2
     2     3     2    1
     3     2     1    1
     4     2     5    1
     5    70    69    1
     6     7     5    1
     7     5     6    1
     8    71    69    1
     9    69    66    1
    10     6     8    1
    11    66    67    1
    12    66    65    1
    13    67    68    2
    14    72    73    1
    15    76    73    1
    16    76    77    1
    17    79    77    1
    18    73    74    1
    19    61    60    2
    20    78    77    1
    21    65    60   am
    22    53    50    1
    23    60    59    1
    24    50    49    1
    25    50    51    1
    26    57    56    2
    27    54    55    1
    28    54    51   am
    29    74    80   am
    30    74    75    2
    31    56    55    1
    32    56    58   am
    33    80    81    1
    34    51    52    2
    35    59    58    1
    36    59    62    1
    37    58    64    1
    38    62    63    1
    39    81    84    1
    40    81    82    1
    41    64    63    1
    42     9    10    1
    43    90    89    1
    44    82    83    2
    45    12    11    2
    46    85    86    1
    47    11    10    1
    48    11    16   am
    49    10    13    1
    50    89    86    1
    51    15    13    1
    52   102   101    2
    53   106   105    2
    54    86    87    1
    55   105   104    1
    56    13    14    1
    57   101   100    1
    58    22    24   ar
    59    22    21   ar
    60    48    47    1
    61    16    17    1
    62    24    26   ar
    63    17    20    1
    64    17    18    1
    65    20    21    1
    66    21    23   ar
    67   100    99    1
    68   109   107    1
    69    47    46    1
    70   104   103    1
    71   104   107    1
    72    87    91   am
    73    87    88    2
    74    18    19    2
    75    26    27    1
    76    26    25   ar
    77   107   108    1
    78    91    92    1
    79    23    25   ar
    80    46    45    1
    81    94    93    2
    82    97    95    1
    83    39    38    1
    84   108   110    1
    85    92    93    1
    86    92    95    1
    87    45    44    1
    88    95    96    1
    89    36    38   ar
    90    36    34   ar
    91    38    37   ar
    92    44    41    1
    93    43    42    2
    94    41    42    1
    95    41    40    1
    96    34    33   ar
    97    37    35   ar
    98    96    98    1
    99    33    35   ar
   100    33    32    1
   101    32    29    1
   102    29    28    1
   103    29    30    1
   104    31    30    2
