@<TRIPOS>MOLECULE
tmp/4nk9B00.pdb
 205 192 0 0 0
SMALL
GASTEIGER

@<TRIPOS>ATOM
      1  N         27.4630    3.8710   29.4810 N.3    25  LEU25      -0.1231
      2  CA        28.5260    3.1360   28.8020 C.3    25  LEU25       0.1693
      3  C         29.7940    3.9860   28.5830 C.2    25  LEU25       0.2593
      4  O         30.8970    3.4420   28.4260 O.2    25  LEU25      -0.2718
      5  CB        27.9950    2.5750   27.4670 C.3    25  LEU25       0.0284
      6  CG        27.0030    1.4130   27.5810 C.3    25  LEU25       0.0019
      7  CD1       26.2170    1.2520   26.2990 C.3    25  LEU25       0.0001
      8  CD2       27.6990    0.1020   27.9990 C.3    25  LEU25       0.0001
      9  N         29.6170    5.3040   28.5800 N.am   26  GLY26      -0.1942
     10  CA        30.6890    6.2690   28.3870 C.3    26  GLY26       0.2014
     11  C         30.2980    7.4160   27.4810 C.2    26  GLY26       0.2639
     12  O         29.1850    7.4450   26.9550 O.2    26  GLY26      -0.2714
     13  N         31.2070    8.3750   27.3120 N.am   27  GLU27      -0.1963
     14  CA        31.0150    9.5420   26.4690 C.3    27  GLU27       0.1733
     15  C         31.2270    9.1300   24.9740 C.2    27  GLU27       0.2616
     16  O         32.2010    8.4360   24.6350 O.2    27  GLU27      -0.2715
     17  CB        31.9300   10.7070   26.9560 C.3    27  GLU27       0.0429
     18  CG        31.7850   11.9470   26.1160 C.3    27  GLU27       0.1163
     19  CD        32.5510   13.1040   26.6830 C.2    27  GLU27       0.3649
     20  OE1       32.2070   13.5380   27.8000 O.co2  27  GLU27      -0.2457
     21  OE2       33.4870   13.5810   26.0180 O.co2  27  GLU27      -0.2457
     22  N         30.2770    9.5310   24.1260 N.am   28  GLY28      -0.1955
     23  CA        30.3100    9.2730   22.6960 C.3    28  GLY28       0.1869
     24  C         30.4860   10.5540   21.8990 C.2    28  GLY28       0.2309
     25  O         30.8100   11.6050   22.4580 O.2    28  GLY28      -0.2863
     26  N         26.5090    8.2070   26.0240 N.3    33  VAL33      -0.1245
     27  CA        25.8970    6.9070   25.7320 C.3    33  VAL33       0.1561
     28  C         25.6070    6.1120   27.0070 C.2    33  VAL33       0.2260
     29  O         26.4940    5.9480   27.8510 O.2    33  VAL33      -0.2867
     30  CB        26.7550    6.1000   24.7050 C.3    33  VAL33       0.0252
     31  CG1       26.1780    4.7070   24.4480 C.3    33  VAL33       0.0019
     32  CG2       26.9070    6.8610   23.3960 C.3    33  VAL33       0.0019
     33  N         21.5540    0.6210   23.0900 N.3    51  ALA51      -0.1245
     34  CA        22.4190    1.7340   23.4400 C.3    51  ALA51       0.1562
     35  C         21.6580    3.0190   23.1160 C.2    51  ALA51       0.2260
     36  O         20.9700    3.0980   22.0940 O.2    51  ALA51      -0.2867
     37  CB        23.7120    1.6590   22.6600 C.3    51  ALA51       0.0290
     38  N         22.0090    7.2860   22.9750 N.3    53  LYS53      -0.1245
     39  CA        22.7990    8.5010   22.9090 C.3    53  LYS53       0.1561
     40  C         21.8530    9.6860   23.0890 C.2    53  LYS53       0.2260
     41  O         20.8200    9.7740   22.4240 O.2    53  LYS53      -0.2867
     42  CB        23.5430    8.6120   21.5780 C.3    53  LYS53       0.0271
     43  CG        24.5440    9.7650   21.5610 C.3    53  LYS53       0.0035
     44  CD        25.3270    9.8590   20.2960 C.3    53  LYS53       0.0206
     45  CE        26.5670    9.0340   20.3680 C.3    53  LYS53       0.1093
     46  NZ        27.3980    9.1840   19.1540 N.3    53  LYS53      -0.1314
     47  N         23.6040   15.9720   16.8970 N.3    67  LEU67      -0.1245
     48  CA        22.9720   14.7040   17.2500 C.3    67  LEU67       0.1561
     49  C         21.8130   14.3490   16.3050 C.2    67  LEU67       0.2260
     50  O         21.7060   13.1890   15.9060 O.2    67  LEU67      -0.2867
     51  CB        22.5060   14.7020   18.7150 C.3    67  LEU67       0.0270
     52  CG        22.0300   13.3530   19.2760 C.3    67  LEU67       0.0019
     53  CD1       23.1010   12.2880   19.1470 C.3    67  LEU67       0.0001
     54  CD2       21.5990   13.4910   20.7100 C.3    67  LEU67       0.0001
     55  N         23.3160   13.2820   12.9100 N.3    70  GLU70      -0.1182
     56  CA        23.8690   11.9250   12.9580 C.3    70  GLU70       0.1915
     57  C         22.7570   10.8890   12.8130 C.2    70  GLU70       0.2634
     58  O         22.9220    9.9150   12.0720 O.2    70  GLU70      -0.2714
     59  CB        24.6920   11.7080   14.2460 C.2    70  GLU70       0.0085
     60  CG        25.4800   10.4000   14.2990 C.2    70  GLU70       0.0835
     61  CD        26.3490   10.2130   15.5290 C.2    70  GLU70       0.3877
     62  OE1       26.0870   10.8790   16.5550 O.co2  70  GLU70      -0.2406
     63  OE2       27.2900    9.3920   15.4720 O.co2  70  GLU70      -0.2406
     64  N         21.6150   11.1270   13.4890 N.am   71  MET71      -0.1976
     65  CA        20.4070   10.2830   13.4260 C.3    71  MET71       0.1605
     66  C         19.8160   10.3030   12.0180 C.2    71  MET71       0.2287
     67  O         19.5350    9.2450   11.4580 O.2    71  MET71      -0.2864
     68  CB        19.3830   10.7720   14.4410 C.3    71  MET71       0.0413
     69  CG        17.9980   10.2350   14.2130 C.3    71  MET71       0.0598
     70  SD        16.9140   10.8000   15.4970 S.3    71  MET71      -0.1393
     71  CE        16.5760   12.4850   14.9180 C.3    71  MET71       0.0692
     72  N         21.9590    8.3160    9.6870 N.3    74  MET74      -0.1245
     73  CA        21.7640    6.8740    9.8930 C.3    74  MET74       0.1570
     74  C         20.5010    6.3740    9.2040 C.2    74  MET74       0.2261
     75  O         20.4940    5.2490    8.7100 O.2    74  MET74      -0.2867
     76  CB        21.7710    6.5190   11.3780 C.3    74  MET74       0.0387
     77  CG        23.1550    6.5410   11.9750 C.3    74  MET74       0.0595
     78  SD        23.1080    6.4760   13.7670 S.3    74  MET74      -0.1393
     79  CE        22.9410    4.7270   14.0020 C.3    74  MET74       0.0692
     80  N         27.0780    0.2460   13.3870 N.3    84  ILE84      -0.1245
     81  CA        26.1120    0.4090   14.4910 C.3    84  ILE84       0.1561
     82  C         24.8920    0.9910   13.8160 C.2    84  ILE84       0.2260
     83  O         24.9820    2.1020   13.2780 O.2    84  ILE84      -0.2867
     84  CB        26.6000    1.3550   15.6490 C.3    84  ILE84       0.0252
     85  CG1       27.7770    0.7550   16.4500 C.3    84  ILE84       0.0019
     86  CG2       25.4320    1.7830   16.5800 C.3    84  ILE84       0.0019
     87  CD1       27.5020   -0.4900   17.3270 C.3    84  ILE84       0.0001
     88  N         18.5190    8.8620   20.9260 N.3    98  VAL98      -0.1245
     89  CA        18.7940    8.1840   19.6440 C.3    98  VAL98       0.1561
     90  C         19.0900    6.7310   20.0100 C.2    98  VAL98       0.2260
     91  O         20.1410    6.4410   20.6140 O.2    98  VAL98      -0.2867
     92  CB        19.9230    8.8370   18.7940 C.3    98  VAL98       0.0252
     93  CG1       20.0770    8.1220   17.4640 C.3    98  VAL98       0.0019
     94  CG2       19.6540   10.3170   18.5600 C.3    98  VAL98       0.0019
     95  N         20.0520    2.9660   19.3480 N.3   100  VAL100     -0.1231
     96  CA        20.9610    2.2420   18.4480 C.3   100  VAL100      0.1692
     97  C         21.3080    0.8460   18.9990 C.2   100  VAL100      0.2592
     98  O         21.0190    0.5560   20.1630 O.2   100  VAL100     -0.2718
     99  CB        22.2450    3.0740   18.1550 C.3   100  VAL100      0.0266
    100  CG1       21.9290    4.4820   17.6590 C.3   100  VAL100      0.0020
    101  CG2       23.1570    3.1280   19.3590 C.3   100  VAL100      0.0020
    102  N         21.9540    0.0060   18.1740 N.am  101  GLU101     -0.1966
    103  CA        22.4010   -1.3540   18.5200 C.3   101  GLU101      0.1733
    104  C         23.4030   -1.3090   19.6470 C.2   101  GLU101      0.2616
    105  O         24.1790   -0.3600   19.7290 O.2   101  GLU101     -0.2715
    106  CB        23.0580   -2.0370   17.2950 C.3   101  GLU101      0.0429
    107  CG        22.0720   -2.5390   16.2600 C.3   101  GLU101      0.1163
    108  CD        22.6880   -3.1470   15.0160 C.2   101  GLU101      0.3649
    109  OE1       23.6480   -2.5530   14.4760 O.co2 101  GLU101     -0.2457
    110  OE2       22.1810   -4.1930   14.5520 O.co2 101  GLU101     -0.2457
    111  N         23.4480   -2.3560   20.4660 N.am  102  TYR102     -0.1960
    112  CA        24.4080   -2.3940   21.5740 C.3   102  TYR102      0.1771
    113  C         25.5230   -3.4850   21.4130 C.2   102  TYR102      0.2619
    114  O         25.2450   -4.6800   21.2610 O.2   102  TYR102     -0.2715
    115  CB        23.6710   -2.4950   22.9170 C.3   102  TYR102      0.0574
    116  CG        24.5140   -2.9480   24.0880 C.ar  102  TYR102     -0.0198
    117  CD1       25.5730   -2.1700   24.5560 C.ar  102  TYR102     -0.0009
    118  CD2       24.2170   -4.1250   24.7690 C.ar  102  TYR102     -0.0009
    119  CE1       26.3620   -2.5910   25.6220 C.ar  102  TYR102      0.0417
    120  CE2       24.9790   -4.5430   25.8570 C.ar  102  TYR102      0.0417
    121  CZ        26.0490   -3.7700   26.2840 C.ar  102  TYR102      0.1957
    122  OH        26.7890   -4.1810   27.3710 O.3   102  TYR102     -0.2866
    123  N         26.7930   -3.0290   21.4950 N.am  103  ALA103     -0.1963
    124  CA        28.0210   -3.8300   21.4090 C.3   103  ALA103      0.1728
    125  C         28.6640   -3.9300   22.7770 C.2   103  ALA103      0.2616
    126  O         29.3010   -2.9790   23.2330 O.2   103  ALA103     -0.2715
    127  CB        28.9750   -3.2100   20.4180 C.3   103  ALA103      0.0334
    128  N         28.4690   -5.0990   23.4280 N.am  104  SER104     -0.1950
    129  CA        28.8690   -5.4470   24.8030 C.3   104  SER104      0.1924
    130  C         30.3720   -5.6660   25.0550 C.2   104  SER104      0.2314
    131  O         30.7830   -5.5530   26.2170 O.2   104  SER104     -0.2863
    132  CB        28.0920   -6.6720   25.2930 C.3   104  SER104      0.2116
    133  OG        28.6550   -7.9010   24.8570 O.3   104  SER104     -0.2180
    134  N         32.9190   -3.8470   24.0230 N.3   106  GLY106     -0.1210
    135  CA        33.5930   -2.5560   23.9490 C.3   106  GLY106      0.1956
    136  C         34.2210   -2.2560   22.6160 C.2   106  GLY106      0.2611
    137  O         33.7300   -2.7450   21.5970 O.2   106  GLY106     -0.2717
    138  N         35.2900   -1.4230   22.6000 N.am  107  ASN107     -0.1974
    139  CA        35.9650   -1.0700   21.3520 C.3   107  ASN107      0.1688
    140  C         37.0340   -2.1210   20.9680 C.2   107  ASN107      0.2292
    141  O         37.5130   -2.8440   21.8440 O.2   107  ASN107     -0.2864
    142  CB        36.4980    0.3750   21.3700 C.3   107  ASN107      0.1181
    143  CG        37.6760    0.6630   22.2760 C.2   107  ASN107      0.2629
    144  OD1       38.7360    0.0330   22.1960 O.2   107  ASN107     -0.2716
    145  ND2       37.5480    1.7100   23.0790 N.am  107  ASN107     -0.0877
    146  N         40.4950   -2.1660   23.0940 N.3   110  GLU110     -0.1245
    147  CA        40.3090   -2.7920   24.4140 C.3   110  GLU110      0.1567
    148  C         40.1260   -4.3100   24.2730 C.2   110  GLU110      0.2260
    149  O         40.7320   -5.0700   25.0300 O.2   110  GLU110     -0.2867
    150  CB        39.0840   -2.1960   25.1330 C.3   110  GLU110      0.0388
    151  CG        39.3600   -0.8640   25.8170 C.3   110  GLU110      0.1160
    152  CD        38.1580   -0.0080   26.1940 C.2   110  GLU110      0.3649
    153  OE1       37.0210   -0.3000   25.7470 O.co2 110  GLU110     -0.2457
    154  OE2       38.3700    0.9920   26.9190 O.co2 110  GLU110     -0.2457
    155  N         39.4410    2.3480   18.2510 N.3   152  ARG152     -0.1231
    156  CA        38.5870    2.9880   19.2600 C.3   152  ARG152      0.1694
    157  C         37.1720    3.2470   18.7600 C.2   152  ARG152      0.2592
    158  O         36.2650    3.2750   19.5770 O.2   152  ARG152     -0.2718
    159  CB        39.2130    4.2830   19.8220 C.3   152  ARG152      0.0321
    160  CG        39.4530    5.3680   18.7740 C.3   152  ARG152      0.0489
    161  CD        40.2110    6.5790   19.2920 C.3   152  ARG152      0.2205
    162  NE        40.5270    7.4760   18.1850 N.pl3 152  ARG152     -0.0865
    163  CZ        41.7120    7.5410   17.5840 C.cat 152  ARG152      0.5346
    164  NH1       42.7350    6.8220   18.0310 N.pl3 152  ARG152      0.1354
    165  NH2       41.8880    8.3510   16.5460 N.pl3 152  ARG152      0.1354
    166  N         36.9820    3.4180   17.4280 N.am  153  ASN153     -0.1974
    167  CA        35.6830    3.7100   16.8140 C.3   153  ASN153      0.1688
    168  C         35.0720    2.4930   16.0780 C.2   153  ASN153      0.2292
    169  O         34.2670    2.6290   15.1440 O.2   153  ASN153     -0.2864
    170  CB        35.7880    4.9500   15.9250 C.3   153  ASN153      0.1181
    171  CG        36.0180    6.2220   16.6940 C.2   153  ASN153      0.2629
    172  OD1       35.4100    6.4630   17.7470 O.2   153  ASN153     -0.2716
    173  ND2       36.9020    7.0700   16.1870 N.am  153  ASN153     -0.0877
    174  N         33.2220   -0.9200   17.4090 N.3   155  LEU155     -0.1245
    175  CA        32.6300   -1.6240   18.5280 C.3   155  LEU155      0.1561
    176  C         32.5840   -3.1010   18.1300 C.2   155  LEU155      0.2260
    177  O         32.4810   -3.4160   16.9420 O.2   155  LEU155     -0.2867
    178  CB        31.2080   -1.1060   18.8110 C.3   155  LEU155      0.0270
    179  CG        30.9160   -0.0130   19.8820 C.3   155  LEU155      0.0019
    180  CD1       31.7970   -0.1020   21.1060 C.3   155  LEU155      0.0001
    181  CD2       30.9550    1.3580   19.3040 C.3   155  LEU155      0.0001
    182  N         31.5140    2.7620   14.2960 N.3   165  ALA165     -0.1231
    183  CA        30.8040    3.7100   15.1170 C.3   165  ALA165      0.1694
    184  C         31.1970    5.1160   14.7310 C.2   165  ALA165      0.2592
    185  O         32.3620    5.3740   14.4320 O.2   165  ALA165     -0.2718
    186  CB        31.1750    3.4750   16.5700 C.3   165  ALA165      0.0304
    187  N         30.2310    6.0360   14.8320 N.am  166  ASP166     -0.1960
    188  CA        30.3760    7.4770   14.6120 C.3   166  ASP166      0.1840
    189  C         31.1270    7.8000   13.3640 C.2   166  ASP166      0.2622
    190  O         32.2480    8.3280   13.3880 O.2   166  ASP166     -0.2715
    191  CB        30.9650    8.1770   15.8320 C.3   166  ASP166      0.1450
    192  CG        30.1920    7.8820   17.1040 C.2   166  ASP166      0.3671
    193  OD1       28.9350    7.7400   17.0360 O.co2 166  ASP166     -0.2456
    194  OD2       30.8320    7.7080   18.1410 O.co2 166  ASP166     -0.2456
    195  N         30.4710    7.4530   12.2700 N.am  167  PHE167     -0.1974
    196  CA        30.9370    7.6100   10.9340 C.3   167  PHE167      0.1639
    197  C         30.5740    8.9960   10.3240 C.2   167  PHE167      0.2290
    198  O         29.6170    9.1240    9.5430 O.2   167  PHE167     -0.2864
    199  CB        30.4690    6.4180   10.0830 C.3   167  PHE167      0.0560
    200  CG        29.1950    5.6980   10.4850 C.ar  167  PHE167     -0.0200
    201  CD1       27.9470    6.1520   10.0410 C.ar  167  PHE167     -0.0042
    202  CD2       29.2480    4.5000   11.1940 C.ar  167  PHE167     -0.0042
    203  CE1       26.7720    5.4510   10.3470 C.ar  167  PHE167     -0.0003
    204  CE2       28.0760    3.7830   11.4740 C.ar  167  PHE167     -0.0003
    205  CZ        26.8430    4.2700   11.0560 C.ar  167  PHE167     -0.0000
@<TRIPOS>BOND
     1    75    74    2
     2    74    73    1
     3   198   197    2
     4    72    73    1
     5    73    76    1
     6   201   203   ar
     7   201   200   ar
     8   199   200    1
     9   199   196    1
    10   197   196    1
    11   203   205   ar
    12   200   202   ar
    13   196   195    1
    14   205   204   ar
    15   202   204   ar
    16    76    77    1
    17    67    66    2
    18    77    78    1
    19    66    65    1
    20    58    57    2
    21   195   189   am
    22    57    56    1
    23    57    64   am
    24    55    56    1
    25    56    59    1
    26    83    82    2
    27   189   190    2
    28   189   188    1
    29    80    81    1
    30    65    64    1
    31    65    68    1
    32    78    79    1
    33    82    81    1
    34    69    68    1
    35    69    70    1
    36    59    60    2
    37   182   183    1
    38    60    61    1
    39   185   184    2
    40   109   108   ar
    41    81    84    1
    42   110   108   ar
    43   188   187    1
    44   188   191    1
    45   184   187   am
    46   184   183    1
    47    71    70    1
    48   108   107    1
    49   183   186    1
    50   169   168    2
    51    63    61   ar
    52    61    62   ar
    53    84    85    1
    54    84    86    1
    55   191   192    1
    56    50    49    2
    57   170   171    1
    58   170   167    1
    59   168   167    1
    60   173   171   am
    61   107   106    1
    62    49    48    1
    63    85    87    1
    64   165   163    1
    65   171   172    2
    66   167   166    1
    67    47    48    1
    68   177   176    2
    69   193   192   ar
    70   192   194   ar
    71    48    51    1
    72   106   103    1
    73   174   175    1
    74   166   157   am
    75    93    92    1
    76   163   164    1
    77   163   162    2
    78   100    99    1
    79   176   175    1
    80    99    96    1
    81    99   101    1
    82   102   103    1
    83   102    97   am
    84   162   161    1
    85   155   156    1
    86    96    97    1
    87    96    95    1
    88   103   104    1
    89   175   178    1
    90    94    92    1
    91    51    52    1
    92   157   156    1
    93   157   158    2
    94   160   161    1
    95   160   159    1
    96    92    89    1
    97   178   179    1
    98    97    98    2
    99    53    52    1
   100    46    45    1
   101   156   159    1
   102    52    54    1
   103   181   179    1
   104    89    90    1
   105    89    88    1
   106   104   105    2
   107   104   111   am
   108   179   180    1
   109    90    91    2
   110    44    45    1
   111    44    43    1
   112   127   124    1
   113   111   112    1
   114   140   139    1
   115   140   141    2
   116   114   113    2
   117   139   142    1
   118   139   138    1
   119   142   143    1
   120   124   123    1
   121   124   125    1
   122   113   123   am
   123   113   112    1
   124    43    42    1
   125   112   115    1
   126    42    39    1
   127   137   136    2
   128    24    25    2
   129    24    23    1
   130    36    35    2
   131   144   143    2
   132   143   145   am
   133    41    40    2
   134   138   136   am
   135   136   135    1
   136    37    34    1
   137    23    22    1
   138   125   126    2
   139   125   128   am
   140    39    38    1
   141    39    40    1
   142   115   116    1
   143    33    34    1
   144   146   147    1
   145    35    34    1
   146    32    30    1
   147   128   129    1
   148   135   134    1
   149   116   117   ar
   150   116   118   ar
   151    22    15   am
   152   148   147    1
   153   148   149    2
   154   147   150    1
   155    31    30    1
   156   117   119   ar
   157    16    15    2
   158    30    27    1
   159   118   120   ar
   160   129   130    1
   161   129   132    1
   162   133   132    1
   163    15    14    1
   164   130   131    2
   165   150   151    1
   166   119   121   ar
   167    27    26    1
   168    27    28    1
   169   153   152   ar
   170   151   152    1
   171   120   121   ar
   172    21    19   ar
   173    18    19    1
   174    18    17    1
   175   152   154   ar
   176   121   122    1
   177     7     6    1
   178    14    17    1
   179    14    13    1
   180    19    20   ar
   181    12    11    2
   182    28    29    2
   183    13    11   am
   184     5     6    1
   185     5     2    1
   186    11    10    1
   187     6     8    1
   188    10     9    1
   189     4     3    2
   190     9     3   am
   191     3     2    1
   192     2     1    1
