@<TRIPOS>MOLECULE
tmp/4nkaA00.pdb
 184 171 0 0 0
SMALL
GASTEIGER

@<TRIPOS>ATOM
      1  N         88.5100    6.7760    5.7100 N.3    21  LEU21      -0.1231
      2  CA        87.4470    5.7760    5.8660 C.3    21  LEU21       0.1693
      3  C         86.1550    6.3340    6.4800 C.2    21  LEU21       0.2592
      4  O         85.0640    5.8440    6.1730 O.2    21  LEU21      -0.2718
      5  CB        87.9350    4.5490    6.6450 C.3    21  LEU21       0.0284
      6  CG        88.8860    3.6120    5.9140 C.3    21  LEU21       0.0019
      7  CD1       89.5920    2.6970    6.8950 C.3    21  LEU21       0.0001
      8  CD2       88.1650    2.8080    4.8410 C.3    21  LEU21       0.0001
      9  N         86.2930    7.3510    7.3220 N.am   22  GLY22      -0.1957
     10  CA        85.1550    8.0050    7.9530 C.3    22  GLY22       0.1869
     11  C         85.5210    9.1450    8.8810 C.2    22  GLY22       0.2309
     12  O         86.6110    9.1470    9.4720 O.2    22  GLY22      -0.2863
     13  N         90.0210    8.4760   10.6880 N.3    25  VAL25      -0.1245
     14  CA        90.4900    7.1300   10.3580 C.3    25  VAL25       0.1561
     15  C         90.7220    7.0630    8.8450 C.2    25  VAL25       0.2260
     16  O         89.8170    7.3810    8.0670 O.2    25  VAL25      -0.2867
     17  CB        89.4970    6.0420   10.8740 C.3    25  VAL25       0.0252
     18  CG1       89.9240    4.6360   10.4560 C.3    25  VAL25       0.0019
     19  CG2       89.3390    6.1180   12.3900 C.3    25  VAL25       0.0019
     20  N         93.9640    0.1520    9.1100 N.3    45  ALA45      -0.1245
     21  CA        93.2490    1.3970    9.3670 C.3    45  ALA45       0.1562
     22  C         94.1290    2.2040   10.2890 C.2    45  ALA45       0.2260
     23  O         94.7270    1.6410   11.2030 O.2    45  ALA45      -0.2867
     24  CB        91.9000    1.1300   10.0210 C.3    45  ALA45       0.0290
     25  N         94.3540    5.5740   12.8150 N.3    47  LYS47      -0.1245
     26  CA        93.6810    6.6530   13.5370 C.3    47  LYS47       0.1561
     27  C         94.7330    7.6980   13.8990 C.2    47  LYS47       0.2260
     28  O         95.8100    7.3640   14.4100 O.2    47  LYS47      -0.2867
     29  CB        92.9210    6.1380   14.7770 C.3    47  LYS47       0.0271
     30  CG        91.9290    7.1620   15.3510 C.3    47  LYS47       0.0035
     31  CD        91.2110    6.4670   16.5220 C.3    47  LYS47       0.0206
     32  CE        89.7480    6.8950   16.5810 C.3    47  LYS47       0.1093
     33  NZ        89.7940    8.3330   17.0080 N.3    47  LYS47      -0.1314
     34  N         93.8980    9.9220   22.5890 N.3    61  LEU61      -0.1245
     35  CA        94.3800    8.9760   21.5730 C.3    61  LEU61       0.1561
     36  C         95.4380    8.0470   22.1540 C.2    61  LEU61       0.2260
     37  O         95.3960    6.8440   21.8790 O.2    61  LEU61      -0.2867
     38  CB        94.9070    9.7030   20.3180 C.3    61  LEU61       0.0270
     39  CG        95.2600    8.8380   19.0870 C.3    61  LEU61       0.0019
     40  CD1       94.0910    7.9400   18.6830 C.3    61  LEU61       0.0001
     41  CD2       95.7120    9.7050   17.9060 C.3    61  LEU61       0.0001
     42  N         93.7630    5.4890   24.4500 N.3    64  GLU64      -0.1245
     43  CA        93.0710    4.4600   23.6620 C.3    64  GLU64       0.1567
     44  C         94.0510    3.3850   23.2190 C.2    64  GLU64       0.2260
     45  O         93.7420    2.2020   23.3400 O.2    64  GLU64      -0.2867
     46  CB        92.3560    5.0580   22.4370 C.3    64  GLU64       0.0388
     47  CG        91.0660    5.7850   22.7760 C.3    64  GLU64       0.1160
     48  CD        90.5100    6.7180   21.7140 C.2    64  GLU64       0.3649
     49  OE1       90.4280    6.3240   20.5300 O.co2  64  GLU64      -0.2457
     50  OE2       90.1510    7.8600   22.0780 O.co2  64  GLU64      -0.2457
     51  N         94.2840   -0.5930   24.4240 N.3    68  MET68      -0.1245
     52  CA        94.3250   -1.6850   23.4410 C.3    68  MET68       0.1570
     53  C         95.5150   -2.6070   23.7120 C.2    68  MET68       0.2261
     54  O         95.3590   -3.8190   23.6490 O.2    68  MET68      -0.2867
     55  CB        94.3630   -1.1300   22.0180 C.3    68  MET68       0.0387
     56  CG        93.0480   -0.5030   21.5990 C.3    68  MET68       0.0595
     57  SD        93.1370    0.2110   19.9550 S.3    68  MET68      -0.1393
     58  CE        92.7200   -1.1920   19.0010 C.3    68  MET68       0.0692
     59  N         88.5270   -5.2170   17.1270 N.3    78  ILE78      -0.1245
     60  CA        89.4920   -4.5660   16.2140 C.3    78  ILE78       0.1561
     61  C         90.8130   -4.5460   16.9940 C.2    78  ILE78       0.2260
     62  O         90.8690   -3.9380   18.0700 O.2    78  ILE78      -0.2867
     63  CB        89.0410   -3.1380   15.7590 C.3    78  ILE78       0.0252
     64  CG1       87.8410   -3.1960   14.7670 C.3    78  ILE78       0.0019
     65  CG2       90.2170   -2.3480   15.1670 C.3    78  ILE78       0.0019
     66  CD1       88.1470   -3.7720   13.3410 C.3    78  ILE78       0.0001
     67  N         97.9880    5.5940   15.1560 N.3    92  VAL92      -0.1245
     68  CA        97.6270    4.3720   15.8740 C.3    92  VAL92       0.1561
     69  C         97.1370    3.4330   14.7850 C.2    92  VAL92       0.2260
     70  O         96.2050    3.7780   14.0650 O.2    92  VAL92      -0.2867
     71  CB        96.5830    4.6290   16.9980 C.3    92  VAL92       0.0252
     72  CG1       96.1140    3.3180   17.6360 C.3    92  VAL92       0.0019
     73  CG2       97.1590    5.5660   18.0610 C.3    92  VAL92       0.0019
     74  N         95.5910   -0.0270   13.4300 N.3    94  VAL94      -0.1231
     75  CA        94.6600   -1.0820   13.8460 C.3    94  VAL94       0.1692
     76  C         94.2170   -1.9030   12.6340 C.2    94  VAL94       0.2592
     77  O         94.4500   -1.4870   11.4940 O.2    94  VAL94      -0.2718
     78  CB        93.4350   -0.4970   14.6140 C.3    94  VAL94       0.0266
     79  CG1       93.8570    0.2610   15.8690 C.3    94  VAL94       0.0020
     80  CG2       92.5890    0.3980   13.7090 C.3    94  VAL94       0.0020
     81  N         93.5280   -3.0370   12.8880 N.am   95  GLU95      -0.1966
     82  CA        92.9950   -3.9070   11.8490 C.3    95  GLU95       0.1733
     83  C         91.9660   -3.1900   10.9750 C.2    95  GLU95       0.2616
     84  O         91.1710   -2.3870   11.4800 O.2    95  GLU95      -0.2715
     85  CB        92.3460   -5.1430   12.4700 C.3    95  GLU95       0.0429
     86  CG        93.3210   -6.1140   13.0990 C.3    95  GLU95       0.1163
     87  CD        92.6530   -7.3280   13.7190 C.2    95  GLU95       0.3649
     88  OE1       91.6360   -7.1480   14.4220 O.co2  95  GLU95      -0.2457
     89  OE2       93.1570   -8.4570   13.5310 O.co2  95  GLU95      -0.2457
     90  N         91.9920   -3.4780    9.6570 N.am   96  TYR96      -0.1960
     91  CA        91.0460   -2.9310    8.7020 C.3    96  TYR96       0.1771
     92  C         89.9340   -3.9310    8.4250 C.2    96  TYR96       0.2619
     93  O         90.2140   -5.0760    8.0610 O.2    96  TYR96      -0.2715
     94  CB        91.7480   -2.5390    7.3800 C.3    96  TYR96       0.0574
     95  CG        90.8160   -2.1660    6.2420 C.ar   96  TYR96      -0.0198
     96  CD1       89.9030   -1.1200    6.3750 C.ar   96  TYR96      -0.0009
     97  CD2       90.9210   -2.7850    4.9980 C.ar   96  TYR96      -0.0009
     98  CE1       89.0730   -0.7440    5.3180 C.ar   96  TYR96       0.0417
     99  CE2       90.0980   -2.4140    3.9320 C.ar   96  TYR96       0.0417
    100  CZ        89.1840   -1.3850    4.0930 C.ar   96  TYR96       0.1957
    101  OH        88.3710   -1.0200    3.0390 O.3    96  TYR96      -0.2866
    102  N         88.6770   -3.4710    8.5480 N.am   97  ALA97      -0.1963
    103  CA        87.4810   -4.2570    8.2580 C.3    97  ALA97       0.1728
    104  C         86.8570   -3.6210    7.0230 C.2    97  ALA97       0.2616
    105  O         86.3710   -2.4920    7.0830 O.2    97  ALA97      -0.2715
    106  CB        86.5300   -4.2230    9.4490 C.3    97  ALA97       0.0334
    107  N         86.9830   -4.3010    5.8850 N.am   98  SER98      -0.1950
    108  CA        86.5810   -3.7910    4.5590 C.3    98  SER98       0.1924
    109  C         85.0880   -3.6820    4.2940 C.2    98  SER98       0.2314
    110  O         84.7040   -2.8760    3.4440 O.2    98  SER98      -0.2863
    111  CB        87.2280   -4.6170    3.4480 C.3    98  SER98       0.2116
    112  OG        86.6900   -5.9270    3.4130 O.3    98  SER98      -0.2180
    113  N         82.7070   -2.5410    6.2920 N.3   100  GLY100     -0.1210
    114  CA        82.1020   -1.4830    7.1080 C.3   100  GLY100      0.1956
    115  C         81.3900   -1.9000    8.3890 C.2   100  GLY100      0.2611
    116  O         81.5750   -3.0260    8.8740 O.2   100  GLY100     -0.2717
    117  N         80.5720   -0.9810    8.9620 N.am  101  ASN101     -0.1974
    118  CA        79.8650   -1.2650   10.2090 C.3   101  ASN101      0.1688
    119  C         78.7230   -2.2790   10.0120 C.2   101  ASN101      0.2292
    120  O         78.2160   -2.4270    8.9070 O.2   101  ASN101     -0.2864
    121  CB        79.4210    0.0010   10.9670 C.3   101  ASN101      0.1181
    122  CG        78.2450    0.7860   10.4170 C.2   101  ASN101      0.2629
    123  OD1       77.1380    0.2690   10.2400 O.2   101  ASN101     -0.2716
    124  ND2       78.4090    2.1020   10.3300 N.am  101  ASN101     -0.0877
    125  N         75.2100   -0.9800    8.4630 N.3   104  GLU104     -0.1245
    126  CA        75.2590   -0.8070    7.0030 C.3   104  GLU104      0.1567
    127  C         75.3210   -2.1620    6.2940 C.2   104  GLU104      0.2260
    128  O         74.6480   -2.3540    5.2880 O.2   104  GLU104     -0.2867
    129  CB        76.4740    0.0420    6.5880 C.3   104  GLU104      0.0388
    130  CG        76.4130    1.5100    6.9930 C.3   104  GLU104      0.1160
    131  CD        77.7450    2.2460    7.1030 C.2   104  GLU104      0.3649
    132  OE1       78.7980    1.6560    6.7600 O.co2 104  GLU104     -0.2457
    133  OE2       77.7320    3.4180    7.5490 O.co2 104  GLU104     -0.2457
    134  N         76.5140   -0.0300   14.8740 N.3   148  ARG148     -0.1231
    135  CA        77.3760    0.9680   14.2260 C.3   148  ARG148      0.1694
    136  C         78.8150    0.8540   14.6780 C.2   148  ARG148      0.2592
    137  O         79.6860    1.3230   13.9560 O.2   148  ARG148     -0.2718
    138  CB        76.8730    2.4180   14.4750 C.3   148  ARG148      0.0321
    139  CG        77.2130    2.9620   15.8660 C.3   148  ARG148      0.0489
    140  CD        76.2740    4.0280   16.3750 C.3   148  ARG148      0.2205
    141  NE        76.0210    3.8680   17.8110 N.pl3 148  ARG148     -0.0865
    142  CZ        75.0120    4.4310   18.4700 C.cat 148  ARG148      0.5346
    143  NH1       74.1540    5.2180   17.8370 N.pl3 148  ARG148      0.1354
    144  NH2       74.8590    4.2150   19.7660 N.pl3 148  ARG148      0.1354
    145  N         79.0560    0.3120   15.9060 N.am  149  ASN149     -0.1974
    146  CA        80.3840    0.1710   16.5160 C.3   149  ASN149      0.1688
    147  C         80.9420   -1.2470   16.3800 C.2   149  ASN149      0.2292
    148  O         81.8750   -1.6160   17.0940 O.2   149  ASN149     -0.2864
    149  CB        80.3660    0.6620   17.9730 C.3   149  ASN149      0.1181
    150  CG        80.1450    2.1520   18.0770 C.2   149  ASN149      0.2629
    151  OD1       80.6490    2.9430   17.2740 O.2   149  ASN149     -0.2716
    152  ND2       79.3220    2.5680   19.0240 N.am  149  ASN149     -0.0877
    153  N         82.4020   -3.8140   13.3660 N.3   151  LEU151     -0.1245
    154  CA        82.9140   -3.7960   12.0090 C.3   151  LEU151      0.1561
    155  C         82.9640   -5.2020   11.4080 C.2   151  LEU151      0.2260
    156  O         83.0910   -6.1860   12.1350 O.2   151  LEU151     -0.2867
    157  CB        84.2620   -3.0450   11.9470 C.3   151  LEU151      0.0270
    158  CG        84.1800   -1.5180   12.2000 C.3   151  LEU151      0.0019
    159  CD1       85.5140   -0.9610   12.6640 C.3   151  LEU151      0.0001
    160  CD2       83.7660   -0.7720   10.9190 C.3   151  LEU151      0.0001
    161  N         84.5160   -2.3570   17.7620 N.3   161  ALA161     -0.1231
    162  CA        85.3740   -1.1710   17.7400 C.3   161  ALA161      0.1694
    163  C         85.0680   -0.2580   18.9270 C.2   161  ALA161      0.2592
    164  O         84.1300   -0.5300   19.6710 O.2   161  ALA161     -0.2718
    165  CB        85.1780   -0.4140   16.4330 C.3   161  ALA161      0.0304
    166  N         85.8880    0.8050   19.1190 N.am  162  ASP162     -0.1960
    167  CA        85.7430    1.8730   20.1350 C.3   162  ASP162      0.1840
    168  C         85.4900    1.3960   21.5750 C.2   162  ASP162      0.2622
    169  O         84.7320    2.0330   22.3170 O.2   162  ASP162     -0.2715
    170  CB        84.6360    2.8660   19.7080 C.3   162  ASP162      0.1450
    171  CG        85.1350    4.1080   18.9940 C.2   162  ASP162      0.3671
    172  OD1       86.2290    4.6060   19.3580 O.co2 162  ASP162     -0.2456
    173  OD2       84.4070    4.6150   18.1050 O.co2 162  ASP162     -0.2456
    174  N         86.1050    0.2670   21.9580 N.am  163  PHE163     -0.1974
    175  CA        85.9600   -0.3490   23.2850 C.3   163  PHE163      0.1639
    176  C         86.8360    0.2910   24.3680 C.2   163  PHE163      0.2290
    177  O         86.4790    0.2220   25.5490 O.2   163  PHE163     -0.2864
    178  CB        86.1930   -1.8680   23.2130 C.3   163  PHE163      0.0560
    179  CG        87.4090   -2.2850   22.4160 C.ar  163  PHE163     -0.0200
    180  CD1       88.6560   -2.3830   23.0210 C.ar  163  PHE163     -0.0042
    181  CD2       87.3070   -2.5690   21.0610 C.ar  163  PHE163     -0.0042
    182  CE1       89.7790   -2.7530   22.2840 C.ar  163  PHE163     -0.0003
    183  CE2       88.4330   -2.9300   20.3230 C.ar  163  PHE163     -0.0003
    184  CZ        89.6600   -3.0240   20.9400 C.ar  163  PHE163     -0.0000
@<TRIPOS>BOND
     1   101   100    1
     2   112   111    1
     3   110   109    2
     4   111   108    1
     5    99   100   ar
     6    99    97   ar
     7   100    98   ar
     8   109   108    1
     9   108   107    1
    10     8     6    1
    11    97    95   ar
    12   128   127    2
    13    98    96   ar
    14     1     2    1
    15     2     3    1
    16     2     5    1
    17   107   104   am
    18     6     5    1
    19     6     7    1
    20     4     3    2
    21    95    96   ar
    22    95    94    1
    23   113   114    1
    24   127   126    1
    25     3     9   am
    26   129   130    1
    27   129   126    1
    28   132   131   ar
    29   130   131    1
    30   126   125    1
    31   104   105    2
    32   104   103    1
    33   131   133   ar
    34   114   115    1
    35     9    10    1
    36    94    91    1
    37    10    11    1
    38    93    92    2
    39    16    15    2
    40   103   102    1
    41   103   106    1
    42   115   116    2
    43   115   117   am
    44    92   102   am
    45    92    91    1
    46    91    90    1
    47    15    14    1
    48    11    12    2
    49   120   119    2
    50   117   118    1
    51    20    21    1
    52    21    24    1
    53    21    22    1
    54    90    83   am
    55   119   118    1
    56   118   121    1
    57   123   122    2
    58    22    23    2
    59   124   122   am
    60    14    13    1
    61    14    17    1
    62   122   121    1
    63    18    17    1
    64    17    19    1
    65   160   158    1
    66    83    84    2
    67    83    82    1
    68   155   154    1
    69   155   156    2
    70    77    76    2
    71    82    85    1
    72    82    81    1
    73   157   154    1
    74   157   158    1
    75   154   153    1
    76   158   159    1
    77    85    86    1
    78    76    81   am
    79    76    75    1
    80    25    26    1
    81    86    87    1
    82    66    64    1
    83    74    75    1
    84    89    87   ar
    85    26    27    1
    86    26    29    1
    87    80    78    1
    88    87    88   ar
    89    75    78    1
    90    27    28    2
    91   137   136    2
    92    70    69    2
    93   135   138    1
    94   135   136    1
    95   135   134    1
    96   138   139    1
    97    78    79    1
    98   136   145   am
    99    64    63    1
   100    29    30    1
   101    69    68    1
   102    67    68    1
   103    65    63    1
   104    30    31    1
   105    63    60    1
   106   139   140    1
   107    68    71    1
   108   145   146    1
   109    60    61    1
   110    60    59    1
   111   140   141    1
   112   147   146    1
   113   147   148    2
   114   165   162    1
   115   146   149    1
   116    31    32    1
   117    32    33    1
   118    61    62    2
   119    71    72    1
   120    71    73    1
   121   151   150    2
   122   162   161    1
   123   162   163    1
   124   141   142    2
   125   143   142    1
   126    41    39    1
   127   149   150    1
   128   150   152   am
   129   173   171   ar
   130   142   144    1
   131    40    39    1
   132   163   166   am
   133   163   164    2
   134   171   172   ar
   135   171   170    1
   136    58    57    1
   137    39    38    1
   138   166   167    1
   139   170   167    1
   140    57    56    1
   141   167   168    1
   142    38    35    1
   143   183   184   ar
   144   183   181   ar
   145    49    48   ar
   146   184   182   ar
   147   181   179   ar
   148    35    36    1
   149    35    34    1
   150   168   174   am
   151   168   169    2
   152    56    55    1
   153    48    50   ar
   154    48    47    1
   155    37    36    2
   156   174   175    1
   157    55    52    1
   158   182   180   ar
   159   179   180   ar
   160   179   178    1
   161    46    47    1
   162    46    43    1
   163   178   175    1
   164    44    45    2
   165    44    43    1
   166   175   176    1
   167    52    53    1
   168    52    51    1
   169    54    53    2
   170    43    42    1
   171   176   177    2
