@<TRIPOS>MOLECULE
tmp/4nkfA00.pdb
 164 151 0 0 0
SMALL
GASTEIGER

@<TRIPOS>ATOM
      1  N         15.3020   26.6850   -1.4740 N.3    88  PHE88      -0.1227
      2  CA        15.8650   27.1630   -2.7400 C.3    88  PHE88       0.1736
      3  C         16.3810   28.5870   -2.6850 C.2    88  PHE88       0.2595
      4  O         17.4330   28.8660   -3.2560 O.2    88  PHE88      -0.2718
      5  CB        14.8490   27.0510   -3.8870 C.3    88  PHE88       0.0547
      6  CG        14.6130   25.6210   -4.2990 C.ar   88  PHE88      -0.0202
      7  CD1       15.6670   24.8180   -4.7190 C.ar   88  PHE88      -0.0042
      8  CD2       13.3370   25.0830   -4.2950 C.ar   88  PHE88      -0.0042
      9  CE1       15.4500   23.4880   -5.0710 C.ar   88  PHE88      -0.0003
     10  CE2       13.1280   23.7520   -4.6580 C.ar   88  PHE88      -0.0003
     11  CZ        14.1860   22.9600   -5.0060 C.ar   88  PHE88      -0.0000
     12  N         15.6530   29.4850   -2.0140 N.am   89  LEU89      -0.1980
     13  CA        16.0120   30.9000   -1.9820 C.3    89  LEU89       0.1596
     14  C         17.2110   31.1750   -1.1050 C.2    89  LEU89       0.2287
     15  O         17.9980   32.0430   -1.4610 O.2    89  LEU89      -0.2864
     16  CB        14.8280   31.7920   -1.5740 C.3    89  LEU89       0.0297
     17  CG        13.5730   31.7300   -2.5000 C.3    89  LEU89       0.0022
     18  CD1       12.5540   32.7860   -2.1210 C.3    89  LEU89       0.0001
     19  CD2       13.9220   31.8730   -3.9930 C.3    89  LEU89       0.0001
     20  N         19.9410   30.0120   -3.4360 N.3    92  ASP92      -0.1225
     21  CA        20.0070   30.8240   -4.6630 C.3    92  ASP92       0.1805
     22  C         20.6400   32.1930   -4.3270 C.2    92  ASP92       0.2597
     23  O         21.4380   32.6870   -5.1250 O.2    92  ASP92      -0.2718
     24  CB        18.5990   30.9640   -5.3360 C.3    92  ASP92       0.1424
     25  CG        18.5140   31.9590   -6.5140 C.2    92  ASP92       0.3668
     26  OD1       18.7560   31.5350   -7.6770 O.co2  92  ASP92      -0.2456
     27  OD2       18.1260   33.1310   -6.2790 O.co2  92  ASP92      -0.2456
     28  N         20.3470   32.7710   -3.1190 N.am   93  ASP93      -0.1974
     29  CA        20.9400   34.0690   -2.7130 C.3    93  ASP93       0.1709
     30  C         22.4480   33.9820   -2.5520 C.2    93  ASP93       0.2293
     31  O         23.1420   34.9210   -2.9030 O.2    93  ASP93      -0.2864
     32  CB        20.3240   34.6030   -1.4360 C.3    93  ASP93       0.1436
     33  CG        18.9490   35.1890   -1.6880 C.2    93  ASP93       0.3671
     34  OD1       18.6650   35.5770   -2.8720 O.co2  93  ASP93      -0.2456
     35  OD2       18.1560   35.2700   -0.7190 O.co2  93  ASP93      -0.2456
     36  N         23.8450   33.5770   -6.2910 N.3    96  ASP96      -0.1239
     37  CA        23.6210   34.7910   -7.1030 C.3    96  ASP96       0.1674
     38  C         24.2660   36.0210   -6.4830 C.2    96  ASP96       0.2266
     39  O         24.1170   37.1280   -7.0340 O.2    96  ASP96      -0.2867
     40  CB        22.1080   35.0480   -7.3050 C.3    96  ASP96       0.1410
     41  CG        21.4400   33.9720   -8.1550 C.2    96  ASP96       0.3668
     42  OD1       22.1700   33.1580   -8.7620 O.co2  96  ASP96      -0.2456
     43  OD2       20.1970   33.9730   -8.2430 O.co2  96  ASP96      -0.2456
     44  N         23.4240   37.6950   -3.8110 N.3    98  SER98      -0.1217
     45  CA        22.4070   38.7160   -3.5440 C.3    98  SER98       0.1889
     46  C         22.6600   39.4110   -2.2050 C.2    98  SER98       0.2288
     47  O         23.4780   38.9530   -1.4050 O.2    98  SER98      -0.2866
     48  CB        21.0120   38.1110   -3.6200 C.3    98  SER98       0.2089
     49  OG        20.7760   37.6840   -4.9540 O.3    98  SER98      -0.2183
     50  N         16.5520   40.2430    0.5340 N.3   101  ARG101     -0.1245
     51  CA        15.4050   39.4080    0.1880 C.3   101  ARG101      0.1563
     52  C         14.2760   39.7470    1.1520 C.2   101  ARG101      0.2260
     53  O         14.5310   39.9230    2.3480 O.2   101  ARG101     -0.2867
     54  CB        15.8490   37.9360    0.2610 C.3   101  ARG101      0.0307
     55  CG        14.7810   36.8530    0.4070 C.3   101  ARG101      0.0489
     56  CD        14.3010   36.2580   -0.8880 C.3   101  ARG101      0.2205
     57  NE        15.3490   35.7750   -1.8030 N.pl3 101  ARG101     -0.0865
     58  CZ        15.1330   35.6170   -3.1060 C.cat 101  ARG101      0.5346
     59  NH1       13.9350   35.8820   -3.6270 N.pl3 101  ARG101      0.1354
     60  NH2       16.1040   35.1970   -3.8980 N.pl3 101  ARG101      0.1354
     61  N         18.3540   25.2750  -12.0510 N.3   160  GLN160     -0.1245
     62  CA        19.4220   26.1060  -11.4400 C.3   160  GLN160      0.1566
     63  C         20.7940   25.7870  -12.0700 C.2   160  GLN160      0.2260
     64  O         21.5650   26.7000  -12.2860 O.2   160  GLN160     -0.2867
     65  CB        19.5030   25.9100   -9.9140 C.3   160  GLN160      0.0367
     66  CG        18.3200   26.4350   -9.1180 C.3   160  GLN160      0.0905
     67  CD        18.3190   27.9440   -9.0260 C.2   160  GLN160      0.2608
     68  OE1       17.7330   28.6240   -9.8650 O.2   160  GLN160     -0.2717
     69  NE2       18.9850   28.4980   -8.0140 N.am  160  GLN160     -0.0878
     70  N         20.7560   27.5170  -15.3610 N.3   163  ASP163     -0.1239
     71  CA        20.8500   28.9430  -15.0510 C.3   163  ASP163      0.1674
     72  C         22.3310   29.3100  -14.8170 C.2   163  ASP163      0.2266
     73  O         22.8370   30.2470  -15.4470 O.2   163  ASP163     -0.2867
     74  CB        19.9670   29.2820  -13.8250 C.3   163  ASP163      0.1410
     75  CG        19.9960   30.7350  -13.3710 C.2   163  ASP163      0.3668
     76  OD1       20.8780   31.0860  -12.5600 O.co2 163  ASP163     -0.2456
     77  OD2       19.0850   31.4930  -13.7510 O.co2 163  ASP163     -0.2456
     78  N         13.7210   25.7390  -13.6710 N.3   189  LYS189     -0.1231
     79  CA        14.1420   26.4250  -12.4430 C.3   189  LYS189      0.1693
     80  C         12.9930   27.0090  -11.5990 C.2   189  LYS189      0.2592
     81  O         13.1630   27.1540  -10.3830 O.2   189  LYS189     -0.2718
     82  CB        15.2080   27.5070  -12.7180 C.3   189  LYS189      0.0285
     83  CG        14.7030   28.8420  -13.2670 C.3   189  LYS189      0.0035
     84  CD        15.7700   29.9240  -13.0160 C.3   189  LYS189      0.0206
     85  CE        15.3460   31.2740  -13.5430 C.3   189  LYS189      0.1093
     86  NZ        16.3360   32.3350  -13.1980 N.3   189  LYS189     -0.1314
     87  N         11.8570   27.3580  -12.2110 N.am  190  THR190     -0.1953
     88  CA        10.7960   27.9590  -11.4090 C.3   190  THR190      0.1897
     89  C          9.4080   27.4860  -11.7190 C.2   190  THR190      0.2313
     90  O          8.6060   27.4350  -10.7920 O.2   190  THR190     -0.2863
     91  CB        10.7780   29.4900  -11.5440 C.3   190  THR190      0.1794
     92  OG1       10.8640   29.8530  -12.9200 O.3   190  THR190     -0.2208
     93  CG2       11.8650   30.1390  -10.7780 C.3   190  THR190      0.0378
     94  N          8.0580   24.0950   -9.4900 N.3   193  TYR193     -0.1241
     95  CA         7.8330   24.2900   -8.0490 C.3   193  TYR193      0.1605
     96  C          6.8580   25.4500   -7.7280 C.2   193  TYR193      0.2264
     97  O          6.1730   25.4070   -6.6920 O.2   193  TYR193     -0.2867
     98  CB         9.1690   24.4640   -7.2810 C.3   193  TYR193      0.0534
     99  CG         9.5500   25.8960   -6.9490 C.ar  193  TYR193     -0.0201
    100  CD1        9.0660   26.5210   -5.8020 C.ar  193  TYR193     -0.0009
    101  CD2       10.4510   26.6020   -7.7450 C.ar  193  TYR193     -0.0009
    102  CE1        9.4120   27.8380   -5.4910 C.ar  193  TYR193      0.0417
    103  CE2       10.8340   27.9070   -7.4250 C.ar  193  TYR193      0.0417
    104  CZ        10.3060   28.5240   -6.2990 C.ar  193  TYR193      0.1957
    105  OH        10.6570   29.8140   -5.9750 O.3   193  TYR193     -0.2866
    106  N          8.3620   34.0670  -14.3670 N.3   229  GLN229     -0.1245
    107  CA         9.8120   34.2360  -14.3740 C.3   229  GLN229      0.1566
    108  C         10.2180   35.4020  -15.2620 C.2   229  GLN229      0.2260
    109  O         11.2140   36.0690  -14.9630 O.2   229  GLN229     -0.2867
    110  CB        10.5310   32.9570  -14.8060 C.3   229  GLN229      0.0367
    111  CG        12.0610   32.9930  -14.5950 C.3   229  GLN229      0.0905
    112  CD        12.4770   33.3950  -13.2030 C.2   229  GLN229      0.2608
    113  OE1       11.9680   32.8870  -12.2090 O.2   229  GLN229     -0.2717
    114  NE2       13.4130   34.3200  -13.0990 N.am  229  GLN229     -0.0878
    115  N          9.5290   38.3930  -13.1650 N.3   232  ASP232     -0.1225
    116  CA        10.5970   38.4310  -12.1590 C.3   232  ASP232      0.1805
    117  C         11.8810   39.0210  -12.7620 C.2   232  ASP232      0.2597
    118  O         12.5560   39.7960  -12.0930 O.2   232  ASP232     -0.2718
    119  CB        10.8960   37.0200  -11.5940 C.3   232  ASP232      0.1424
    120  CG        11.9810   37.0010  -10.5150 C.2   232  ASP232      0.3668
    121  OD1       11.7140   37.4900   -9.3980 O.co2 232  ASP232     -0.2456
    122  OD2       13.1230   36.5810  -10.8200 O.co2 232  ASP232     -0.2456
    123  N         12.2260   38.6270  -14.0070 N.am  233  ASP233     -0.1974
    124  CA        13.4190   39.1340  -14.7150 C.3   233  ASP233      0.1709
    125  C         13.2430   40.6360  -15.0380 C.2   233  ASP233      0.2293
    126  O         14.1740   41.4180  -14.8450 O.2   233  ASP233     -0.2864
    127  CB        13.6560   38.3280  -16.0010 C.3   233  ASP233      0.1436
    128  CG        14.1480   36.9120  -15.7960 C.2   233  ASP233      0.3671
    129  OD1       14.5680   36.5770  -14.6590 O.co2 233  ASP233     -0.2456
    130  OD2       14.2310   36.1790  -16.7810 O.co2 233  ASP233     -0.2456
    131  N         13.6170   42.6650  -11.8980 N.3   236  ASP236     -0.1239
    132  CA        14.9970   42.6430  -11.3800 C.3   236  ASP236      0.1674
    133  C         15.6800   43.9530  -11.6900 C.2   236  ASP236      0.2266
    134  O         16.5040   44.4260  -10.9080 O.2   236  ASP236     -0.2867
    135  CB        15.8140   41.5030  -11.9820 C.3   236  ASP236      0.1410
    136  CG        17.0230   41.1610  -11.1500 C.2   236  ASP236      0.3668
    137  OD1       16.8450   40.5580  -10.0630 O.co2 236  ASP236     -0.2456
    138  OD2       18.1460   41.5010  -11.5710 O.co2 236  ASP236     -0.2456
    139  N         13.7260   43.0420   -2.7620 N.3   246  LYS246     -0.1245
    140  CA        15.0620   42.5670   -3.1190 C.3   246  LYS246      0.1561
    141  C         15.7220   43.4690   -4.1760 C.2   246  LYS246      0.2260
    142  O         15.0340   44.1750   -4.9270 O.2   246  LYS246     -0.2867
    143  CB        15.0020   41.0940   -3.6090 C.3   246  LYS246      0.0271
    144  CG        14.2100   40.8770   -4.9000 C.3   246  LYS246      0.0035
    145  CD        13.8960   39.3880   -5.1660 C.3   246  LYS246      0.0206
    146  CE        13.2300   39.2490   -6.5180 C.3   246  LYS246      0.1093
    147  NZ        12.6090   37.9160   -6.7300 N.3   246  LYS246     -0.1314
    148  N         20.9200   40.4600  -11.9120 N.3   250  ASP250     -0.1239
    149  CA        20.9960   39.6950  -13.1770 C.3   250  ASP250      0.1674
    150  C         22.0920   40.1920  -14.1490 C.2   250  ASP250      0.2266
    151  O         22.8110   39.3650  -14.7270 O.2   250  ASP250     -0.2867
    152  CB        19.6390   39.6550  -13.8840 C.3   250  ASP250      0.1410
    153  CG        18.5960   38.8210  -13.1390 C.2   250  ASP250      0.3668
    154  OD1       18.9730   38.1270  -12.1540 O.co2 250  ASP250     -0.2456
    155  OD2       17.4010   38.8850  -13.5180 O.co2 250  ASP250     -0.2456
    156  N         23.4690   36.8160  -16.1560 N.3   255  LYS255     -0.1245
    157  CA        22.3410   35.9110  -16.2950 C.3   255  LYS255      0.1561
    158  C         21.6820   36.0070  -17.6400 C.2   255  LYS255      0.2260
    159  O         21.6130   37.0960  -18.2410 O.2   255  LYS255     -0.2867
    160  CB        21.2800   36.1670  -15.1990 C.3   255  LYS255      0.0271
    161  CG        21.7430   35.8840  -13.7670 C.3   255  LYS255      0.0035
    162  CD        22.0780   34.4100  -13.5140 C.3   255  LYS255      0.0206
    163  CE        22.4640   34.1930  -12.0760 C.3   255  LYS255      0.1093
    164  NZ        22.9720   32.8180  -11.8510 N.3   255  LYS255     -0.1314
@<TRIPOS>BOND
     1   159   158    2
     2   158   157    1
     3   130   128   ar
     4   157   156    1
     5   157   160    1
     6   127   128    1
     7   127   124    1
     8   128   129   ar
     9    73    72    2
    10    70    71    1
    11   108   109    2
    12   108   107    1
    13   160   161    1
    14    71    72    1
    15    71    74    1
    16   125   126    2
    17   125   124    1
    18   110   111    1
    19   110   107    1
    20   151   150    2
    21   124   123    1
    22   111   112    1
    23   107   106    1
    24   150   149    1
    25   123   117   am
    26   152   149    1
    27   152   153    1
    28    74    75    1
    29   161   162    1
    30    77    75   ar
    31    78    79    1
    32    85    86    1
    33    85    84    1
    34   155   153   ar
    35   162   163    1
    36    75    76   ar
    37    83    84    1
    38    83    82    1
    39   112   114   am
    40   112   113    2
    41   149   148    1
    42   115   116    1
    43   153   154   ar
    44    92    91    1
    45   117   116    1
    46   117   118    2
    47    82    79    1
    48    79    80    1
    49    64    63    2
    50    87    80   am
    51    87    88    1
    52   116   119    1
    53   163   164    1
    54    63    62    1
    55    61    62    1
    56   135   132    1
    57   135   136    1
    58   131   132    1
    59    89    88    1
    60    89    90    2
    61   133   132    1
    62   133   134    2
    63    80    81    2
    64   119   120    1
    65   138   136   ar
    66    91    88    1
    67    91    93    1
    68    62    65    1
    69   136   137   ar
    70   122   120   ar
    71   120   121   ar
    72    65    66    1
    73    68    67    2
    74    94    95    1
    75    66    67    1
    76    67    69   am
    77    42    41   ar
    78    43    41   ar
    79    41    40    1
    80    95    96    1
    81    95    98    1
    82   101   103   ar
    83   101    99   ar
    84    96    97    2
    85    26    25   ar
    86   103   104   ar
    87    40    37    1
    88    98    99    1
    89    37    38    1
    90    37    36    1
    91    39    38    2
    92    99   100   ar
    93   147   146    1
    94   146   145    1
    95    25    27   ar
    96    25    24    1
    97   104   105    1
    98   104   102   ar
    99   100   102   ar
   100    24    21    1
   101   145   144    1
   102    23    22    2
   103     9    11   ar
   104     9     7   ar
   105    11    10   ar
   106    49    48    1
   107   142   141    2
   108   144   143    1
   109     7     6   ar
   110    21    22    1
   111    21    20    1
   112    10     8   ar
   113    22    28   am
   114     6     8   ar
   115     6     5    1
   116   141   140    1
   117    19    17    1
   118    60    58    1
   119     5     2    1
   120    44    45    1
   121    59    58    1
   122    48    45    1
   123   143   140    1
   124    45    46    1
   125     4     3    2
   126   140   139    1
   127    28    29    1
   128    58    57    2
   129    31    30    2
   130    34    33   ar
   131     2     3    1
   132     2     1    1
   133    29    30    1
   134    29    32    1
   135     3    12   am
   136    17    18    1
   137    17    16    1
   138    46    47    2
   139    12    13    1
   140    13    16    1
   141    13    14    1
   142    57    56    1
   143    33    32    1
   144    33    35   ar
   145    15    14    2
   146    56    55    1
   147    51    54    1
   148    51    50    1
   149    51    52    1
   150    54    55    1
   151    52    53    2
