@<TRIPOS>MOLECULE
tmp/4nkgA00.pdb
 96 94 0 0 0
SMALL
GASTEIGER

@<TRIPOS>ATOM
      1  N         64.0890  -27.7480   45.2370 N.3   102  TRP102     -0.1241
      2  CA        64.0080  -26.3290   44.9510 C.3   102  TRP102      0.1605
      3  C         65.0460  -25.6410   45.8050 C.2   102  TRP102      0.2264
      4  O         64.8460  -25.4840   46.9980 O.2   102  TRP102     -0.2867
      5  CB        62.6380  -25.7860   45.3540 C.3   102  TRP102      0.0550
      6  CG        61.5170  -26.1680   44.4480 C.ar  102  TRP102      0.0003
      7  CD1       61.6020  -26.8790   43.2900 C.ar  102  TRP102      0.0946
      8  CD2       60.1320  -25.8480   44.6240 C.ar  102  TRP102      0.0152
      9  NE1       60.3550  -27.0240   42.7320 N.ar  102  TRP102     -0.2442
     10  CE2       59.4350  -26.4000   43.5330 C.ar  102  TRP102      0.0810
     11  CE3       59.4140  -25.1500   45.6000 C.ar  102  TRP102      0.0012
     12  CZ2       58.0550  -26.2760   43.3890 C.ar  102  TRP102      0.0191
     13  CZ3       58.0440  -25.0290   45.4570 C.ar  102  TRP102      0.0001
     14  CH2       57.3790  -25.5880   44.3600 C.ar  102  TRP102      0.0015
     15  N         67.1280  -22.0640   45.6220 N.3   104  TYR104     -0.1227
     16  CA        67.1920  -20.8620   44.8020 C.3   104  TYR104      0.1736
     17  C         67.3820  -19.6170   45.6480 C.2   104  TYR104      0.2595
     18  O         67.1640  -19.6390   46.8600 O.2   104  TYR104     -0.2718
     19  CB        65.9290  -20.7360   43.9490 C.3   104  TYR104      0.0548
     20  CG        64.6530  -20.6890   44.7570 C.ar  104  TYR104     -0.0200
     21  CD1       64.0470  -21.8570   45.2020 C.ar  104  TYR104     -0.0009
     22  CD2       64.0560  -19.4770   45.0790 C.ar  104  TYR104     -0.0009
     23  CE1       62.8800  -21.8180   45.9440 C.ar  104  TYR104      0.0417
     24  CE2       62.8910  -19.4290   45.8200 C.ar  104  TYR104      0.0417
     25  CZ        62.3070  -20.6010   46.2500 C.ar  104  TYR104      0.1957
     26  OH        61.1470  -20.5540   46.9880 O.3   104  TYR104     -0.2866
     27  N         67.7880  -18.5320   44.9990 N.am  105  ASN105     -0.1974
     28  CA        68.1200  -17.3060   45.7060 C.3   105  ASN105      0.1688
     29  C         69.0840  -17.6010   46.8410 C.2   105  ASN105      0.2292
     30  O         68.8970  -17.1670   47.9800 O.2   105  ASN105     -0.2864
     31  CB        66.8600  -16.6040   46.1990 C.3   105  ASN105      0.1181
     32  CG        66.0780  -15.9810   45.0690 C.2   105  ASN105      0.2629
     33  OD1       65.5300  -16.6860   44.2230 O.2   105  ASN105     -0.2716
     34  ND2       66.0320  -14.6530   45.0370 N.am  105  ASN105     -0.0877
     35  N         64.5650  -27.0080   40.5770 N.3   122  ALA122     -0.1245
     36  CA        64.6550  -25.5740   40.3540 C.3   122  ALA122      0.1562
     37  C         65.8080  -24.9750   41.1450 C.2   122  ALA122      0.2260
     38  O         65.7270  -24.8140   42.3620 O.2   122  ALA122     -0.2867
     39  CB        63.3460  -24.8970   40.7270 C.3   122  ALA122      0.0290
     40  N         67.7560  -21.4630   40.8140 N.3   124  SER124     -0.1202
     41  CA        67.7420  -20.2060   40.0840 C.3   124  SER124      0.2020
     42  C         68.3100  -19.1000   40.9430 C.2   124  SER124      0.2618
     43  O         68.2620  -19.1700   42.1710 O.2   124  SER124     -0.2717
     44  CB        66.3200  -19.8490   39.6460 C.3   124  SER124      0.2103
     45  OG        65.8410  -20.7580   38.6720 O.3   124  SER124     -0.2182
     46  N         68.8520  -18.0780   40.2920 N.am  125  ASN125     -0.1974
     47  CA        69.4320  -16.9620   41.0140 C.3   125  ASN125      0.1688
     48  C         70.5250  -17.4560   41.9510 C.2   125  ASN125      0.2292
     49  O         70.6480  -16.9990   43.0860 O.2   125  ASN125     -0.2864
     50  CB        68.3420  -16.2210   41.7830 C.3   125  ASN125      0.1181
     51  CG        67.1160  -15.9580   40.9310 C.2   125  ASN125      0.2629
     52  OD1       67.2000  -15.9150   39.7020 O.2   125  ASN125     -0.2716
     53  ND2       65.9690  -15.7850   41.5780 N.am  125  ASN125     -0.0877
     54  N         64.3760  -25.6930   36.1100 N.3   142  ARG142     -0.1245
     55  CA        64.5690  -24.2470   36.0680 C.3   142  ARG142      0.1563
     56  C         65.9670  -23.8650   36.5430 C.2   142  ARG142      0.2260
     57  O         66.2530  -23.8760   37.7390 O.2   142  ARG142     -0.2867
     58  CB        63.5140  -23.5510   36.9290 C.3   142  ARG142      0.0307
     59  CG        62.0900  -23.7560   36.4380 C.3   142  ARG142      0.0489
     60  CD        61.0820  -23.1570   37.4030 C.3   142  ARG142      0.2205
     61  NE        59.7130  -23.2680   36.9080 N.pl3 142  ARG142     -0.0865
     62  CZ        58.9390  -24.3350   37.0770 C.cat 142  ARG142      0.5346
     63  NH1       59.4000  -25.3950   37.7270 N.pl3 142  ARG142      0.1354
     64  NH2       57.7060  -24.3450   36.5920 N.pl3 142  ARG142      0.1354
     65  N         67.3800  -20.8220   35.4650 N.3   144  SER144     -0.1217
     66  CA        67.5210  -19.4180   35.0830 C.3   144  SER144      0.1889
     67  C         68.1630  -18.5630   36.1710 C.2   144  SER144      0.2288
     68  O         68.1480  -18.9200   37.3470 O.2   144  SER144     -0.2866
     69  CB        66.1600  -18.8300   34.7050 C.3   144  SER144      0.2089
     70  OG        65.2790  -18.8380   35.8140 O.3   144  SER144     -0.2183
     71  N         63.5800  -23.8100   31.8910 N.3   162  TRP162     -0.1241
     72  CA        63.8660  -22.3800   31.9250 C.3   162  TRP162      0.1605
     73  C         65.3620  -22.1450   32.1040 C.2   162  TRP162      0.2264
     74  O         65.9020  -22.2960   33.2000 O.2   162  TRP162     -0.2867
     75  CB        63.1040  -21.7150   33.0720 C.3   162  TRP162      0.0550
     76  CG        61.6160  -21.7320   32.9070 C.ar  162  TRP162      0.0003
     77  CD1       60.9130  -22.2030   31.8360 C.ar  162  TRP162      0.0946
     78  CD2       60.6450  -21.2500   33.8430 C.ar  162  TRP162      0.0152
     79  NE1       59.5640  -22.0440   32.0470 N.ar  162  TRP162     -0.2442
     80  CE2       59.3740  -21.4610   33.2730 C.ar  162  TRP162      0.0810
     81  CE3       60.7270  -20.6590   35.1080 C.ar  162  TRP162      0.0012
     82  CZ2       58.1950  -21.1040   33.9240 C.ar  162  TRP162      0.0191
     83  CZ3       59.5560  -20.3060   35.7530 C.ar  162  TRP162      0.0001
     84  CH2       58.3070  -20.5290   35.1610 C.ar  162  TRP162      0.0015
     85  N         66.6490  -19.1390   31.0280 N.3   164  TYR164     -0.1241
     86  CA        66.7690  -17.7180   30.6970 C.3   164  TYR164      0.1605
     87  C         67.6610  -16.9270   31.6500 C.2   164  TYR164      0.2264
     88  O         67.8870  -17.3260   32.7920 O.2   164  TYR164     -0.2867
     89  CB        65.3910  -17.0510   30.5640 C.3   164  TYR164      0.0534
     90  CG        64.5910  -16.9790   31.8460 C.ar  164  TYR164     -0.0201
     91  CD1       64.7390  -15.9100   32.7190 C.ar  164  TYR164     -0.0009
     92  CD2       63.6770  -17.9720   32.1750 C.ar  164  TYR164     -0.0009
     93  CE1       64.0080  -15.8380   33.8890 C.ar  164  TYR164      0.0417
     94  CE2       62.9400  -17.9070   33.3430 C.ar  164  TYR164      0.0417
     95  CZ        63.1110  -16.8380   34.1970 C.ar  164  TYR164      0.1957
     96  OH        62.3810  -16.7660   35.3600 O.3   164  TYR164     -0.2866
@<TRIPOS>BOND
     1    89    86    1
     2    89    90    1
     3    86    85    1
     4    86    87    1
     5    87    88    2
     6    77    79   ar
     7    77    76   ar
     8    90    92   ar
     9    90    91   ar
    10    71    72    1
    11    72    73    1
    12    72    75    1
    13    79    80   ar
    14    73    74    2
    15    92    94   ar
    16    91    93   ar
    17    76    75    1
    18    76    78   ar
    19    80    78   ar
    20    80    82   ar
    21    94    95   ar
    22    78    81   ar
    23    93    95   ar
    24    82    84   ar
    25    95    96    1
    26    69    66    1
    27    69    70    1
    28    66    65    1
    29    66    67    1
    30    81    83   ar
    31    84    83   ar
    32    55    54    1
    33    55    56    1
    34    55    58    1
    35    67    68    2
    36    59    58    1
    37    59    60    1
    38    56    57    2
    39    64    62    1
    40    61    62    2
    41    61    60    1
    42    62    63    1
    43    45    44    1
    44    44    41    1
    45    52    51    2
    46    41    40    1
    47    41    42    1
    48    46    42   am
    49    46    47    1
    50    36    35    1
    51    36    39    1
    52    36    37    1
    53    51    53   am
    54    51    50    1
    55    42    43    2
    56    47    50    1
    57    47    48    1
    58    37    38    2
    59    48    49    2
    60     9     7   ar
    61     9    10   ar
    62     7     6   ar
    63    12    10   ar
    64    12    14   ar
    65    10     8   ar
    66    19    20    1
    67    19    16    1
    68    33    32    2
    69    14    13   ar
    70     6     8   ar
    71     6     5    1
    72     8    11   ar
    73    20    22   ar
    74    20    21   ar
    75    16    15    1
    76    16    17    1
    77     2     1    1
    78     2     5    1
    79     2     3    1
    80    27    17   am
    81    27    28    1
    82    34    32   am
    83    32    31    1
    84    22    24   ar
    85    21    23   ar
    86    13    11   ar
    87    17    18    2
    88    28    31    1
    89    28    29    1
    90     3     4    2
    91    24    25   ar
    92    23    25   ar
    93    25    26    1
    94    29    30    2
