@<TRIPOS>MOLECULE
tmp/4nktA00.pdb
 154 143 0 0 0
SMALL
GASTEIGER

@<TRIPOS>ATOM
      1  N         57.2570   24.3670   86.9640 N.3    51  PHE51      -0.1227
      2  CA        58.5470   23.7720   86.6310 C.3    51  PHE51       0.1736
      3  C         58.7750   22.5820   87.5450 C.2    51  PHE51       0.2596
      4  O         57.8810   22.2090   88.3200 O.2    51  PHE51      -0.2718
      5  CB        59.7020   24.7970   86.6780 C.3    51  PHE51       0.0547
      6  CG        60.0420   25.3040   88.0580 C.ar   51  PHE51      -0.0202
      7  CD1       59.3350   26.3570   88.6290 C.ar   51  PHE51      -0.0042
      8  CD2       61.1020   24.7580   88.7710 C.ar   51  PHE51      -0.0042
      9  CE1       59.6640   26.8350   89.8900 C.ar   51  PHE51      -0.0003
     10  CE2       61.4270   25.2300   90.0360 C.ar   51  PHE51      -0.0003
     11  CZ        60.7120   26.2740   90.5950 C.ar   51  PHE51      -0.0000
     12  N         59.9420   21.9580   87.4560 N.am   52  GLY52      -0.1942
     13  CA        60.2370   20.8570   88.3670 C.3    52  GLY52       0.2014
     14  C         59.5650   19.5620   87.9530 C.2    52  GLY52       0.2639
     15  O         59.1200   19.4310   86.8150 O.2    52  GLY52      -0.2714
     16  N         59.4510   18.6180   88.8830 N.am   53  SER53      -0.1949
     17  CA        59.1600   17.2250   88.5350 C.3    53  SER53       0.1924
     18  C         57.7760   17.0010   87.9280 C.2    53  SER53       0.2314
     19  O         57.6240   16.1310   87.0760 O.2    53  SER53      -0.2863
     20  CB        59.3490   16.3290   89.7530 C.3    53  SER53       0.2116
     21  OG        58.4500   16.7130   90.7790 O.3    53  SER53      -0.2180
     22  N         53.2410   14.6390   95.4500 N.3    63  SER63      -0.1202
     23  CA        54.3240   15.5870   95.2100 C.3    63  SER63       0.2020
     24  C         53.8690   17.0160   95.4680 C.2    63  SER63       0.2618
     25  O         52.6810   17.3310   95.3450 O.2    63  SER63      -0.2717
     26  CB        54.8450   15.4610   93.7740 C.3    63  SER63       0.2103
     27  OG        55.7360   14.3740   93.6590 O.3    63  SER63      -0.2182
     28  N         54.8170   17.8700   95.8390 N.am   64  ASP64      -0.1973
     29  CA        54.5420   19.2950   95.9710 C.3    64  ASP64       0.1709
     30  C         54.6840   19.9170   94.5930 C.2    64  ASP64       0.2293
     31  O         55.3620   19.3590   93.7270 O.2    64  ASP64      -0.2864
     32  CB        55.5310   19.9430   96.9380 C.3    64  ASP64       0.1436
     33  CG        55.2300   19.6200   98.3840 C.2    64  ASP64       0.3671
     34  OD1       54.4290   18.6910   98.6400 O.co2  64  ASP64      -0.2456
     35  OD2       55.7930   20.3050   99.2670 O.co2  64  ASP64      -0.2456
     36  N         55.9280   23.0850   92.1580 N.3    66  ASP66      -0.1239
     37  CA        56.8730   24.1880   92.1030 C.3    66  ASP66       0.1674
     38  C         56.3720   25.0990   91.0170 C.2    66  ASP66       0.2266
     39  O         56.2660   24.6890   89.8590 O.2    66  ASP66      -0.2867
     40  CB        58.2570   23.6820   91.7040 C.3    66  ASP66       0.1410
     41  CG        58.9980   23.0320   92.8540 C.2    66  ASP66       0.3668
     42  OD1       59.0590   23.6400   93.9450 O.co2  66  ASP66      -0.2456
     43  OD2       59.5140   21.9160   92.6600 O.co2  66  ASP66      -0.2456
     44  N         62.4180   32.8970   88.3360 N.3   121  ASN121     -0.1240
     45  CA        63.4290   31.8480   88.3300 C.3   121  ASN121      0.1653
     46  C         63.4660   31.2210   86.9410 C.2   121  ASN121      0.2266
     47  O         63.0510   30.0740   86.7640 O.2   121  ASN121     -0.2867
     48  CB        63.0380   30.7840   89.3580 C.3   121  ASN121      0.1155
     49  CG        64.1300   29.7780   89.6180 C.2   121  ASN121      0.2627
     50  OD1       65.1350   29.7220   88.9010 O.2   121  ASN121     -0.2716
     51  ND2       63.9300   28.9570   90.6480 N.am  121  ASN121     -0.0877
     52  N         65.4210   27.7690   86.3000 N.3   124  ALA124     -0.1245
     53  CA        64.7310   26.5350   86.6980 C.3   124  ALA124      0.1562
     54  C         63.7320   26.0930   85.6240 C.2   124  ALA124      0.2260
     55  O         63.5120   24.9010   85.4100 O.2   124  ALA124     -0.2867
     56  CB        64.0370   26.7180   88.0360 C.3   124  ALA124      0.0290
     57  N         66.0220   24.4820   82.9630 N.3   127  ASN127     -0.1225
     58  CA        66.5360   23.1510   83.2800 C.3   127  ASN127      0.1785
     59  C         65.4110   22.1070   83.3290 C.2   127  ASN127      0.2597
     60  O         65.6170   20.9220   83.0490 O.2   127  ASN127     -0.2718
     61  CB        67.5200   23.1320   84.4750 C.3   127  ASN127      0.1169
     62  CG        66.8600   23.3430   85.8190 C.2   127  ASN127      0.2627
     63  OD1       65.8460   22.7120   86.1420 O.2   127  ASN127     -0.2716
     64  ND2       67.4670   24.2060   86.6420 N.am  127  ASN127     -0.0877
     65  N         64.2000   22.5650   83.6150 N.am  128  THR128     -0.1953
     66  CA        63.0290   21.6920   83.4900 C.3   128  THR128      0.1897
     67  C         62.7580   21.3110   82.0220 C.2   128  THR128      0.2313
     68  O         62.4130   20.1680   81.7240 O.2   128  THR128     -0.2863
     69  CB        61.8160   22.3490   84.1570 C.3   128  THR128      0.1794
     70  OG1       62.1050   22.4880   85.5590 O.3   128  THR128     -0.2208
     71  CG2       60.5510   21.4850   83.9700 C.3   128  THR128      0.0378
     72  N         65.2580   18.5780   81.2240 N.3   131  LEU131     -0.1245
     73  CA        64.8780   17.2850   81.7900 C.3   131  LEU131      0.1561
     74  C         63.6310   16.7210   81.0880 C.2   131  LEU131      0.2260
     75  O         63.5460   15.5070   80.8330 O.2   131  LEU131     -0.2867
     76  CB        64.7010   17.4040   83.3200 C.3   131  LEU131      0.0270
     77  CG        65.9440   17.1400   84.2070 C.3   131  LEU131      0.0019
     78  CD1       67.1950   17.9110   83.7610 C.3   131  LEU131      0.0001
     79  CD2       65.6590   17.4520   85.6790 C.3   131  LEU131      0.0001
     80  N         64.8430    8.3500   93.1430 N.3   149  LYS149     -0.1245
     81  CA        64.2750    9.2940   94.1230 C.3   149  LYS149      0.1561
     82  C         63.6450    8.5790   95.3240 C.2   149  LYS149      0.2260
     83  O         63.7810    9.0140   96.4830 O.2   149  LYS149     -0.2867
     84  CB        63.2230   10.1710   93.4600 C.3   149  LYS149      0.0271
     85  CG        63.7590   11.2430   92.5020 C.3   149  LYS149      0.0035
     86  CD        62.5420   11.9250   91.8820 C.3   149  LYS149      0.0206
     87  CE        62.8290   13.1920   91.1150 C.3   149  LYS149      0.1093
     88  NZ        61.5350   13.9900   91.0290 N.3   149  LYS149     -0.1314
     89  N         64.9430    8.7990   99.1810 N.3   153  LYS153     -0.1245
     90  CA        64.0720    9.2300  100.2690 C.3   153  LYS153      0.1561
     91  C         64.0420    8.1830  101.3780 C.2   153  LYS153      0.2260
     92  O         64.1330    8.5130  102.5690 O.2   153  LYS153     -0.2867
     93  CB        62.6530    9.4730   99.7530 C.3   153  LYS153      0.0271
     94  CG        62.4730   10.8000   99.0630 C.3   153  LYS153      0.0035
     95  CD        61.1150   10.9200   98.3740 C.3   153  LYS153      0.0206
     96  CE        61.0920   12.1700   97.5090 C.3   153  LYS153      0.1093
     97  NZ        61.6470   13.3260   98.2710 N.3   153  LYS153     -0.1314
     98  N         68.1640   12.2030  100.9580 N.3   158  ASN158     -0.1240
     99  CA        67.4720   13.1560  100.0980 C.3   158  ASN158      0.1653
    100  C         67.0650   14.3820  100.9250 C.2   158  ASN158      0.2266
    101  O         65.9820   14.9350  100.7510 O.2   158  ASN158     -0.2867
    102  CB        66.2460   12.4540   99.4860 C.3   158  ASN158      0.1155
    103  CG        65.4690   13.3190   98.5160 C.2   158  ASN158      0.2627
    104  OD1       64.2410   13.2380   98.4590 O.2   158  ASN158     -0.2716
    105  ND2       66.1710   14.1500   97.7480 N.am  158  ASN158     -0.0877
    106  N         69.6010   17.0880   97.1060 N.3   166  SER166     -0.1202
    107  CA        68.2840   17.3590   96.5480 C.3   166  SER166      0.2020
    108  C         67.9010   16.3190   95.4900 C.2   166  SER166      0.2619
    109  O         68.7690   15.6680   94.8850 O.2   166  SER166     -0.2717
    110  CB        68.2540   18.7550   95.9310 C.3   166  SER166      0.2103
    111  OG        69.0850   18.7930   94.7750 O.3   166  SER166     -0.2182
    112  N         66.5990   16.1560   95.2770 N.am  167  SER167     -0.1937
    113  CA        66.1190   15.2380   94.2500 C.3   167  SER167      0.2055
    114  C         66.6640   15.6640   92.8920 C.2   167  SER167      0.2643
    115  O         67.0740   14.8180   92.1040 O.2   167  SER167     -0.2714
    116  CB        64.5960   15.1990   94.2370 C.3   167  SER167      0.2130
    117  OG        64.1130   14.7270   95.4740 O.3   167  SER167     -0.2179
    118  N         66.6810   16.9680   92.6150 N.am  168  TYR168     -0.1973
    119  CA        67.2520   17.4410   91.3410 C.3   168  TYR168      0.1639
    120  C         68.7050   16.9800   91.1890 C.2   168  TYR168      0.2290
    121  O         69.1450   16.6070   90.0930 O.2   168  TYR168     -0.2864
    122  CB        67.1300   18.9640   91.2340 C.3   168  TYR168      0.0560
    123  CG        67.7470   19.6070   89.9990 C.ar  168  TYR168     -0.0198
    124  CD1       67.2890   19.3100   88.7220 C.ar  168  TYR168     -0.0009
    125  CD2       68.7520   20.5600   90.1240 C.ar  168  TYR168     -0.0009
    126  CE1       67.8480   19.9050   87.5980 C.ar  168  TYR168      0.0417
    127  CE2       69.3140   21.1740   89.0090 C.ar  168  TYR168      0.0417
    128  CZ        68.8550   20.8490   87.7550 C.ar  168  TYR168      0.1957
    129  OH        69.4120   21.4520   86.6510 O.3   168  TYR168     -0.2866
    130  N         75.6220   22.4310   87.6650 N.3   272  ASP272     -0.1239
    131  CA        74.3460   22.5820   86.9520 C.3   272  ASP272      0.1674
    132  C         74.6180   22.7800   85.4680 C.2   272  ASP272      0.2266
    133  O         75.5330   23.5210   85.1070 O.2   272  ASP272     -0.2867
    134  CB        73.5770   23.7860   87.4740 C.3   272  ASP272      0.1410
    135  CG        72.1730   23.8870   86.8760 C.2   272  ASP272      0.3668
    136  OD1       71.2530   23.2390   87.4340 O.co2 272  ASP272     -0.2456
    137  OD2       71.9790   24.6020   85.8500 O.co2 272  ASP272     -0.2456
    138  N         76.8420   27.2280   89.7470 N.3   278  HIS278     -0.1241
    139  CA        76.0870   26.6660   90.8670 C.3   278  HIS278      0.1621
    140  C         76.4330   25.1930   91.0580 C.2   278  HIS278      0.2264
    141  O         76.3090   24.4000   90.1270 O.2   278  HIS278     -0.2867
    142  CB        74.5710   26.8310   90.6400 C.3   278  HIS278      0.0745
    143  CG        73.7260   26.1740   91.6900 C.ar  278  HIS278      0.0817
    144  ND1       73.9410   26.3540   93.0370 N.ar  278  HIS278     -0.2268
    145  CD2       72.6680   25.3330   91.5850 C.ar  278  HIS278      0.1154
    146  CE1       73.0500   25.6510   93.7230 C.ar  278  HIS278      0.1986
    147  NE2       72.2650   25.0280   92.8640 N.ar  278  HIS278     -0.2212
    148  N         75.0820   22.0390   92.4660 N.3   280  VAL280     -0.1245
    149  CA        73.8190   21.4700   92.9280 C.3   280  VAL280      0.1561
    150  C         74.0380   20.6620   94.2120 C.2   280  VAL280      0.2260
    151  O         73.1390   20.5330   95.0470 O.2   280  VAL280     -0.2867
    152  CB        73.1670   20.6010   91.8120 C.3   280  VAL280      0.0252
    153  CG1       71.8340   19.9880   92.2800 C.3   280  VAL280      0.0019
    154  CG2       72.9400   21.4560   90.5380 C.3   280  VAL280      0.0019
@<TRIPOS>BOND
     1    75    74    2
     2    74    73    1
     3    72    73    1
     4    68    67    2
     5    73    76    1
     6    67    66    1
     7    57    58    1
     8    60    59    2
     9    58    59    1
    10    58    61    1
    11    76    77    1
    12    59    65   am
    13    66    65    1
    14    66    69    1
    15    78    77    1
    16    71    69    1
    17    69    70    1
    18    77    79    1
    19    61    62    1
    20   133   132    2
    21    55    54    2
    22   132   131    1
    23    54    53    1
    24    62    63    2
    25    62    64   am
    26   137   135   ar
    27    52    53    1
    28     2     5    1
    29     2     1    1
    30     2     3    1
    31   129   128    1
    32     5     6    1
    33    53    56    1
    34    47    46    2
    35    15    14    2
    36   135   136   ar
    37   135   134    1
    38    46    45    1
    39   131   134    1
    40   131   130    1
    41    19    18    2
    42    12     3   am
    43    12    13    1
    44     3     4    2
    45   126   128   ar
    46   126   124   ar
    47   128   127   ar
    48    18    17    1
    49    14    13    1
    50    14    16   am
    51     6     7   ar
    52     6     8   ar
    53    45    44    1
    54    45    48    1
    55    17    16    1
    56    17    20    1
    57     7     9   ar
    58   124   123   ar
    59     8    10   ar
    60    50    49    2
    61   127   125   ar
    62    48    49    1
    63    49    51   am
    64   138   139    1
    65    20    21    1
    66    39    38    2
    67     9    11   ar
    68   123   125   ar
    69   123   122    1
    70    10    11   ar
    71   121   120    2
    72   141   140    2
    73   154   152    1
    74   142   139    1
    75   142   143    1
    76   139   140    1
    77    38    37    1
    78    88    87    1
    79    87    86    1
    80   120   119    1
    81   122   119    1
    82   119   118    1
    83   145   143   ar
    84   145   147   ar
    85   143   144   ar
    86    40    37    1
    87    40    41    1
    88   152   153    1
    89   152   149    1
    90    86    85    1
    91    37    36    1
    92   115   114    2
    93   148   149    1
    94    85    84    1
    95   118   114   am
    96    43    41   ar
    97    41    42   ar
    98   147   146   ar
    99   114   113    1
   100   149   150    1
   101   144   146   ar
   102    80    81    1
   103    84    81    1
   104    27    26    1
   105    31    30    2
   106    26    23    1
   107    81    82    1
   108   150   151    2
   109   116   113    1
   110   116   117    1
   111   113   112    1
   112    30    29    1
   113   111   110    1
   114   109   108    2
   115    23    22    1
   116    23    24    1
   117   112   108   am
   118    82    83    2
   119    25    24    2
   120    24    28   am
   121   108   107    1
   122    28    29    1
   123   110   107    1
   124    29    32    1
   125   107   106    1
   126    32    33    1
   127    96    97    1
   128    96    95    1
   129   105   103   am
   130    95    94    1
   131    33    34   ar
   132    33    35   ar
   133   104   103    2
   134   103   102    1
   135    94    93    1
   136    89    90    1
   137   102    99    1
   138    93    90    1
   139    99   100    1
   140    99    98    1
   141    90    91    1
   142   101   100    2
   143    91    92    2
