@<TRIPOS>MOLECULE
tmp/4nkuB00.pdb
 167 158 0 0 0
SMALL
GASTEIGER

@<TRIPOS>ATOM
      1  N         32.8460  -14.5530   36.8020 N.3    50  PHE50      -0.1227
      2  CA        33.9830  -13.8000   37.3130 C.3    50  PHE50       0.1736
      3  C         34.2950  -12.6190   36.3900 C.2    50  PHE50       0.2596
      4  O         33.5000  -12.2970   35.4990 O.2    50  PHE50      -0.2718
      5  CB        35.1940  -14.7100   37.5750 C.3    50  PHE50       0.0547
      6  CG        35.7970  -15.3030   36.3350 C.ar   50  PHE50      -0.0202
      7  CD1       36.8880  -14.6990   35.7280 C.ar   50  PHE50      -0.0042
      8  CD2       35.2800  -16.4630   35.7820 C.ar   50  PHE50      -0.0042
      9  CE1       37.4470  -15.2290   34.5870 C.ar   50  PHE50      -0.0003
     10  CE2       35.8440  -17.0150   34.6350 C.ar   50  PHE50      -0.0003
     11  CZ        36.9280  -16.3980   34.0400 C.ar   50  PHE50      -0.0000
     12  N         35.4140  -11.9390   36.6170 N.am   51  GLY51      -0.1942
     13  CA        35.7510  -10.7990   35.7760 C.3    51  GLY51       0.2014
     14  C         34.8670   -9.5720   35.9620 C.2    51  GLY51       0.2639
     15  O         34.1790   -9.4240   36.9750 O.2    51  GLY51      -0.2714
     16  N         34.8790   -8.6840   34.9690 N.am   52  SER52      -0.1949
     17  CA        34.3700   -7.3210   35.1510 C.3    52  SER52       0.1924
     18  C         32.8780   -7.1960   35.4940 C.2    52  SER52       0.2314
     19  O         32.4950   -6.3290   36.2810 O.2    52  SER52      -0.2863
     20  CB        34.7630   -6.4310   33.9630 C.3    52  SER52       0.2116
     21  OG        34.2290   -6.9100   32.7460 O.3    52  SER52      -0.2180
     22  N         32.2920   -8.4750   27.5700 N.3    63  ASP63      -0.1239
     23  CA        32.0820   -9.9090   27.4810 C.3    63  ASP63       0.1674
     24  C         31.7630  -10.4820   28.8600 C.2    63  ASP63       0.2266
     25  O         32.1570   -9.9100   29.8790 O.2    63  ASP63      -0.2867
     26  CB        33.3400  -10.5770   26.9330 C.3    63  ASP63       0.1410
     27  CG        34.0240   -9.7450   25.8590 C.2    63  ASP63       0.3668
     28  OD1       34.7380   -8.7750   26.2140 O.co2  63  ASP63      -0.2456
     29  OD2       33.8520  -10.0660   24.6620 O.co2  63  ASP63      -0.2456
     30  N         32.4330  -13.5750   31.4580 N.3    65  ASP65      -0.1239
     31  CA        33.4120  -14.6220   31.7200 C.3    65  ASP65       0.1674
     32  C         32.7960  -15.5100   32.7840 C.2    65  ASP65       0.2266
     33  O         32.4290  -15.0240   33.8540 O.2    65  ASP65      -0.2867
     34  CB        34.7280  -14.0240   32.2360 C.3    65  ASP65       0.1410
     35  CG        35.5550  -13.3650   31.1330 C.2    65  ASP65       0.3668
     36  OD1       35.8330  -14.0290   30.1070 O.co2  65  ASP65      -0.2456
     37  OD2       35.9320  -12.1810   31.2970 O.co2  65  ASP65      -0.2456
     38  N         38.2620  -22.7500   36.8770 N.3   109  ASN109     -0.1240
     39  CA        39.2540  -21.6700   36.9090 C.3   109  ASN109      0.1653
     40  C         39.1700  -20.9340   38.2370 C.2   109  ASN109      0.2266
     41  O         38.7720  -19.7630   38.2880 O.2   109  ASN109     -0.2867
     42  CB        38.9910  -20.6930   35.7610 C.3   109  ASN109      0.1155
     43  CG        40.1440  -19.7290   35.5210 C.2   109  ASN109      0.2627
     44  OD1       40.9740  -19.4790   36.4030 O.2   109  ASN109     -0.2716
     45  ND2       40.1870  -19.1670   34.3190 N.am  109  ASN109     -0.0877
     46  N         41.4060  -19.7510   40.3960 N.3   111  LEU111     -0.1231
     47  CA        42.2560  -18.5620   40.5840 C.3   111  LEU111      0.1693
     48  C         41.5930  -17.2850   40.0960 C.2   111  LEU111      0.2591
     49  O         41.6370  -16.2530   40.7740 O.2   111  LEU111     -0.2718
     50  CB        43.6010  -18.7080   39.8650 C.3   111  LEU111      0.0284
     51  CG        44.7370  -19.4320   40.5760 C.3   111  LEU111      0.0019
     52  CD1       44.9730  -18.8990   41.9830 C.3   111  LEU111      0.0001
     53  CD2       44.4400  -20.8890   40.6300 C.3   111  LEU111      0.0001
     54  N         40.9870  -17.3480   38.9110 N.am  112  ALA112     -0.1980
     55  CA        40.3510  -16.1700   38.3250 C.3   112  ALA112      0.1597
     56  C         39.1730  -15.7170   39.1750 C.2   112  ALA112      0.2287
     57  O         38.8910  -14.5180   39.2860 O.2   112  ALA112     -0.2864
     58  CB        39.9120  -16.4410   36.8870 C.3   112  ALA112      0.0319
     59  N         40.8900  -13.8710   42.0230 N.3   115  ASN115     -0.1225
     60  CA        41.3520  -12.5610   41.5320 C.3   115  ASN115      0.1785
     61  C         40.1830  -11.5880   41.5350 C.2   115  ASN115      0.2597
     62  O         40.3050  -10.4430   41.9480 O.2   115  ASN115     -0.2718
     63  CB        41.8860  -12.6540   40.0830 C.3   115  ASN115      0.1169
     64  CG        43.2140  -13.3840   39.9760 C.2   115  ASN115      0.2627
     65  OD1       43.9300  -13.5350   40.9650 O.2   115  ASN115     -0.2716
     66  ND2       43.5590  -13.8260   38.7600 N.am  115  ASN115     -0.0877
     67  N         39.0390  -12.0650   41.0640 N.am  116  THR116     -0.1953
     68  CA        37.8310  -11.2480   40.9840 C.3   116  THR116      0.1897
     69  C         37.2610  -10.8940   42.3530 C.2   116  THR116      0.2313
     70  O         36.7320   -9.7950   42.5480 O.2   116  THR116     -0.2863
     71  CB        36.7540  -11.9570   40.1220 C.3   116  THR116      0.1794
     72  OG1       37.2320  -12.0480   38.7740 O.3   116  THR116     -0.2208
     73  CG2       35.4240  -11.1880   40.1420 C.3   116  THR116      0.0378
     74  N         39.3960   -7.9670   43.4990 N.3   119  LEU119     -0.1245
     75  CA        38.9690   -6.7350   42.8260 C.3   119  LEU119      0.1561
     76  C         37.5960   -6.3070   43.2990 C.2   119  LEU119      0.2260
     77  O         37.3450   -5.1150   43.4560 O.2   119  LEU119     -0.2867
     78  CB        38.9780   -6.9250   41.2960 C.3   119  LEU119      0.0270
     79  CG        40.2660   -6.6730   40.5150 C.3   119  LEU119      0.0019
     80  CD1       41.4990   -7.1560   41.2170 C.3   119  LEU119      0.0001
     81  CD2       40.1790   -7.3180   39.1370 C.3   119  LEU119      0.0001
     82  N         40.4220    1.9710   31.4780 N.3   137  LYS137     -0.1245
     83  CA        40.1390    0.9610   30.4560 C.3   137  LYS137      0.1561
     84  C         39.7400    1.5970   29.1220 C.2   137  LYS137      0.2260
     85  O         40.1460    1.1450   28.0470 O.2   137  LYS137     -0.2867
     86  CB        38.9970    0.0430   30.9320 C.3   137  LYS137      0.0271
     87  CG        39.4020   -0.9830   32.0030 C.3   137  LYS137      0.0035
     88  CD        38.1970   -1.9030   32.3280 C.3   137  LYS137      0.0206
     89  CE        38.5950   -3.1200   33.1410 C.3   137  LYS137      0.1093
     90  NZ        37.3990   -3.9680   33.5060 N.3   137  LYS137     -0.1314
     91  N         46.4290   -7.4450   24.0920 N.3   148  PRO148     -0.2102
     92  CA        47.4720   -8.3540   24.5680 C.3   148  PRO148      0.1504
     93  C         47.9310   -9.2800   23.4490 C.2   148  PRO148      0.2575
     94  O         49.0590   -9.7800   23.4760 O.2   148  PRO148     -0.2718
     95  CB        46.7690   -9.1510   25.6750 C.3   148  PRO148      0.0282
     96  CG        45.5480   -8.3750   26.0150 C.3   148  PRO148      0.0208
     97  CD        45.1430   -7.6700   24.7730 C.3   148  PRO148      0.0893
     98  N         47.0640   -9.4840   22.4630 N.am  149  TYR149     -0.1977
     99  CA        47.4050  -10.3010   21.3060 C.3   149  TYR149      0.1639
    100  C         48.2760   -9.5520   20.3000 C.2   149  TYR149      0.2290
    101  O         48.7530  -10.1330   19.3230 O.2   149  TYR149     -0.2864
    102  CB        46.1290  -10.8610   20.6640 C.3   149  TYR149      0.0560
    103  CG        45.4930  -11.9260   21.5280 C.ar  149  TYR149     -0.0198
    104  CD1       46.2830  -12.7200   22.3530 C.ar  149  TYR149     -0.0009
    105  CD2       44.1180  -12.1300   21.5380 C.ar  149  TYR149     -0.0009
    106  CE1       45.7320  -13.6920   23.1550 C.ar  149  TYR149      0.0417
    107  CE2       43.5500  -13.1080   22.3430 C.ar  149  TYR149      0.0417
    108  CZ        44.3670  -13.8860   23.1490 C.ar  149  TYR149      0.1957
    109  OH        43.8310  -14.8630   23.9570 O.3   149  TYR149     -0.2866
    110  N         46.6130   -6.4330   28.9080 N.3   154  SER154     -0.1202
    111  CA        45.2140   -6.7940   29.1410 C.3   154  SER154      0.2020
    112  C         44.5320   -5.7460   30.0200 C.2   154  SER154      0.2619
    113  O         45.2000   -5.0040   30.7380 O.2   154  SER154     -0.2717
    114  CB        45.1140   -8.1550   29.8210 C.3   154  SER154      0.2103
    115  OG        45.8170   -8.1390   31.0560 O.3   154  SER154     -0.2182
    116  N         43.2070   -5.6880   29.9610 N.am  155  SER155     -0.1937
    117  CA        42.4410   -4.8310   30.8680 C.3   155  SER155      0.2055
    118  C         42.7480   -5.1440   32.3300 C.2   155  SER155      0.2643
    119  O         42.8130   -4.2360   33.1700 O.2   155  SER155     -0.2714
    120  CB        40.9480   -4.9810   30.6030 C.3   155  SER155      0.2130
    121  OG        40.6290   -4.4840   29.3180 O.3   155  SER155     -0.2179
    122  N         42.9390   -6.4260   32.6270 N.am  156  TYR156     -0.1973
    123  CA        43.2760   -6.8520   33.9800 C.3   156  TYR156      0.1639
    124  C         44.6110   -6.2440   34.3980 C.2   156  TYR156      0.2290
    125  O         44.7520   -5.7950   35.5310 O.2   156  TYR156     -0.2864
    126  CB        43.3110   -8.3880   34.0700 C.3   156  TYR156      0.0560
    127  CG        43.6790   -8.9390   35.4330 C.ar  156  TYR156     -0.0198
    128  CD1       42.9430   -8.6030   36.5610 C.ar  156  TYR156     -0.0009
    129  CD2       44.7430   -9.8240   35.5790 C.ar  156  TYR156     -0.0009
    130  CE1       43.2660   -9.1190   37.8010 C.ar  156  TYR156      0.0417
    131  CE2       45.0760  -10.3410   36.8090 C.ar  156  TYR156      0.0417
    132  CZ        44.3270   -9.9860   37.9160 C.ar  156  TYR156      0.1957
    133  OH        44.6410  -10.4880   39.1520 O.3   156  TYR156     -0.2866
    134  N         50.9970  -11.0190   39.3780 N.3   263  ASP263     -0.1239
    135  CA        49.6260  -11.3200   39.7830 C.3   263  ASP263      0.1674
    136  C         49.6540  -11.4790   41.2910 C.2   263  ASP263      0.2266
    137  O         50.5600  -12.1160   41.8320 O.2   263  ASP263     -0.2867
    138  CB        49.1080  -12.6100   39.1380 C.3   263  ASP263      0.1410
    139  CG        47.6190  -12.8380   39.3940 C.2   263  ASP263      0.3668
    140  OD1       46.8060  -12.3920   38.5530 O.co2 263  ASP263     -0.2456
    141  OD2       47.2470  -13.4450   40.4400 O.co2 263  ASP263     -0.2456
    142  N         48.6600  -15.6610   41.8760 N.3   266  GLU266     -0.1245
    143  CA        49.4580  -16.5830   41.0710 C.3   266  GLU266      0.1567
    144  C         50.7650  -15.8740   40.7370 C.2   266  GLU266      0.2260
    145  O         50.9210  -15.3070   39.6510 O.2   266  GLU266     -0.2867
    146  CB        48.7140  -16.9940   39.7930 C.3   266  GLU266      0.0388
    147  CG        49.4480  -18.0890   39.0030 C.3   266  GLU266      0.1160
    148  CD        48.7730  -18.4600   37.6920 C.2   266  GLU266      0.3649
    149  OE1       49.3600  -19.2720   36.9430 O.co2 266  GLU266     -0.2457
    150  OE2       47.6700  -17.9470   37.4130 O.co2 266  GLU266     -0.2457
    151  N         53.0600  -15.7430   37.6470 N.3   269  HIS269     -0.1241
    152  CA        52.4660  -15.2370   36.4200 C.3   269  HIS269      0.1621
    153  C         52.6970  -13.7270   36.2630 C.2   269  HIS269      0.2264
    154  O         52.2540  -12.9380   37.0970 O.2   269  HIS269     -0.2867
    155  CB        50.9710  -15.5400   36.3950 C.3   269  HIS269      0.0745
    156  CG        50.2580  -14.9360   35.2260 C.ar  269  HIS269      0.0817
    157  ND1       50.6760  -15.1230   33.9240 N.ar  269  HIS269     -0.2268
    158  CD2       49.1560  -14.1520   35.1580 C.ar  269  HIS269      0.1154
    159  CE1       49.8620  -14.4800   33.1050 C.ar  269  HIS269      0.1986
    160  NE2       48.9330  -13.8800   33.8280 N.ar  269  HIS269     -0.2212
    161  N         51.4440  -10.7000   34.5640 N.3   271  VAL271     -0.1245
    162  CA        50.2630  -10.2580   33.8280 C.3   271  VAL271      0.1561
    163  C         50.6860   -9.4420   32.5990 C.2   271  VAL271      0.2260
    164  O         49.9830   -9.4010   31.5860 O.2   271  VAL271     -0.2867
    165  CB        49.3120   -9.4300   34.7410 C.3   271  VAL271      0.0252
    166  CG1       48.0760   -8.9780   33.9790 C.3   271  VAL271      0.0019
    167  CG2       48.8920  -10.2640   35.9670 C.3   271  VAL271      0.0019
@<TRIPOS>BOND
     1   101   100    2
     2   100    99    1
     3   102    99    1
     4   102   103    1
     5    99    98    1
     6   103   105   ar
     7   103   104   ar
     8   105   107   ar
     9   107   108   ar
    10   104   106   ar
    11    98    93   am
    12   108   106   ar
    13   108   109    1
    14    93    94    2
    15    93    92    1
    16    91    92    1
    17    91    97    1
    18    92    95    1
    19    29    27   ar
    20    97    96    1
    21    95    96    1
    22    27    28   ar
    23    27    26    1
    24    26    23    1
    25    23    22    1
    26    23    24    1
    27    85    84    2
    28    24    25    2
    29   110   111    1
    30    84    83    1
    31   111   114    1
    32   111   112    1
    33   121   120    1
    34   114   115    1
    35   116   112   am
    36   116   117    1
    37   112   113    2
    38    36    35   ar
    39    83    86    1
    40    83    82    1
    41   120   117    1
    42   117   118    1
    43    86    87    1
    44    35    37   ar
    45    35    34    1
    46    30    31    1
    47   164   163    2
    48    31    34    1
    49    31    32    1
    50    87    88    1
    51    88    89    1
    52   118   122   am
    53   118   119    2
    54   163   162    1
    55   122   123    1
    56    21    20    1
    57    32    33    2
    58   159   160   ar
    59   159   157   ar
    60    89    90    1
    61   160   158   ar
    62   162   161    1
    63   162   165    1
    64   157   156   ar
    65    20    17    1
    66   166   165    1
    67   123   126    1
    68   123   124    1
    69    11     9   ar
    70    11    10   ar
    71   126   127    1
    72    45    43   am
    73   124   125    2
    74     9     7   ar
    75    10     8   ar
    76   165   167    1
    77    16    17    1
    78    16    14   am
    79    17    18    1
    80   158   156   ar
    81   156   155    1
    82   127   129   ar
    83   127   128   ar
    84    18    19    2
    85     4     3    2
    86    43    42    1
    87    43    44    2
    88   129   131   ar
    89     7     6   ar
    90    42    39    1
    91    13    14    1
    92    13    12    1
    93     8     6   ar
    94    14    15    2
    95   153   152    1
    96   153   154    2
    97     6     5    1
    98     3    12   am
    99     3     2    1
   100   155   152    1
   101   152   151    1
   102   128   130   ar
   103     1     2    1
   104   131   132   ar
   105    38    39    1
   106    58    55    1
   107    39    40    1
   108   149   148   ar
   109     2     5    1
   110   150   148   ar
   111   148   147    1
   112   130   132   ar
   113   132   133    1
   114    40    41    2
   115    55    54    1
   116    55    56    1
   117   140   139   ar
   118    66    64   am
   119    72    71    1
   120    54    48   am
   121   147   146    1
   122    81    79    1
   123   138   139    1
   124   138   135    1
   125    56    57    2
   126   134   135    1
   127   139   141   ar
   128   145   144    2
   129   135   136    1
   130   146   143    1
   131    50    51    1
   132    50    47    1
   133    64    63    1
   134    64    65    2
   135    63    60    1
   136    48    47    1
   137    48    49    2
   138    71    73    1
   139    71    68    1
   140    46    47    1
   141    79    80    1
   142    79    78    1
   143    51    53    1
   144    51    52    1
   145   144   143    1
   146    68    67    1
   147    68    69    1
   148    67    61   am
   149   143   142    1
   150   136   137    2
   151    78    75    1
   152    60    61    1
   153    60    59    1
   154    61    62    2
   155    69    70    2
   156    75    76    1
   157    75    74    1
   158    76    77    2
