@<TRIPOS>MOLECULE
tmp/4nkxC01.pdb
 150 140 0 0 0
SMALL
GASTEIGER

@<TRIPOS>ATOM
      1  N          2.4960   12.6020  -53.2470 N.3    75  LEU75      -0.1245
      2  CA         3.0140   11.4390  -53.9350 C.3    75  LEU75       0.1561
      3  C          4.3260   10.9130  -53.3410 C.2    75  LEU75       0.2260
      4  O          4.4960    9.6970  -53.1930 O.2    75  LEU75      -0.2867
      5  CB         3.2310   11.7660  -55.4060 C.3    75  LEU75       0.0270
      6  CG         3.8670   10.6210  -56.2040 C.3    75  LEU75       0.0019
      7  CD1        3.0010    9.3500  -56.1340 C.3    75  LEU75       0.0001
      8  CD2        4.1220   11.0500  -57.6420 C.3    75  LEU75       0.0001
      9  N         12.9250   10.9350  -57.7200 N.3    83  ALA83      -0.1231
     10  CA        12.5210   11.8530  -58.7850 C.3    83  ALA83       0.1694
     11  C         12.0880   13.2380  -58.2900 C.2    83  ALA83       0.2592
     12  O         12.4560   14.2580  -58.8860 O.2    83  ALA83      -0.2718
     13  CB        11.4130   11.2210  -59.6140 C.3    83  ALA83       0.0304
     14  N         11.3150   13.2690  -57.2030 N.am   84  PHE84      -0.1976
     15  CA        10.7520   14.5190  -56.6970 C.3    84  PHE84       0.1639
     16  C         11.4080   14.9650  -55.3840 C.2    84  PHE84       0.2290
     17  O         10.9110   15.8570  -54.6950 O.2    84  PHE84      -0.2864
     18  CB         9.2380   14.3710  -56.5380 C.3    84  PHE84       0.0560
     19  CG         8.5580   13.8630  -57.7750 C.ar   84  PHE84      -0.0200
     20  CD1        8.5290   14.6250  -58.9220 C.ar   84  PHE84      -0.0042
     21  CD2        7.9730   12.6090  -57.7970 C.ar   84  PHE84      -0.0042
     22  CE1        7.9250   14.1530  -60.0630 C.ar   84  PHE84      -0.0003
     23  CE2        7.3660   12.1300  -58.9470 C.ar   84  PHE84      -0.0003
     24  CZ         7.3430   12.9060  -60.0760 C.ar   84  PHE84      -0.0000
     25  N         -4.5190    2.5630  -59.5490 N.3   171  TYR171     -0.1227
     26  CA        -3.9000    3.6170  -58.7680 C.3   171  TYR171      0.1736
     27  C         -2.8840    4.4280  -59.5850 C.2   171  TYR171      0.2595
     28  O         -2.7210    5.6250  -59.3730 O.2   171  TYR171     -0.2718
     29  CB        -3.3650    3.1020  -57.4220 C.3   171  TYR171      0.0548
     30  CG        -2.0730    2.3000  -57.3630 C.ar  171  TYR171     -0.0200
     31  CD1       -0.8830    2.7990  -57.8730 C.ar  171  TYR171     -0.0009
     32  CD2       -2.0280    1.0760  -56.6860 C.ar  171  TYR171     -0.0009
     33  CE1        0.3010    2.0810  -57.7620 C.ar  171  TYR171      0.0417
     34  CE2       -0.8470    0.3570  -56.5700 C.ar  171  TYR171      0.0417
     35  CZ         0.3110    0.8650  -57.1080 C.ar  171  TYR171      0.1957
     36  OH         1.4890    0.1650  -57.0030 O.3   171  TYR171     -0.2866
     37  N         -2.2520    3.7840  -60.5540 N.am  172  ASN172     -0.1974
     38  CA        -1.3580    4.4660  -61.4690 C.3   172  ASN172      0.1688
     39  C         -2.1000    5.4300  -62.3580 C.2   172  ASN172      0.2292
     40  O         -1.6270    6.5400  -62.6090 O.2   172  ASN172     -0.2864
     41  CB        -0.6460    3.4570  -62.3630 C.3   172  ASN172      0.1181
     42  CG         0.6560    2.9580  -61.7800 C.2   172  ASN172      0.2629
     43  OD1        1.4330    2.3240  -62.4860 O.2   172  ASN172     -0.2716
     44  ND2        0.9020    3.2220  -60.4980 N.am  172  ASN172     -0.0877
     45  N         -3.4450    8.4370  -60.1710 N.3   175  ILE175     -0.1231
     46  CA        -2.3860    9.3530  -59.7520 C.3   175  ILE175      0.1692
     47  C         -2.0390   10.3190  -60.8820 C.2   175  ILE175      0.2591
     48  O         -2.1100   11.5380  -60.7060 O.2   175  ILE175     -0.2718
     49  CB        -1.1280    8.5760  -59.2760 C.3   175  ILE175      0.0266
     50  CG1       -1.4220    7.9570  -57.9080 C.3   175  ILE175      0.0019
     51  CG2        0.0980    9.5060  -59.1760 C.3   175  ILE175      0.0020
     52  CD1       -0.4210    6.9550  -57.4100 C.3   175  ILE175      0.0001
     53  N         -1.6940    9.7660  -62.0400 N.am  176  ILE176     -0.1980
     54  CA        -1.4010   10.5620  -63.2200 C.3   176  ILE176      0.1595
     55  C         -2.5450   11.5250  -63.5830 C.2   176  ILE176      0.2287
     56  O         -2.3230   12.5880  -64.1380 O.2   176  ILE176     -0.2864
     57  CB        -1.0710    9.6400  -64.4170 C.3   176  ILE176      0.0276
     58  CG1        0.2180    8.8580  -64.1310 C.3   176  ILE176      0.0022
     59  CG2       -0.9410   10.4370  -65.7270 C.3   176  ILE176      0.0022
     60  CD1        0.4840    7.7300  -65.1200 C.3   176  ILE176      0.0001
     61  N         -2.6440   14.2610  -60.4490 N.3   179  LEU179     -0.1245
     62  CA        -1.4270   14.9730  -60.0940 C.3   179  LEU179      0.1561
     63  C         -1.4600   16.3620  -60.7080 C.2   179  LEU179      0.2260
     64  O         -1.0920   17.3310  -60.0640 O.2   179  LEU179     -0.2867
     65  CB        -0.1890   14.2130  -60.5750 C.3   179  LEU179      0.0270
     66  CG         1.0810   14.3980  -59.7430 C.3   179  LEU179      0.0019
     67  CD1        0.9270   13.7800  -58.3760 C.3   179  LEU179      0.0001
     68  CD2        2.2740   13.7990  -60.4580 C.3   179  LEU179      0.0001
     69  N         -1.8040    2.6580  -52.8950 N.3   209  ARG209     -0.1245
     70  CA        -0.4800    2.2550  -53.3180 C.3   209  ARG209      0.1563
     71  C          0.4640    2.1040  -52.1180 C.2   209  ARG209      0.2260
     72  O          1.0680    1.0510  -51.9470 O.2   209  ARG209     -0.2867
     73  CB         0.0410    3.2470  -54.3670 C.3   209  ARG209      0.0307
     74  CG         1.5220    3.1580  -54.6740 C.3   209  ARG209      0.0489
     75  CD         2.2720    4.2180  -53.9070 C.3   209  ARG209      0.2205
     76  NE         3.2820    4.8490  -54.7330 N.pl3 209  ARG209     -0.0865
     77  CZ         3.9570    5.9420  -54.3960 C.cat 209  ARG209      0.5346
     78  NH1        3.7500    6.5540  -53.2320 N.pl3 209  ARG209      0.1354
     79  NH2        4.8540    6.4200  -55.2470 N.pl3 209  ARG209      0.1354
     80  N          8.6250    3.0550  -55.0990 N.3   263  GLY263     -0.1210
     81  CA         7.4290    3.5030  -55.8030 C.3   263  GLY263      0.1956
     82  C          7.7720    4.3060  -57.0470 C.2   263  GLY263      0.2611
     83  O          7.0800    4.2020  -58.0620 O.2   263  GLY263     -0.2717
     84  N          8.8420    5.1020  -56.9610 N.am  264  ASP264     -0.1973
     85  CA         9.3500    5.8570  -58.1020 C.3   264  ASP264      0.1709
     86  C          9.8320    4.9140  -59.2080 C.2   264  ASP264      0.2293
     87  O          9.4310    5.0520  -60.3660 O.2   264  ASP264     -0.2864
     88  CB        10.5180    6.7740  -57.6860 C.3   264  ASP264      0.1436
     89  CG        10.0640    8.0650  -57.0010 C.2   264  ASP264      0.3671
     90  OD1        8.8380    8.3300  -56.9450 O.co2 264  ASP264     -0.2456
     91  OD2       10.9530    8.8210  -56.5320 O.co2 264  ASP264     -0.2456
     92  N          6.9200    3.0790  -60.7190 N.3   267  GLY267     -0.1210
     93  CA         6.1210    3.9380  -61.5710 C.3   267  GLY267      0.1956
     94  C          6.8340    4.3030  -62.8550 C.2   267  GLY267      0.2611
     95  O          6.3120    4.0940  -63.9490 O.2   267  GLY267     -0.2717
     96  N          8.0340    4.8590  -62.7220 N.am  268  ALA268     -0.1979
     97  CA         8.8440    5.1860  -63.8870 C.3   268  ALA268      0.1597
     98  C          8.9930    3.9580  -64.7850 C.2   268  ALA268      0.2287
     99  O          8.8340    4.0390  -65.9990 O.2   268  ALA268     -0.2864
    100  CB        10.1980    5.6910  -63.4570 C.3   268  ALA268      0.0319
    101  N          4.8670    3.1190  -66.3680 N.3   271  GLU271     -0.1231
    102  CA         4.0280    4.0590  -67.0920 C.3   271  GLU271      0.1699
    103  C          4.7300    4.7310  -68.2950 C.2   271  GLU271      0.2592
    104  O          4.0900    5.0010  -69.3160 O.2   271  GLU271     -0.2718
    105  CB         3.4420    5.0820  -66.1150 C.3   271  GLU271      0.0402
    106  CG         2.5260    4.4500  -65.0360 C.3   271  GLU271      0.1161
    107  CD         1.2060    3.8860  -65.5900 C.2   271  GLU271      0.3649
    108  OE1        0.5570    4.5690  -66.4150 O.co2 271  GLU271     -0.2457
    109  OE2        0.8190    2.7550  -65.1980 O.co2 271  GLU271     -0.2457
    110  N          6.0390    4.9540  -68.2060 N.am  272  THR272     -0.1953
    111  CA         6.7800    5.5620  -69.3180 C.3   272  THR272      0.1897
    112  C          6.8840    4.6200  -70.5210 C.2   272  THR272      0.2313
    113  O          6.4690    4.9690  -71.6250 O.2   272  THR272     -0.2863
    114  CB         8.2150    5.9930  -68.9140 C.3   272  THR272      0.1794
    115  OG1        8.9740    4.8420  -68.5340 O.3   272  THR272     -0.2208
    116  CG2        8.1860    6.9830  -67.7620 C.3   272  THR272      0.0378
    117  N          8.1530   11.5300  -73.3740 N.3   332  VAL332     -0.1231
    118  CA         7.4600   11.1180  -72.1590 C.3   332  VAL332      0.1692
    119  C          7.2230   12.3600  -71.2990 C.2   332  VAL332      0.2591
    120  O          6.1300   12.5700  -70.7690 O.2   332  VAL332     -0.2718
    121  CB         8.3020   10.0650  -71.3820 C.3   332  VAL332      0.0266
    122  CG1        7.6490    9.6550  -70.0880 C.3   332  VAL332      0.0020
    123  CG2        8.5330    8.8380  -72.2430 C.3   332  VAL332      0.0020
    124  N          8.2510   13.1940  -71.1950 N.am  333  ALA333     -0.1980
    125  CA         8.2130   14.3730  -70.3470 C.3   333  ALA333      0.1597
    126  C          8.5250   15.6040  -71.2020 C.2   333  ALA333      0.2287
    127  O          9.6650   16.0470  -71.2810 O.2   333  ALA333     -0.2864
    128  CB         9.2130   14.2220  -69.1890 C.3   333  ALA333      0.0319
    129  N         11.1310   17.2900  -65.6180 N.3   337  ILE337     -0.1245
    130  CA        10.5990   17.6580  -64.3230 C.3   337  ILE337      0.1561
    131  C         11.2060   19.0040  -63.9300 C.2   337  ILE337      0.2260
    132  O         12.3370   19.2980  -64.2910 O.2   337  ILE337     -0.2867
    133  CB        10.9280   16.5970  -63.2920 C.3   337  ILE337      0.0252
    134  CG1       10.3870   15.2480  -63.7750 C.3   337  ILE337      0.0019
    135  CG2       10.3520   16.9780  -61.9300 C.3   337  ILE337      0.0019
    136  CD1       10.7980   14.0880  -62.9010 C.3   337  ILE337      0.0001
    137  N          1.9360   14.3890  -66.2520 N.3   448  VAL448     -0.1231
    138  CA         3.2840   14.2010  -65.7430 C.3   448  VAL448      0.1692
    139  C          3.9600   13.2420  -66.6970 C.2   448  VAL448      0.2591
    140  O          5.1770   13.2090  -66.8220 O.2   448  VAL448     -0.2718
    141  CB         3.2690   13.6470  -64.3140 C.3   448  VAL448      0.0266
    142  CG1        2.7030   12.2270  -64.2970 C.3   448  VAL448      0.0020
    143  CG2        4.6450   13.6990  -63.7060 C.3   448  VAL448      0.0020
    144  N          3.1350   12.4670  -67.3810 N.am  449  VAL449     -0.1980
    145  CA         3.5570   11.6850  -68.5290 C.3   449  VAL449      0.1595
    146  C          2.7240   12.2050  -69.7010 C.2   449  VAL449      0.2287
    147  O          1.5920   12.6160  -69.5110 O.2   449  VAL449     -0.2864
    148  CB         3.2960   10.1740  -68.2950 C.3   449  VAL449      0.0276
    149  CG1        3.5670    9.3580  -69.5530 C.3   449  VAL449      0.0022
    150  CG2        4.1470    9.6700  -67.1480 C.3   449  VAL449      0.0022
@<TRIPOS>BOND
     1   117   118    1
     2   123   121    1
     3   118   121    1
     4   118   119    1
     5   113   112    2
     6   121   122    1
     7   119   124   am
     8   119   120    2
     9   127   126    2
    10   126   125    1
    11   124   125    1
    12   112   111    1
    13   125   128    1
    14   146   147    2
    15   146   145    1
    16   149   148    1
    17   111   114    1
    18   111   110    1
    19   104   103    2
    20   114   115    1
    21   114   116    1
    22   145   148    1
    23   145   144    1
    24   103   110   am
    25   103   102    1
    26   148   150    1
    27   144   139   am
    28   102   101    1
    29   102   105    1
    30   140   139    2
    31   139   138    1
    32   108   107   ar
    33   137   138    1
    34   105   106    1
    35    99    98    2
    36   138   141    1
    37    59    57    1
    38   129   130    1
    39   107   109   ar
    40   107   106    1
    41    60    58    1
    42    98    97    1
    43    57    58    1
    44    57    54    1
    45   130   131    1
    46   130   133    1
    47   141   142    1
    48   141   143    1
    49   132   131    2
    50    56    55    2
    51    95    94    2
    52    97   100    1
    53    97    96    1
    54   134   133    1
    55   134   136    1
    56    55    54    1
    57   133   135    1
    58    54    53    1
    59    94    96   am
    60    94    93    1
    61    40    39    2
    62    43    42    2
    63    41    42    1
    64    41    38    1
    65    39    38    1
    66    53    47   am
    67    42    44   am
    68    93    92    1
    69    38    37    1
    70    47    48    2
    71    47    46    1
    72    63    62    1
    73    63    64    2
    74    65    62    1
    75    65    66    1
    76    37    27   am
    77    68    66    1
    78    61    62    1
    79    87    86    2
    80    45    46    1
    81    24    22   ar
    82    24    23   ar
    83    22    20   ar
    84    46    49    1
    85    66    67    1
    86    13    10    1
    87    27    28    2
    88    27    26    1
    89    25    26    1
    90    49    51    1
    91    49    50    1
    92    86    85    1
    93    23    21   ar
    94    20    19   ar
    95    12    11    2
    96    10    11    1
    97    10     9    1
    98    26    29    1
    99    11    14   am
   100    85    88    1
   101    85    84    1
   102    83    82    2
   103    50    52    1
   104    31    33   ar
   105    31    30   ar
   106    21    19   ar
   107    19    18    1
   108    33    35   ar
   109    88    89    1
   110     8     6    1
   111    29    30    1
   112    30    32   ar
   113    14    15    1
   114    35    36    1
   115    35    34   ar
   116    82    84   am
   117    82    81    1
   118    89    90   ar
   119    89    91   ar
   120    15    18    1
   121    15    16    1
   122    32    34   ar
   123     6     7    1
   124     6     5    1
   125    81    80    1
   126     5     2    1
   127    16    17    2
   128    79    77    1
   129    76    77    2
   130    76    75    1
   131    74    73    1
   132    74    75    1
   133    77    78    1
   134    73    70    1
   135     2     3    1
   136     2     1    1
   137     3     4    2
   138    70    69    1
   139    70    71    1
   140    71    72    2
