@<TRIPOS>MOLECULE
tmp/4nkyB01.pdb
 158 148 0 0 0
SMALL
GASTEIGER

@<TRIPOS>ATOM
      1  N         21.6860  182.0230  235.7930 N.3    75  LEU75      -0.1245
      2  CA        22.8050  182.2460  234.8950 C.3    75  LEU75       0.1561
      3  C         23.7990  183.2570  235.4830 C.2    75  LEU75       0.2260
      4  O         25.0120  183.0050  235.5150 O.2    75  LEU75      -0.2867
      5  CB        22.2980  182.7180  233.5360 C.3    75  LEU75       0.0270
      6  CG        23.3650  183.0460  232.4900 C.3    75  LEU75       0.0019
      7  CD1       24.3210  181.8760  232.2430 C.3    75  LEU75       0.0001
      8  CD2       22.6660  183.4460  231.2220 C.3    75  LEU75       0.0001
      9  N         25.7060  191.9060  232.1860 N.3    83  ALA83      -0.1231
     10  CA        24.4980  192.0020  231.3620 C.3    83  ALA83       0.1694
     11  C         23.1870  191.9510  232.1330 C.2    83  ALA83       0.2592
     12  O         22.2490  192.6790  231.8000 O.2    83  ALA83      -0.2718
     13  CB        24.5150  190.9000  230.2930 C.3    83  ALA83       0.0304
     14  N         23.1080  191.0860  233.1390 N.am   84  PHE84      -0.1976
     15  CA        21.8600  190.8790  233.8840 C.3    84  PHE84       0.1639
     16  C         21.9730  191.3530  235.3260 C.2    84  PHE84       0.2290
     17  O         21.0300  191.2300  236.1120 O.2    84  PHE84      -0.2864
     18  CB        21.4370  189.4120  233.8060 C.3    84  PHE84       0.0560
     19  CG        21.3570  188.9050  232.4070 C.ar   84  PHE84      -0.0200
     20  CD1       20.3520  189.3360  231.5630 C.ar   84  PHE84      -0.0042
     21  CD2       22.2990  188.0270  231.9190 C.ar   84  PHE84      -0.0042
     22  CE1       20.2850  188.8820  230.2580 C.ar   84  PHE84      -0.0003
     23  CE2       22.2340  187.5650  230.6210 C.ar   84  PHE84      -0.0003
     24  CZ        21.2310  187.9930  229.7890 C.ar   84  PHE84      -0.0000
     25  N         26.6840  173.2350  226.6630 N.3   171  TYR171     -0.1227
     26  CA        26.0220  173.9830  227.7390 C.3   171  TYR171      0.1736
     27  C         25.5580  175.3560  227.2950 C.2   171  TYR171      0.2595
     28  O         24.5660  175.8630  227.8260 O.2   171  TYR171     -0.2718
     29  CB        26.8260  174.0320  229.0560 C.3   171  TYR171      0.0548
     30  CG        28.1430  174.7860  229.0840 C.ar  171  TYR171     -0.0200
     31  CD1       28.2280  176.1080  228.6930 C.ar  171  TYR171     -0.0009
     32  CD2       29.2910  174.1840  229.5850 C.ar  171  TYR171     -0.0009
     33  CE1       29.4240  176.7980  228.7580 C.ar  171  TYR171      0.0417
     34  CE2       30.4860  174.8640  229.6540 C.ar  171  TYR171      0.0417
     35  CZ        30.5450  176.1720  229.2450 C.ar  171  TYR171      0.1957
     36  OH        31.7320  176.8620  229.3060 O.3   171  TYR171     -0.2866
     37  N         26.2310  175.9480  226.3080 N.am  172  ASN172     -0.1974
     38  CA        25.6980  177.1690  225.7180 C.3   172  ASN172      0.1688
     39  C         24.3350  176.8840  225.1190 C.2   172  ASN172      0.2292
     40  O         23.3760  177.6160  225.3610 O.2   172  ASN172     -0.2864
     41  CB        26.6130  177.7490  224.6390 C.3   172  ASN172      0.1181
     42  CG        27.8000  178.5240  225.2030 C.2   172  ASN172      0.2629
     43  OD1       28.6930  178.9000  224.4420 O.2   172  ASN172     -0.2716
     44  ND2       27.8290  178.7600  226.5180 N.am  172  ASN172     -0.0877
     45  N         21.8480  176.4010  227.9860 N.3   175  ILE175     -0.1231
     46  CA        21.5590  177.6440  228.6930 C.3   175  ILE175      0.1692
     47  C         20.6130  178.5120  227.8710 C.2   175  ILE175      0.2591
     48  O         19.6350  179.0340  228.3920 O.2   175  ILE175     -0.2718
     49  CB        22.8490  178.4210  229.0000 C.3   175  ILE175      0.0266
     50  CG1       23.6230  177.7190  230.1140 C.3   175  ILE175      0.0019
     51  CG2       22.5360  179.8490  229.4430 C.3   175  ILE175      0.0020
     52  CD1       25.0410  178.1880  230.2430 C.3   175  ILE175      0.0001
     53  N         20.8890  178.6460  226.5810 N.am  176  ILE176     -0.1980
     54  CA        20.0120  179.4000  225.6930 C.3   176  ILE176      0.1595
     55  C         18.6430  178.7490  225.5710 C.2   176  ILE176      0.2287
     56  O         17.6330  179.4310  225.4990 O.2   176  ILE176     -0.2864
     57  CB        20.6530  179.5770  224.2850 C.3   176  ILE176      0.0276
     58  CG1       21.8870  180.4820  224.3990 C.3   176  ILE176      0.0022
     59  CG2       19.6510  180.1760  223.2920 C.3   176  ILE176      0.0022
     60  CD1       22.6660  180.6410  223.1310 C.3   176  ILE176      0.0001
     61  N         16.8260  179.3610  229.1530 N.3   179  LEU179     -0.1245
     62  CA        16.8080  180.7230  229.7010 C.3   179  LEU179      0.1561
     63  C         15.4340  181.3470  229.5220 C.2   179  LEU179      0.2260
     64  O         15.0000  182.1810  230.3200 O.2   179  LEU179     -0.2867
     65  CB        17.8490  181.6010  229.0120 C.3   179  LEU179      0.0270
     66  CG        18.3550  182.8200  229.7740 C.3   179  LEU179      0.0019
     67  CD1       19.1010  182.4380  231.0260 C.3   179  LEU179      0.0001
     68  CD2       19.2610  183.6050  228.8560 C.3   179  LEU179      0.0001
     69  N         29.1340  174.8330  233.3380 N.3   209  ARG209     -0.1245
     70  CA        29.8350  176.0490  232.9210 C.3   209  ARG209      0.1563
     71  C         30.6530  176.6290  234.0750 C.2   209  ARG209      0.2260
     72  O         31.8320  176.9470  233.9190 O.2   209  ARG209     -0.2867
     73  CB        28.8360  177.0780  232.3910 C.3   209  ARG209      0.0307
     74  CG        29.4610  178.3640  231.8700 C.3   209  ARG209      0.0489
     75  CD        29.6640  179.3800  232.9770 C.3   209  ARG209      0.2205
     76  NE        29.0090  180.6380  232.6480 N.pl3 209  ARG209     -0.0865
     77  CZ        28.0070  181.1930  233.3220 C.cat 209  ARG209      0.5346
     78  NH1       27.5060  180.6310  234.4070 N.pl3 209  ARG209      0.1354
     79  NH2       27.5060  182.3420  232.8920 N.pl3 209  ARG209      0.1354
     80  N         32.0640  184.8380  232.3340 N.3   258  GLY258     -0.1210
     81  CA        30.9550  184.1090  231.7480 C.3   258  GLY258      0.1956
     82  C         30.1600  184.9300  230.7450 C.2   258  GLY258      0.2611
     83  O         29.9590  184.4930  229.6170 O.2   258  GLY258     -0.2717
     84  N         29.7100  186.1200  231.1390 N.am  259  ASP259     -0.1973
     85  CA        28.9300  186.9690  230.2320 C.3   259  ASP259      0.1709
     86  C         29.7270  187.3960  228.9990 C.2   259  ASP259      0.2293
     87  O         29.1750  187.4910  227.9070 O.2   259  ASP259     -0.2864
     88  CB        28.4000  188.2130  230.9480 C.3   259  ASP259      0.1436
     89  CG        27.2420  187.9060  231.8990 C.2   259  ASP259      0.3671
     90  OD1       26.6370  186.8110  231.7820 O.co2 259  ASP259     -0.2456
     91  OD2       26.9320  188.7750  232.7530 O.co2 259  ASP259     -0.2456
     92  N         30.1420  184.1280  226.8510 N.3   262  GLY262     -0.1210
     93  CA        28.8590  183.7970  226.2640 C.3   262  GLY262      0.1956
     94  C         28.4590  184.7600  225.1600 C.2   262  GLY262      0.2611
     95  O         27.9630  184.3520  224.1030 O.2   262  GLY262     -0.2717
     96  N         28.6850  186.0450  225.3920 N.am  263  ALA263     -0.1979
     97  CA        28.2870  187.0620  224.4250 C.3   263  ALA263      0.1597
     98  C         29.2030  187.0370  223.2040 C.2   263  ALA263      0.2287
     99  O         28.7390  187.1410  222.0640 O.2   263  ALA263     -0.2864
    100  CB        28.2750  188.4530  225.0730 C.3   263  ALA263      0.0319
    101  N         28.1910  183.4230  221.0720 N.3   266  GLU266     -0.1231
    102  CA        26.8650  183.1310  220.5310 C.3   266  GLU266      0.1699
    103  C         26.3540  184.2160  219.5760 C.2   266  GLU266      0.2592
    104  O         25.7660  183.9060  218.5380 O.2   266  GLU266     -0.2718
    105  CB        25.8680  182.8520  221.6610 C.3   266  GLU266      0.0402
    106  CG        26.2070  181.5930  222.4740 C.3   266  GLU266      0.1161
    107  CD        26.1330  180.3010  221.6620 C.2   266  GLU266      0.3649
    108  OE1       25.0180  179.9290  221.2370 O.co2 266  GLU266     -0.2457
    109  OE2       27.1880  179.6460  221.4590 O.co2 266  GLU266     -0.2457
    110  N         26.6140  185.4790  219.8830 N.am  267  THR267     -0.1953
    111  CA        26.1150  186.5590  219.0430 C.3   267  THR267      0.1897
    112  C         26.8180  186.5540  217.6860 C.2   267  THR267      0.2313
    113  O         26.1810  186.5510  216.6280 O.2   267  THR267     -0.2863
    114  CB        26.3210  187.9060  219.7350 C.3   267  THR267      0.1794
    115  OG1       27.7220  188.1410  219.9070 O.3   267  THR267     -0.2208
    116  CG2       25.6450  187.9020  221.1040 C.3   267  THR267      0.0378
    117  N         20.2730  190.8030  216.6730 N.3   327  VAL327     -0.1231
    118  CA        20.6080  189.7820  217.6660 C.3   327  VAL327      0.1692
    119  C         19.6680  189.8080  218.8770 C.2   327  VAL327      0.2591
    120  O         19.3250  188.7590  219.4310 O.2   327  VAL327     -0.2718
    121  CB        22.0620  189.9910  218.1420 C.3   327  VAL327      0.0266
    122  CG1       22.4450  189.0060  219.2230 C.3   327  VAL327      0.0020
    123  CG2       23.0220  189.8780  216.9500 C.3   327  VAL327      0.0020
    124  N         19.2630  191.0070  219.2860 N.am  328  ALA328     -0.1980
    125  CA        18.3240  191.1800  220.3940 C.3   328  ALA328      0.1597
    126  C         17.2230  192.1340  219.9670 C.2   328  ALA328      0.2287
    127  O         17.3280  193.3290  220.2140 O.2   328  ALA328     -0.2864
    128  CB        19.0460  191.7290  221.6270 C.3   328  ALA328      0.0319
    129  N         16.3010  194.0870  222.7650 N.3   331  LEU331     -0.1231
    130  CA        17.4460  194.3070  223.6210 C.3   331  LEU331      0.1693
    131  C         17.3490  193.3650  224.8110 C.2   331  LEU331      0.2591
    132  O         16.8840  192.2400  224.6740 O.2   331  LEU331     -0.2718
    133  CB        17.4790  195.7620  224.0770 C.3   331  LEU331      0.0284
    134  CG        17.2130  196.8090  222.9900 C.3   331  LEU331      0.0019
    135  CD1       17.3950  198.2090  223.5630 C.3   331  LEU331      0.0001
    136  CD2       18.1140  196.5910  221.7900 C.3   331  LEU331      0.0001
    137  N         17.8010  193.8250  225.9690 N.am  332  ILE332     -0.1980
    138  CA        17.5650  193.1310  227.2190 C.3   332  ILE332      0.1595
    139  C         16.6640  194.0520  228.0030 C.2   332  ILE332      0.2287
    140  O         16.8500  195.2630  227.9620 O.2   332  ILE332     -0.2864
    141  CB        18.8680  192.8750  227.9920 C.3   332  ILE332      0.0276
    142  CG1       19.8150  192.0090  227.1540 C.3   332  ILE332      0.0022
    143  CG2       18.5740  192.1790  229.2990 C.3   332  ILE332      0.0022
    144  CD1       21.2050  191.8380  227.7420 C.3   332  ILE332      0.0001
    145  N         16.8950  184.3940  223.7370 N.3   443  VAL443     -0.1231
    146  CA        17.6620  185.5050  224.2890 C.3   443  VAL443      0.1692
    147  C         18.5410  186.0560  223.1790 C.2   443  VAL443      0.2591
    148  O         18.9880  187.2000  223.2160 O.2   443  VAL443     -0.2718
    149  CB        18.5330  185.0320  225.4820 C.3   443  VAL443      0.0266
    150  CG1       19.5250  183.9540  225.0360 C.3   443  VAL443      0.0020
    151  CG2       19.2450  186.2070  226.1410 C.3   443  VAL443      0.0020
    152  N         18.7860  185.2030  222.1890 N.am  444  VAL444     -0.1980
    153  CA        19.4200  185.6010  220.9460 C.3   444  VAL444      0.1595
    154  C         18.4320  185.2010  219.8470 C.2   444  VAL444      0.2287
    155  O         17.6600  184.2570  220.0220 O.2   444  VAL444     -0.2864
    156  CB        20.8060  184.9270  220.7620 C.3   444  VAL444      0.0276
    157  CG1       21.3810  185.2270  219.3910 C.3   444  VAL444      0.0022
    158  CG2       21.7620  185.4000  221.8360 C.3   444  VAL444      0.0022
@<TRIPOS>BOND
     1   113   112    2
     2   117   118    1
     3   123   121    1
     4   118   121    1
     5   118   119    1
     6   112   111    1
     7   121   122    1
     8   104   103    2
     9   119   124   am
    10   119   120    2
    11   111   114    1
    12   111   110    1
    13   124   125    1
    14   157   156    1
    15   103   110   am
    16   103   102    1
    17   114   115    1
    18   114   116    1
    19   154   155    2
    20   154   153    1
    21   126   127    2
    22   126   125    1
    23   125   128    1
    24   102   101    1
    25   102   105    1
    26   156   153    1
    27   156   158    1
    28   153   152    1
    29   108   107   ar
    30   109   107   ar
    31   105   106    1
    32   107   106    1
    33   136   134    1
    34    99    98    2
    35   152   147   am
    36   129   130    1
    37   134   135    1
    38   134   133    1
    39    60    58    1
    40   147   148    2
    41   147   146    1
    42    98    97    1
    43    59    57    1
    44   130   133    1
    45   130   131    1
    46   145   146    1
    47    95    94    2
    48    57    58    1
    49    57    54    1
    50   146   149    1
    51    97   100    1
    52    97    96    1
    53    43    42    2
    54    41    42    1
    55    41    38    1
    56   132   131    2
    57   131   137   am
    58   150   149    1
    59    39    40    2
    60    39    38    1
    61    94    96   am
    62    94    93    1
    63    42    44   am
    64   149   151    1
    65    56    55    2
    66    55    54    1
    67    54    53    1
    68    38    37    1
    69   137   138    1
    70    93    92    1
    71    37    27   am
    72    53    47   am
    73    25    26    1
    74   142   144    1
    75   142   141    1
    76   138   141    1
    77   138   139    1
    78    27    26    1
    79    27    28    2
    80    26    29    1
    81    47    48    2
    82    47    46    1
    83    87    86    2
    84   140   139    2
    85    45    46    1
    86   141   143    1
    87    46    49    1
    88    31    33   ar
    89    31    30   ar
    90    33    35   ar
    91    68    66    1
    92    86    85    1
    93    49    51    1
    94    49    50    1
    95    65    62    1
    96    65    66    1
    97    29    30    1
    98    30    32   ar
    99    61    62    1
   100    35    36    1
   101    35    34   ar
   102    63    62    1
   103    63    64    2
   104    32    34   ar
   105    83    82    2
   106    66    67    1
   107    24    22   ar
   108    24    23   ar
   109    50    52    1
   110    85    88    1
   111    85    84    1
   112    22    20   ar
   113    13    10    1
   114    23    21   ar
   115    82    84   am
   116    82    81    1
   117    88    89    1
   118     8     6    1
   119    10    11    1
   120    10     9    1
   121    20    19   ar
   122    81    80    1
   123    90    89   ar
   124    12    11    2
   125    74    73    1
   126    74    75    1
   127    89    91   ar
   128    21    19   ar
   129    11    14   am
   130     7     6    1
   131    73    70    1
   132    19    18    1
   133     6     5    1
   134    76    75    1
   135    76    77    2
   136    79    77    1
   137    70    69    1
   138    70    71    1
   139    14    15    1
   140    77    78    1
   141     5     2    1
   142    18    15    1
   143    15    16    1
   144    72    71    2
   145     2     3    1
   146     2     1    1
   147    16    17    2
   148     3     4    2
