@<TRIPOS>MOLECULE
tmp/4nl0A00.pdb
 133 129 0 0 0
SMALL
GASTEIGER

@<TRIPOS>ATOM
      1  N        -49.2410  -13.0410    9.7870 N.3    46  PHE46      -0.1227
      2  CA       -48.6990  -14.3110    9.3030 C.3    46  PHE46       0.1736
      3  C        -48.2740  -15.2290   10.4760 C.2    46  PHE46       0.2595
      4  O        -47.8930  -16.3450   10.2500 O.2    46  PHE46      -0.2718
      5  CB       -47.4930  -14.0760    8.3680 C.3    46  PHE46       0.0547
      6  CG       -46.2760  -13.5540    9.0930 C.ar   46  PHE46      -0.0202
      7  CD1      -45.1900  -14.3840    9.3590 C.ar   46  PHE46      -0.0042
      8  CD2      -46.2400  -12.2290    9.5590 C.ar   46  PHE46      -0.0042
      9  CE1      -44.0680  -13.8970   10.0600 C.ar   46  PHE46      -0.0003
     10  CE2      -45.1400  -11.7340   10.2210 C.ar   46  PHE46      -0.0003
     11  CZ       -44.0540  -12.5620   10.5000 C.ar   46  PHE46      -0.0000
     12  N        -48.3480  -14.7560   11.7220 N.am   47  ALA47      -0.1966
     13  CA       -47.9390  -15.5490   12.8970 C.3    47  ALA47       0.1728
     14  C        -48.4650  -14.9330   14.1870 C.2    47  ALA47       0.2616
     15  O        -48.7100  -13.7200   14.2700 O.2    47  ALA47      -0.2715
     16  CB       -46.4180  -15.6750   12.9640 C.3    47  ALA47       0.0334
     17  N        -48.6540  -15.7860   15.1830 N.am   48  LYS48      -0.1963
     18  CA       -48.9410  -15.3530   16.5400 C.3    48  LYS48       0.1728
     19  C        -48.0190  -16.0680   17.4870 C.2    48  LYS48       0.2617
     20  O        -47.5020  -17.1620   17.1880 O.2    48  LYS48      -0.2715
     21  CB       -50.4070  -15.5840   16.9530 C.3    48  LYS48       0.0311
     22  CG       -51.0280  -16.9160   16.5380 C.3    48  LYS48       0.0038
     23  CD       -52.4960  -17.0280   16.9910 C.3    48  LYS48       0.0206
     24  CE       -52.6680  -17.6740   18.3770 C.3    48  LYS48       0.1093
     25  NZ       -52.7440  -16.7390   19.5490 N.3    48  LYS48      -0.1314
     26  N        -47.7840  -15.4320   18.6260 N.am   49  GLY49      -0.1940
     27  CA       -47.0600  -16.0740   19.7030 C.3    49  GLY49       0.2014
     28  C        -47.9780  -16.0560   20.8940 C.2    49  GLY49       0.2639
     29  O        -49.1760  -15.8000   20.7470 O.2    49  GLY49      -0.2714
     30  N        -47.4270  -16.2980   22.0800 N.am   50  GLY50      -0.1939
     31  CA       -48.2220  -16.2480   23.2940 C.3    50  GLY50       0.2014
     32  C        -48.9190  -14.9110   23.5400 C.2    50  GLY50       0.2639
     33  O        -50.0880  -14.8740   23.9310 O.2    50  GLY50      -0.2714
     34  N        -48.2200  -13.8060   23.2910 N.am   51  GLU51      -0.1963
     35  CA       -48.6730  -12.4790   23.7600 C.3    51  GLU51       0.1733
     36  C        -49.1520  -11.5230   22.6250 C.2    51  GLU51       0.2616
     37  O        -49.9920  -10.6240   22.8350 O.2    51  GLU51      -0.2715
     38  CB       -47.6070  -11.8440   24.7140 C.3    51  GLU51       0.0429
     39  CG       -46.1170  -11.9770   24.2930 C.3    51  GLU51       0.1163
     40  CD       -45.2550  -12.9940   25.0920 C.2    51  GLU51       0.3649
     41  OE1      -44.7390  -13.9990   24.5120 O.co2  51  GLU51      -0.2457
     42  OE2      -45.0490  -12.7720   26.3030 O.co2  51  GLU51      -0.2457
     43  N        -48.6430  -11.7370   21.4130 N.am   52  ARG52      -0.1977
     44  CA       -48.9620  -10.8290   20.3100 C.3    52  ARG52       0.1597
     45  C        -49.0350  -11.4550   18.9120 C.2    52  ARG52       0.2287
     46  O        -48.5360  -12.5720   18.6560 O.2    52  ARG52      -0.2864
     47  CB       -47.9890   -9.6480   20.3030 C.3    52  ARG52       0.0334
     48  CG       -46.5090  -10.0470   20.3380 C.3    52  ARG52       0.0492
     49  CD       -45.6700   -8.9670   21.0330 C.3    52  ARG52       0.2205
     50  NE       -44.2560   -9.0060   20.6340 N.pl3  52  ARG52      -0.0865
     51  CZ       -43.2850   -9.6460   21.2860 C.cat  52  ARG52       0.5346
     52  NH1      -43.5540  -10.3040   22.4040 N.pl3  52  ARG52       0.1354
     53  NH2      -42.0400   -9.6140   20.8240 N.pl3  52  ARG52       0.1354
     54  N        -48.4070  -10.9760   14.6690 N.3    54  ALA54      -0.1245
     55  CA       -47.3080  -10.5010   13.8150 C.3    54  ALA54       0.1562
     56  C        -47.6890  -10.2420   12.3350 C.2    54  ALA54       0.2260
     57  O        -48.1100  -11.1640   11.5880 O.2    54  ALA54      -0.2867
     58  CB       -46.0970  -11.4360   13.8960 C.3    54  ALA54       0.0290
     59  N        -41.4920   -6.2160   10.6940 N.3    66  VAL66      -0.1245
     60  CA       -42.5910   -6.9530   11.3270 C.3    66  VAL66       0.1561
     61  C        -43.2230   -5.9940   12.2670 C.2    66  VAL66       0.2260
     62  O        -42.5290   -5.2880   13.0330 O.2    66  VAL66      -0.2867
     63  CB       -42.1100   -8.2330   12.0740 C.3    66  VAL66       0.0252
     64  CG1      -43.2480   -8.8540   12.8400 C.3    66  VAL66       0.0019
     65  CG2      -41.4730   -9.2210   11.0880 C.3    66  VAL66       0.0019
     66  N        -45.7800   -5.8040   15.3640 N.3    68  LYS68      -0.1245
     67  CA       -46.4120   -6.6230   16.3580 C.3    68  LYS68       0.1561
     68  C        -47.3890   -5.8700   17.2350 C.2    68  LYS68       0.2260
     69  O        -47.0360   -4.8600   17.8480 O.2    68  LYS68      -0.2867
     70  CB       -45.3580   -7.2950   17.2250 C.3    68  LYS68       0.0271
     71  CG       -44.6480   -8.4130   16.5130 C.3    68  LYS68       0.0035
     72  CD       -43.4080   -8.7910   17.2860 C.3    68  LYS68       0.0206
     73  CE       -42.3060   -9.2010   16.3410 C.3    68  LYS68       0.1093
     74  NZ       -41.4100  -10.1960   16.9760 N.3    68  LYS68      -0.1314
     75  N        -31.5970   -7.5540   17.1530 N.3   109  LEU109     -0.1245
     76  CA       -32.5350   -6.7190   16.3520 C.3   109  LEU109      0.1561
     77  C        -32.9960   -5.4390   17.0500 C.2   109  LEU109      0.2260
     78  O        -33.4910   -5.4850   18.1560 O.2   109  LEU109     -0.2867
     79  CB       -33.7920   -7.5190   15.9460 C.3   109  LEU109      0.0270
     80  CG       -33.5760   -8.7800   15.0620 C.3   109  LEU109      0.0019
     81  CD1      -34.9330   -9.3890   14.6280 C.3   109  LEU109      0.0001
     82  CD2      -32.6310   -8.5080   13.8760 C.3   109  LEU109      0.0001
     83  N        -39.7220   -4.3230   14.2120 N.3   147  GLU147     -0.1231
     84  CA       -38.3780   -4.8490   14.1250 C.3   147  GLU147      0.1684
     85  C        -38.1260   -5.4290   12.7360 C.2   147  GLU147      0.2434
     86  O        -39.0610   -5.7730   12.0280 O.2   147  GLU147     -0.2733
     87  CB       -38.1430   -5.8980   15.2090 C.3   147  GLU147      0.0402
     88  CG       -39.0150   -7.0930   15.1340 C.3   147  GLU147      0.1161
     89  CD       -38.7170   -8.0970   16.2500 C.2   147  GLU147      0.3649
     90  OE1      -38.1190   -7.7490   17.2820 O.co2 147  GLU147     -0.2457
     91  OE2      -39.0770   -9.2750   16.1100 O.co2 147  GLU147     -0.2457
     92  N        -36.8580   -5.5130   12.3310 N.am  148  PRO148     -0.2718
     93  CA       -36.5810   -6.0020   11.0220 C.3   148  PRO148      0.1535
     94  C        -36.9870   -7.4750   10.9140 C.2   148  PRO148      0.2599
     95  O        -36.9740   -8.2280   11.9220 O.2   148  PRO148     -0.2715
     96  CB       -35.0690   -5.8210   10.8940 C.3   148  PRO148      0.0310
     97  CG       -34.7550   -4.7360   11.8530 C.3   148  PRO148      0.0237
     98  CD       -35.6600   -5.0120   13.0050 C.3   148  PRO148      0.0939
     99  N        -37.4330   -7.8430    9.7080 N.am  149  TYR149     -0.1960
    100  CA       -37.8300   -9.2130    9.4040 C.3   149  TYR149      0.1771
    101  C        -36.5850  -10.0330    9.4940 C.2   149  TYR149      0.2619
    102  O        -35.5160   -9.6400    8.9920 O.2   149  TYR149     -0.2715
    103  CB       -38.4490   -9.3580    7.9960 C.3   149  TYR149      0.0574
    104  CG       -38.9390  -10.7820    7.6930 C.ar  149  TYR149     -0.0198
    105  CD1      -40.1570  -11.2410    8.1920 C.ar  149  TYR149     -0.0009
    106  CD2      -38.1770  -11.6620    6.9280 C.ar  149  TYR149     -0.0009
    107  CE1      -40.6110  -12.5510    7.9570 C.ar  149  TYR149      0.0417
    108  CE2      -38.6270  -12.9740    6.6660 C.ar  149  TYR149      0.0417
    109  CZ       -39.8490  -13.4120    7.1860 C.ar  149  TYR149      0.1957
    110  OH       -40.3200  -14.7090    6.9560 O.3   149  TYR149     -0.2866
    111  N        -36.7080  -11.1550   10.1780 N.am  150  LEU150     -0.1977
    112  CA       -35.5960  -12.0780   10.2740 C.3   150  LEU150      0.1596
    113  C        -35.9490  -13.4760    9.7090 C.2   150  LEU150      0.2287
    114  O        -36.8630  -14.1430   10.1750 O.2   150  LEU150     -0.2864
    115  CB       -35.1150  -12.1260   11.7130 C.3   150  LEU150      0.0297
    116  CG       -34.0540  -13.1460   12.0720 C.3   150  LEU150      0.0022
    117  CD1      -32.7510  -12.7670   11.3930 C.3   150  LEU150      0.0001
    118  CD2      -33.8890  -13.1770   13.5830 C.3   150  LEU150      0.0001
    119  N        -32.6680  -12.2410   19.0580 N.3   205  THR205     -0.1203
    120  CA       -33.9530  -11.6870   19.3370 C.3   205  THR205      0.1994
    121  C        -34.4980  -12.1750   20.6710 C.2   205  THR205      0.2617
    122  O        -34.1290  -13.2420   21.1710 O.2   205  THR205     -0.2717
    123  CB       -34.9510  -12.0400   18.1900 C.3   205  THR205      0.1784
    124  OG1      -36.1910  -11.3130   18.3680 O.3   205  THR205     -0.2211
    125  CG2      -35.2600  -13.5410   18.1640 C.3   205  THR205      0.0376
    126  N        -35.4000  -11.3960   21.2290 N.am  206  ASP206     -0.1973
    127  CA       -36.0820  -11.7370   22.4470 C.3   206  ASP206      0.1709
    128  C        -35.2320  -12.2130   23.6310 C.2   206  ASP206      0.2293
    129  O        -35.6180  -13.1480   24.2990 O.2   206  ASP206     -0.2864
    130  CB       -37.1550  -12.7580   22.1540 C.3   206  ASP206      0.1436
    131  CG       -38.4620  -12.1410   22.0480 C.2   206  ASP206      0.3671
    132  OD1      -38.9910  -11.6920   23.1050 O.co2 206  ASP206     -0.2456
    133  OD2      -38.9250  -12.0660   20.9030 O.co2 206  ASP206     -0.2456
@<TRIPOS>BOND
     1   108   106   ar
     2   108   109   ar
     3   106   104   ar
     4   110   109    1
     5   109   107   ar
     6   104   103    1
     7   104   105   ar
     8   107   105   ar
     9   103   100    1
    10     5     6    1
    11     5     2    1
    12   102   101    2
    13     6     7   ar
    14     6     8   ar
    15     2     1    1
    16     2     3    1
    17     7     9   ar
    18   100   101    1
    19   100    99    1
    20   101   111   am
    21     8    10   ar
    22    99    94   am
    23   113   114    2
    24   113   112    1
    25     9    11   ar
    26   111   112    1
    27    10    11   ar
    28     4     3    2
    29   112   115    1
    30     3    12   am
    31    59    60    1
    32    96    93    1
    33    96    97    1
    34    94    93    1
    35    94    95    2
    36    93    92    1
    37    65    63    1
    38    60    63    1
    39    60    61    1
    40   117   116    1
    41    57    56    2
    42   115   116    1
    43    12    13    1
    44    97    98    1
    45    86    85    2
    46   116   118    1
    47    63    64    1
    48    61    62    2
    49    92    85   am
    50    92    98    1
    51    56    55    1
    52    85    84    1
    53    13    16    1
    54    13    14    1
    55    55    58    1
    56    55    54    1
    57    82    80    1
    58    84    83    1
    59    84    87    1
    60    14    15    2
    61    14    17   am
    62    81    80    1
    63    80    79    1
    64    88    87    1
    65    88    89    1
    66    17    18    1
    67    66    67    1
    68    79    76    1
    69    91    89   ar
    70    89    90   ar
    71    73    74    1
    72    73    72    1
    73    76    77    1
    74    76    75    1
    75    67    70    1
    76    67    68    1
    77    71    70    1
    78    71    72    1
    79    22    21    1
    80    22    23    1
    81    18    21    1
    82    18    19    1
    83    23    24    1
    84    77    78    2
    85    20    19    2
    86    68    69    2
    87    19    26   am
    88   125   123    1
    89   123   124    1
    90   123   120    1
    91    24    25    1
    92    26    27    1
    93    46    45    2
    94    45    44    1
    95   119   120    1
    96   120   121    1
    97    27    28    1
    98    47    44    1
    99    47    48    1
   100    44    43    1
   101    48    49    1
   102    50    49    1
   103    50    51    2
   104   121   122    2
   105   121   126   am
   106    29    28    2
   107    53    51    1
   108    28    30   am
   109   133   131   ar
   110   126   127    1
   111    51    52    1
   112    43    36   am
   113   131   130    1
   114   131   132   ar
   115    30    31    1
   116   130   127    1
   117   127   128    1
   118    36    37    2
   119    36    35    1
   120    34    32   am
   121    34    35    1
   122    31    32    1
   123    32    33    2
   124   128   129    2
   125    35    38    1
   126    39    38    1
   127    39    40    1
   128    41    40   ar
   129    40    42   ar
