@<TRIPOS>MOLECULE
tmp/4nl4A00.pdb
 109 103 0 0 0
SMALL
GASTEIGER

@<TRIPOS>ATOM
      1  N         27.0850    7.4420   -9.2320 N.3   193  ARG193     -0.1245
      2  CA        25.6500    7.1830   -9.1780 C.3   193  ARG193      0.1563
      3  C         25.1500    6.9590   -7.7470 C.2   193  ARG193      0.2260
      4  O         24.1990    7.6100   -7.3080 O.2   193  ARG193     -0.2867
      5  CB        25.3070    5.9870  -10.0750 C.3   193  ARG193      0.0307
      6  CG        26.4840    5.0490  -10.3290 C.3   193  ARG193      0.0489
      7  CD        26.4790    4.5520  -11.7650 C.3   193  ARG193      0.2205
      8  NE        27.8020    4.1220  -12.2180 N.pl3 193  ARG193     -0.0865
      9  CZ        28.1150    3.8650  -13.4870 C.cat 193  ARG193      0.5346
     10  NH1       27.2030    3.9970  -14.4430 N.pl3 193  ARG193      0.1354
     11  NH2       29.3430    3.4750  -13.8040 N.pl3 193  ARG193      0.1354
     12  N         23.4270    2.9200   -0.6560 N.3   198  GLN198     -0.1245
     13  CA        24.0150    2.1030   -1.7200 C.3   198  GLN198      0.1566
     14  C         25.5330    1.9910   -1.5860 C.2   198  GLN198      0.2260
     15  O         26.0930    0.9010   -1.7150 O.2   198  GLN198     -0.2867
     16  CB        23.6610    2.6740   -3.0960 C.3   198  GLN198      0.0367
     17  CG        22.2230    2.4470   -3.5330 C.3   198  GLN198      0.0905
     18  CD        21.9090    3.0830   -4.8780 C.2   198  GLN198      0.2608
     19  OE1       22.4370    4.1450   -5.2170 O.2   198  GLN198     -0.2717
     20  NE2       21.0390    2.4380   -5.6490 N.am  198  GLN198     -0.0878
     21  N         13.3530   -2.3900   -1.0080 N.3   220  ILE220     -0.1231
     22  CA        12.1160   -2.3320   -1.7850 C.3   220  ILE220      0.1692
     23  C         12.4060   -2.1760   -3.2840 C.2   220  ILE220      0.2593
     24  O         13.5410   -1.9040   -3.6780 O.2   220  ILE220     -0.2718
     25  CB        11.1800   -1.2030   -1.2820 C.3   220  ILE220      0.0266
     26  CG1       11.8440    0.1730   -1.4160 C.3   220  ILE220      0.0019
     27  CG2       10.7830   -1.4530    0.1660 C.3   220  ILE220      0.0020
     28  CD1       10.8780    1.3380   -1.3260 C.3   220  ILE220      0.0001
     29  N         11.3820   -2.3580   -4.1140 N.am  221  THR221     -0.1939
     30  CA        11.5400   -2.2410   -5.5620 C.3   221  THR221      0.2028
     31  C         11.8340   -0.7920   -5.9450 C.2   221  THR221      0.2643
     32  O         11.0950    0.1230   -5.5680 O.2   221  THR221     -0.2714
     33  CB        10.2940   -2.7520   -6.3130 C.3   221  THR221      0.1808
     34  OG1        9.8020   -3.9370   -5.6730 O.3   221  THR221     -0.2208
     35  CG2       10.6330   -3.0740   -7.7630 C.3   221  THR221      0.0379
     36  N         12.9250   -0.5920   -6.6790 N.am  222  GLY222     -0.1939
     37  CA        13.3410    0.7410   -7.1130 C.3   222  GLY222      0.2014
     38  C         14.4610    1.3430   -6.2820 C.2   222  GLY222      0.2640
     39  O         15.0260    2.3750   -6.6530 O.2   222  GLY222     -0.2714
     40  N         14.7890    0.6950   -5.1650 N.am  223  SER223     -0.1935
     41  CA        15.8450    1.1700   -4.2630 C.3   223  SER223      0.2055
     42  C         17.2500    1.0670   -4.8640 C.2   223  SER223      0.2644
     43  O         18.1880    1.6980   -4.3750 O.2   223  SER223     -0.2714
     44  CB        15.7860    0.4300   -2.9230 C.3   223  SER223      0.2130
     45  OG        15.8450   -0.9700   -3.1100 O.3   223  SER223     -0.2179
     46  N         17.3880    0.2680   -5.9170 N.am  224  GLY224     -0.1939
     47  CA        18.6440    0.1710   -6.6500 C.3   224  GLY224      0.2014
     48  C         19.5270   -0.9780   -6.2150 C.2   224  GLY224      0.2639
     49  O         20.7480   -0.8210   -6.1230 O.2   224  GLY224     -0.2714
     50  N         18.9150   -2.1310   -5.9470 N.am  225  LYS225     -0.1963
     51  CA        19.6590   -3.3420   -5.6170 C.3   225  LYS225      0.1728
     52  C         20.6170   -3.7170   -6.7510 C.2   225  LYS225      0.2617
     53  O         21.8000   -3.9940   -6.5100 O.2   225  LYS225     -0.2715
     54  CB        18.7150   -4.5110   -5.3290 C.3   225  LYS225      0.0311
     55  CG        18.0060   -4.4620   -3.9870 C.3   225  LYS225      0.0038
     56  CD        17.2510   -5.7560   -3.7070 C.3   225  LYS225      0.0206
     57  CE        16.1090   -5.9950   -4.6910 C.3   225  LYS225      0.1093
     58  NZ        14.9810   -5.0250   -4.5500 N.3   225  LYS225     -0.1314
     59  N         20.1010   -3.7060   -7.9810 N.am  226  THR226     -0.1937
     60  CA        20.8860   -4.0610   -9.1670 C.3   226  THR226      0.2028
     61  C         22.1190   -3.1750   -9.3080 C.2   226  THR226      0.2642
     62  O         23.1790   -3.6410   -9.7270 O.2   226  THR226     -0.2714
     63  CB        20.0350   -3.9890  -10.4510 C.3   226  THR226      0.1808
     64  OG1       18.8390   -4.7550  -10.2670 O.3   226  THR226     -0.2208
     65  CG2       20.7970   -4.5500  -11.6500 C.3   226  THR226      0.0379
     66  N         21.9690   -1.9060   -8.9320 N.am  227  GLU227     -0.1976
     67  CA        23.0410   -0.9230   -9.0080 C.3   227  GLU227      0.1602
     68  C         24.1900   -1.2890   -8.0660 C.2   227  GLU227      0.2287
     69  O         25.3620   -1.0640   -8.3860 O.2   227  GLU227     -0.2864
     70  CB        22.4910    0.4710   -8.6990 C.3   227  GLU227      0.0415
     71  CG        23.1640    1.6120   -9.4550 C.3   227  GLU227      0.1163
     72  CD        23.2050    1.4140  -10.9720 C.2   227  GLU227      0.3649
     73  OE1       22.1960    0.9670  -11.5710 O.co2 227  GLU227     -0.2457
     74  OE2       24.2580    1.7260  -11.5730 O.co2 227  GLU227     -0.2457
     75  N         21.5320   -4.2470  -19.9700 N.3   259  ARG259     -0.1245
     76  CA        22.0110   -3.4620  -18.8400 C.3   259  ARG259      0.1563
     77  C         23.4080   -3.9120  -18.3890 C.2   259  ARG259      0.2260
     78  O         24.2960   -3.0800  -18.1840 O.2   259  ARG259     -0.2867
     79  CB        21.0100   -3.5440  -17.6840 C.3   259  ARG259      0.0307
     80  CG        21.2440   -2.5300  -16.5830 C.3   259  ARG259      0.0489
     81  CD        20.0900   -2.5290  -15.6030 C.3   259  ARG259      0.2205
     82  NE        20.3580   -1.6560  -14.4660 N.pl3 259  ARG259     -0.0865
     83  CZ        19.6090   -1.6080  -13.3700 C.cat 259  ARG259      0.5346
     84  NH1       18.5400   -2.3890  -13.2560 N.pl3 259  ARG259      0.1354
     85  NH2       19.9320   -0.7850  -12.3830 N.pl3 259  ARG259      0.1354
     86  N         11.2950   -9.5730  -12.9450 N.3   522  LYS522     -0.1231
     87  CA        11.9870   -8.3410  -12.5680 C.3   522  LYS522      0.1693
     88  C         12.0900   -7.3990  -13.7650 C.2   522  LYS522      0.2592
     89  O         12.3930   -7.8300  -14.8800 O.2   522  LYS522     -0.2718
     90  CB        13.3810   -8.6530  -12.0020 C.3   522  LYS522      0.0285
     91  CG        14.1870   -7.4390  -11.5440 C.3   522  LYS522      0.0035
     92  CD        13.7730   -6.9390  -10.1630 C.3   522  LYS522      0.0206
     93  CE        14.5580   -7.6140   -9.0450 C.3   522  LYS522      0.1093
     94  NZ        15.9760   -7.1560   -8.9770 N.3   522  LYS522     -0.1314
     95  N         11.8120   -6.1180  -13.5270 N.am  523  GLY523     -0.1957
     96  CA        11.8890   -5.0940  -14.5690 C.3   523  GLY523      0.1869
     97  C         10.7070   -5.0990  -15.5230 C.2   523  GLY523      0.2309
     98  O         10.4080   -4.0840  -16.1570 O.2   523  GLY523     -0.2863
     99  N          3.5700    2.6050  -11.8710 N.3   565  ARG565     -0.1245
    100  CA         4.5890    3.3420  -11.1130 C.3   565  ARG565      0.1563
    101  C          4.8120    4.7820  -11.5730 C.2   565  ARG565      0.2260
    102  O          4.9510    5.0480  -12.7700 O.2   565  ARG565     -0.2867
    103  CB         5.9200    2.5800  -11.1210 C.3   565  ARG565      0.0307
    104  CG         6.1210    1.6480   -9.9350 C.3   565  ARG565      0.0489
    105  CD         6.6550    2.3900   -8.7170 C.3   565  ARG565      0.2205
    106  NE         8.0440    2.8140   -8.8920 N.pl3 565  ARG565     -0.0865
    107  CZ         9.1020    2.1560   -8.4220 C.cat 565  ARG565      0.5346
    108  NH1        8.9480    1.0330   -7.7330 N.pl3 565  ARG565      0.1354
    109  NH2       10.3230    2.6260   -8.6390 N.pl3 565  ARG565      0.1354
@<TRIPOS>BOND
     1    75    76    1
     2    76    77    1
     3    76    79    1
     4    77    78    2
     5    79    80    1
     6    80    81    1
     7    98    97    2
     8    81    82    1
     9    97    96    1
    10    89    88    2
    11    96    95    1
    12    82    83    2
    13    10     9    1
    14    11     9    1
    15    88    95   am
    16    88    87    1
    17     9     8    2
    18    83    84    1
    19    83    85    1
    20    86    87    1
    21   102   101    2
    22    87    90    1
    23     8     7    1
    24    90    91    1
    25    99   100    1
    26     7     6    1
    27    65    63    1
    28   101   100    1
    29    74    72   ar
    30    73    72   ar
    31    91    92    1
    32   103   100    1
    33   103   104    1
    34    72    71    1
    35    63    64    1
    36    63    60    1
    37     6     5    1
    38    92    93    1
    39     5     2    1
    40   104   105    1
    41    62    61    2
    42    71    70    1
    43    61    60    1
    44    61    66   am
    45     1     2    1
    46     2     3    1
    47    60    59    1
    48    93    94    1
    49    67    66    1
    50    67    70    1
    51    67    68    1
    52   106   105    1
    53   106   107    2
    54   109   107    1
    55   107   108    1
    56    69    68    2
    57    59    52   am
    58    35    33    1
    59     3     4    2
    60    37    36    1
    61    37    38    1
    62    52    53    2
    63    52    51    1
    64    36    31   am
    65    39    38    2
    66    47    48    1
    67    47    46    1
    68    33    34    1
    69    33    30    1
    70    38    40   am
    71    48    49    2
    72    48    50   am
    73    50    51    1
    74    31    32    2
    75    31    30    1
    76    46    42   am
    77    20    18   am
    78    51    54    1
    79    30    29    1
    80    54    55    1
    81    19    18    2
    82    40    41    1
    83    18    17    1
    84    42    43    2
    85    42    41    1
    86    57    58    1
    87    57    56    1
    88    41    44    1
    89    29    23   am
    90    55    56    1
    91    24    23    2
    92    17    16    1
    93    23    22    1
    94    45    44    1
    95    16    13    1
    96    22    25    1
    97    22    21    1
    98    13    14    1
    99    13    12    1
   100    15    14    2
   101    26    28    1
   102    26    25    1
   103    25    27    1
