@<TRIPOS>MOLECULE
tmp/4nl5A00.pdb
 230 220 0 0 0
SMALL
GASTEIGER

@<TRIPOS>ATOM
      1  N        -13.4160   -2.7600   15.4390 N.3     4  LYS4       -0.1245
      2  CA       -12.4160   -1.9160   16.0560 C.3     4  LYS4        0.1561
      3  C        -11.1390   -2.1780   15.3080 C.2     4  LYS4        0.2260
      4  O        -10.6130   -3.2860   15.3560 O.2     4  LYS4       -0.2867
      5  CB       -12.2410   -2.2410   17.5350 C.3     4  LYS4        0.0271
      6  CG       -13.5550   -2.3060   18.3210 C.3     4  LYS4        0.0035
      7  CD       -14.1560   -0.9330   18.5350 C.3     4  LYS4        0.0206
      8  CE       -15.4020   -1.0380   19.4390 C.3     4  LYS4        0.1093
      9  NZ       -16.0670    0.2710   19.6180 N.3     4  LYS4       -0.1314
     10  N         -7.2550   -1.3710   14.9350 N.3     6  ASN6       -0.1240
     11  CA        -6.0410   -0.7550   15.4350 C.3     6  ASN6        0.1653
     12  C         -5.1350   -0.4890   14.2520 C.2     6  ASN6        0.2266
     13  O         -4.6620   -1.4240   13.5930 O.2     6  ASN6       -0.2867
     14  CB        -5.3460   -1.6320   16.4730 C.3     6  ASN6        0.1155
     15  CG        -4.5100   -0.8230   17.4470 C.2     6  ASN6        0.2627
     16  OD1       -4.8970    0.2770   17.8330 O.2     6  ASN6       -0.2716
     17  ND2       -3.3730   -1.3740   17.8650 N.am    6  ASN6       -0.0877
     18  N         -1.7360    0.5410   13.0080 N.3     8  ILE8       -0.1245
     19  CA        -0.3870    0.5170   13.5820 C.3     8  ILE8        0.1561
     20  C          0.6260    1.1520   12.6500 C.2     8  ILE8        0.2260
     21  O          0.6790    0.8220   11.4720 O.2     8  ILE8       -0.2867
     22  CB         0.0510   -0.9170   13.8700 C.3     8  ILE8        0.0252
     23  CG1       -0.8300   -1.5490   14.9350 C.3     8  ILE8        0.0019
     24  CG2        1.5110   -0.9610   14.3190 C.3     8  ILE8        0.0019
     25  CD1       -0.4870   -2.9950   15.1660 C.3     8  ILE8        0.0001
     26  N          6.6810   -7.5400   12.4730 N.3    18  LEU18      -0.1245
     27  CA         5.3560   -7.2970   13.0440 C.3    18  LEU18       0.1561
     28  C          4.4160   -8.4540   12.7130 C.2    18  LEU18       0.2260
     29  O          3.7240   -8.9870   13.5790 O.2    18  LEU18      -0.2867
     30  CB         4.7700   -5.9800   12.5320 C.3    18  LEU18       0.0270
     31  CG         3.4100   -5.6400   13.1400 C.3    18  LEU18       0.0019
     32  CD1        3.5910   -4.8640   14.4360 C.3    18  LEU18       0.0001
     33  CD2        2.5610   -4.8650   12.1650 C.3    18  LEU18       0.0001
     34  N          5.1740  -11.6140   14.7390 N.3    21  ARG21      -0.1231
     35  CA         4.7000  -11.5340   16.1110 C.3    21  ARG21       0.1694
     36  C          3.1810  -11.6940   16.2040 C.2    21  ARG21       0.2592
     37  O          2.6870  -12.3730   17.0970 O.2    21  ARG21      -0.2718
     38  CB         5.1460  -10.2150   16.7320 C.3    21  ARG21       0.0321
     39  CG         6.6630  -10.1340   16.8930 C.3    21  ARG21       0.0489
     40  CD         7.1060   -8.8070   17.4780 C.3    21  ARG21       0.2205
     41  NE         8.5590   -8.6910   17.3940 N.pl3  21  ARG21      -0.0865
     42  CZ         9.2800   -7.7850   18.0400 C.cat  21  ARG21       0.5346
     43  NH1        8.6860   -6.9050   18.8380 N.pl3  21  ARG21       0.1354
     44  NH2       10.6000   -7.7730   17.8930 N.pl3  21  ARG21       0.1354
     45  N          2.4400  -11.0680   15.2970 N.am   22  PHE22      -0.1976
     46  CA         0.9910  -11.2950   15.2390 C.3    22  PHE22       0.1639
     47  C          0.6560  -12.7700   15.0120 C.2    22  PHE22       0.2290
     48  O         -0.2500  -13.3100   15.6400 O.2    22  PHE22      -0.2864
     49  CB         0.3410  -10.4420   14.1440 C.3    22  PHE22       0.0560
     50  CG        -0.1480   -9.1090   14.6320 C.ar   22  PHE22      -0.0200
     51  CD1       -1.4340   -8.9640   15.1320 C.ar   22  PHE22      -0.0042
     52  CD2        0.6910   -8.0060   14.6170 C.ar   22  PHE22      -0.0042
     53  CE1       -1.8800   -7.7330   15.5950 C.ar   22  PHE22      -0.0003
     54  CE2        0.2570   -6.7750   15.0740 C.ar   22  PHE22      -0.0003
     55  CZ        -1.0310   -6.6390   15.5650 C.ar   22  PHE22      -0.0000
     56  N          1.0340  -14.7580   18.2000 N.3    25  ARG25      -0.1231
     57  CA         0.0620  -14.4970   19.2620 C.3    25  ARG25       0.1694
     58  C         -1.3630  -14.3970   18.7550 C.2    25  ARG25       0.2591
     59  O         -2.2220  -13.8950   19.4520 O.2    25  ARG25      -0.2718
     60  CB         0.4250  -13.2120   20.0160 C.3    25  ARG25       0.0321
     61  CG         1.9200  -12.9650   20.1100 C.3    25  ARG25       0.0489
     62  CD         2.2160  -11.7340   20.9450 C.3    25  ARG25       0.2205
     63  NE         3.5080  -11.1310   20.6420 N.pl3  25  ARG25      -0.0865
     64  CZ         3.8810   -9.9310   21.0750 C.cat  25  ARG25       0.5346
     65  NH1        3.0630   -9.2190   21.8440 N.pl3  25  ARG25       0.1354
     66  NH2        5.0720   -9.4490   20.7480 N.pl3  25  ARG25       0.1354
     67  N         -1.5890  -14.8690   17.5340 N.am   26  ALA26      -0.1980
     68  CA        -2.9040  -14.8110   16.8940 C.3    26  ALA26       0.1597
     69  C         -4.0030  -15.4260   17.7500 C.2    26  ALA26       0.2287
     70  O         -5.1600  -14.9910   17.7090 O.2    26  ALA26      -0.2864
     71  CB        -2.8670  -15.4990   15.5400 C.3    26  ALA26       0.0319
     72  N         -4.2530  -15.6710   21.0770 N.3    28  ALA28      -0.1231
     73  CA        -4.3050  -15.2220   22.4600 C.3    28  ALA28       0.1694
     74  C         -5.6680  -14.6090   22.7580 C.2    28  ALA28       0.2591
     75  O         -6.1360  -14.6130   23.8970 O.2    28  ALA28      -0.2718
     76  CB        -3.1940  -14.2260   22.7350 C.3    28  ALA28       0.0304
     77  N         -6.2910  -14.0720   21.7140 N.am   29  VAL29      -0.1980
     78  CA        -7.5650  -13.3880   21.8350 C.3    29  VAL29       0.1595
     79  C         -8.7010  -14.2930   21.3890 C.2    29  VAL29       0.2287
     80  O         -9.8690  -13.9520   21.5370 O.2    29  VAL29      -0.2864
     81  CB        -7.5660  -12.0980   20.9660 C.3    29  VAL29       0.0276
     82  CG1       -8.7800  -11.2130   21.2560 C.3    29  VAL29       0.0022
     83  CG2       -6.2710  -11.3270   21.1730 C.3    29  VAL29       0.0022
     84  N        -15.7900  -12.0550   21.0000 N.3    35  PHE35      -0.1241
     85  CA       -14.8010  -11.8540   19.9360 C.3    35  PHE35       0.1605
     86  C        -15.2040  -12.6540   18.7060 C.2    35  PHE35       0.2264
     87  O        -15.4690  -13.8470   18.8040 O.2    35  PHE35      -0.2867
     88  CB       -13.4010  -12.2690   20.3990 C.3    35  PHE35       0.0534
     89  CG       -12.3300  -12.0480   19.3660 C.ar   35  PHE35      -0.0203
     90  CD1      -12.0690  -10.7780   18.8780 C.ar   35  PHE35      -0.0042
     91  CD2      -11.5930  -13.1140   18.8780 C.ar   35  PHE35      -0.0042
     92  CE1      -11.0710  -10.5670   17.9240 C.ar   35  PHE35      -0.0003
     93  CE2      -10.5980  -12.9100   17.9280 C.ar   35  PHE35      -0.0003
     94  CZ       -10.3440  -11.6390   17.4570 C.ar   35  PHE35      -0.0000
     95  N        -10.3640  -11.6440   13.7360 N.3    38  PHE38      -0.1241
     96  CA        -9.6170  -10.5000   13.2630 C.3    38  PHE38       0.1605
     97  C         -8.8210  -10.8250   12.0190 C.2    38  PHE38       0.2264
     98  O         -8.5690  -11.9820   11.7050 O.2    38  PHE38      -0.2867
     99  CB        -8.6850   -9.9660   14.3600 C.3    38  PHE38       0.0534
    100  CG        -7.3210  -10.6380   14.4150 C.ar   38  PHE38      -0.0203
    101  CD1       -6.2010  -10.0090   13.8920 C.ar   38  PHE38      -0.0042
    102  CD2       -7.1590  -11.8660   15.0390 C.ar   38  PHE38      -0.0042
    103  CE1       -4.9560  -10.6100   13.9580 C.ar   38  PHE38      -0.0003
    104  CE2       -5.9210  -12.4720   15.1050 C.ar   38  PHE38      -0.0003
    105  CZ        -4.8140  -11.8400   14.5640 C.ar   38  PHE38      -0.0000
    106  N         -5.2980   -3.6610   11.8770 N.3    52  VAL52      -0.1245
    107  CA        -5.6870   -4.8430   12.6130 C.3    52  VAL52       0.1561
    108  C         -7.1950   -4.7740   12.8060 C.2    52  VAL52       0.2260
    109  O         -7.6790   -4.0420   13.6560 O.2    52  VAL52      -0.2867
    110  CB        -4.9500   -4.9270   13.9570 C.3    52  VAL52       0.0252
    111  CG1       -5.3670   -6.1710   14.7180 C.3    52  VAL52       0.0019
    112  CG2       -3.4280   -4.9230   13.7060 C.3    52  VAL52       0.0019
    113  N        -10.5660   -5.9360   13.9700 N.3    54  THR54      -0.1218
    114  CA       -11.1350   -6.8740   14.9300 C.3    54  THR54       0.1862
    115  C        -12.6510   -6.7250   14.9810 C.2    54  THR54       0.2287
    116  O        -13.1880   -5.6250   14.8580 O.2    54  THR54      -0.2866
    117  CB       -10.5410   -6.6850   16.3510 C.3    54  THR54       0.1770
    118  OG1      -11.0390   -5.4820   16.9250 O.3    54  THR54      -0.2211
    119  CG2       -9.0170   -6.5980   16.2820 C.3    54  THR54       0.0375
    120  N        -16.3760   -7.7140   16.8790 N.3    56  TRP56      -0.1241
    121  CA       -16.9580   -8.0030   18.1900 C.3    56  TRP56       0.1605
    122  C        -18.4720   -7.9660   18.1270 C.2    56  TRP56       0.2264
    123  O        -19.0300   -7.1950   17.3510 O.2    56  TRP56      -0.2867
    124  CB       -16.4680   -6.9970   19.2380 C.3    56  TRP56       0.0550
    125  CG       -14.9710   -6.9450   19.3340 C.ar   56  TRP56       0.0003
    126  CD1      -14.1200   -6.2320   18.5340 C.ar   56  TRP56       0.0946
    127  CD2      -14.1530   -7.6420   20.2770 C.ar   56  TRP56       0.0152
    128  NE1      -12.8170   -6.4440   18.9270 N.ar   56  TRP56      -0.2442
    129  CE2      -12.8110   -7.3010   19.9960 C.ar   56  TRP56       0.0810
    130  CE3      -14.4240   -8.5180   21.3350 C.ar   56  TRP56       0.0012
    131  CZ2      -11.7460   -7.8080   20.7300 C.ar   56  TRP56       0.0191
    132  CZ3      -13.3610   -9.0190   22.0660 C.ar   56  TRP56       0.0001
    133  CH2      -12.0420   -8.6620   21.7580 C.ar   56  TRP56       0.0015
    134  N        -16.0270   -5.6480   23.4710 N.3    62  PHE62      -0.1241
    135  CA       -14.7070   -5.0970   23.2190 C.3    62  PHE62       0.1605
    136  C        -14.1800   -4.3620   24.4520 C.2    62  PHE62       0.2264
    137  O        -13.0200   -4.5270   24.8320 O.2    62  PHE62      -0.2867
    138  CB       -14.7190   -4.1380   22.0360 C.3    62  PHE62       0.0534
    139  CG       -13.4650   -3.3260   21.9320 C.ar   62  PHE62      -0.0203
    140  CD1      -12.3030   -3.8890   21.4260 C.ar   62  PHE62      -0.0042
    141  CD2      -13.4280   -2.0180   22.3880 C.ar   62  PHE62      -0.0042
    142  CE1      -11.1340   -3.1570   21.3690 C.ar   62  PHE62      -0.0003
    143  CE2      -12.2630   -1.2820   22.3180 C.ar   62  PHE62      -0.0003
    144  CZ       -11.1150   -1.8560   21.8120 C.ar   62  PHE62      -0.0000
    145  N        -12.8630   -6.5940   27.1040 N.3    65  TRP65      -0.1227
    146  CA       -11.5850   -7.1720   26.7100 C.3    65  TRP65       0.1737
    147  C        -10.4540   -6.1680   26.8960 C.2    65  TRP65       0.2595
    148  O         -9.3700   -6.5210   27.3600 O.2    65  TRP65      -0.2718
    149  CB       -11.6540   -7.6550   25.2500 C.3    65  TRP65       0.0564
    150  CG       -10.3470   -8.2110   24.7250 C.ar   65  TRP65       0.0003
    151  CD1       -9.7980   -9.4380   24.9970 C.ar   65  TRP65       0.0946
    152  CD2       -9.4390   -7.5540   23.8360 C.ar   65  TRP65       0.0152
    153  NE1       -8.6010   -9.5800   24.3260 N.ar   65  TRP65      -0.2442
    154  CE2       -8.3560   -8.4360   23.6140 C.ar   65  TRP65       0.0810
    155  CE3       -9.4370   -6.3090   23.2000 C.ar   65  TRP65       0.0012
    156  CZ2       -7.2860   -8.1080   22.7810 C.ar   65  TRP65       0.0191
    157  CZ3       -8.3640   -5.9850   22.3830 C.ar   65  TRP65       0.0001
    158  CH2       -7.3060   -6.8810   22.1840 C.ar   65  TRP65       0.0015
    159  N        -10.6990   -4.9170   26.5160 N.am   66  ALA66      -0.1980
    160  CA        -9.6530   -3.8910   26.5880 C.3    66  ALA66       0.1597
    161  C         -9.2360   -3.6000   28.0150 C.2    66  ALA66       0.2287
    162  O         -8.0630   -3.3010   28.2720 O.2    66  ALA66      -0.2864
    163  CB       -10.1170   -2.6000   25.9190 C.3    66  ALA66       0.0319
    164  N         -6.9360   -7.7090   27.3010 N.3    70  ALA70      -0.1245
    165  CA        -6.1070   -7.1950   26.2000 C.3    70  ALA70       0.1562
    166  C         -4.7110   -6.8530   26.6910 C.2    70  ALA70       0.2260
    167  O         -3.7180   -7.0880   25.9960 O.2    70  ALA70      -0.2867
    168  CB        -6.7460   -5.9760   25.5680 C.3    70  ALA70       0.0290
    169  N         -3.0030   -9.9790   27.1610 N.3    73  ALA73      -0.1231
    170  CA        -2.7020  -10.6030   25.8720 C.3    73  ALA73       0.1694
    171  C         -1.4610  -10.0220   25.1900 C.2    73  ALA73       0.2592
    172  O         -0.7750  -10.7210   24.4440 O.2    73  ALA73      -0.2718
    173  CB        -3.9080  -10.4860   24.9470 C.3    73  ALA73       0.0304
    174  N         -1.1740   -8.7510   25.4490 N.am   74  HIS74      -0.1976
    175  CA        -0.0190   -8.0760   24.8610 C.3    74  HIS74       0.1656
    176  C          1.2520   -8.1300   25.7240 C.2    74  HIS74       0.2291
    177  O          2.3300   -7.6820   25.2910 O.2    74  HIS74      -0.2864
    178  CB        -0.3580   -6.6170   24.5930 C.3    74  HIS74       0.0771
    179  CG        -1.2940   -6.4100   23.4440 C.ar   74  HIS74       0.0820
    180  ND1       -2.6570   -6.6090   23.5420 N.ar   74  HIS74      -0.2267
    181  CD2       -1.0630   -6.0090   22.1710 C.ar   74  HIS74       0.1154
    182  CE1       -3.2230   -6.3370   22.3790 C.ar   74  HIS74       0.1986
    183  NE2       -2.2770   -5.9690   21.5310 N.ar   74  HIS74      -0.2212
    184  N          8.6770   -9.8210   23.6510 N.3    78  ARG78      -0.1245
    185  CA         9.9210   -9.1560   23.2850 C.3    78  ARG78       0.1563
    186  C          9.9820   -7.7410   23.8530 C.2    78  ARG78       0.2260
    187  O          9.0510   -6.9550   23.6860 O.2    78  ARG78      -0.2867
    188  CB        10.0640   -9.1310   21.7670 C.3    78  ARG78       0.0307
    189  CG         9.9700  -10.5110   21.0990 C.3    78  ARG78       0.0489
    190  CD        11.1090  -11.4670   21.5290 C.3    78  ARG78       0.2205
    191  NE        12.4220  -10.9970   21.0940 N.pl3  78  ARG78      -0.0865
    192  CZ        12.9570  -11.2050   19.8880 C.cat  78  ARG78       0.5346
    193  NH1       12.3090  -11.8960   18.9570 N.pl3  78  ARG78       0.1354
    194  NH2       14.1350  -10.6660   19.5930 N.pl3  78  ARG78       0.1354
    195  N          8.9530   -3.6670   21.3610 N.3    81  PRO81      -0.2102
    196  CA         7.8130   -3.6740   20.4390 C.3    81  PRO81       0.1504
    197  C          8.1480   -2.9300   19.1560 C.2    81  PRO81       0.2576
    198  O          8.9220   -1.9720   19.1900 O.2    81  PRO81      -0.2718
    199  CB         6.7020   -2.9680   21.2280 C.3    81  PRO81       0.0282
    200  CG         7.3830   -2.2980   22.3800 C.3    81  PRO81       0.0208
    201  CD         8.5960   -3.1220   22.6810 C.3    81  PRO81       0.0893
    202  N          7.5690   -3.3810   18.0460 N.am   82  VAL82      -0.1966
    203  CA         7.8870   -2.8600   16.7220 C.3    82  VAL82       0.1727
    204  C          7.2300   -1.5160   16.4230 C.2    82  VAL82       0.2616
    205  O          7.8540   -0.6170   15.8590 O.2    82  VAL82      -0.2715
    206  CB         7.4420   -3.8630   15.6180 C.3    82  VAL82       0.0290
    207  CG1        7.5140   -3.2270   14.2490 C.3    82  VAL82       0.0023
    208  CG2        8.2630   -5.1400   15.6720 C.3    82  VAL82       0.0023
    209  N          5.9620   -1.3940   16.8000 N.am   83  ALA83      -0.1977
    210  CA         5.1480   -0.2340   16.4400 C.3    83  ALA83       0.1597
    211  C          5.6640    1.0760   17.0110 C.2    83  ALA83       0.2287
    212  O          6.1580    1.1300   18.1410 O.2    83  ALA83      -0.2864
    213  CB         3.7120   -0.4570   16.8820 C.3    83  ALA83       0.0319
    214  N          3.5100    3.7770   16.7770 N.3    85  GLY85      -0.1210
    215  CA         2.2820    4.4710   17.1150 C.3    85  GLY85       0.1956
    216  C          1.0860    3.6340   16.7270 C.2    85  GLY85       0.2611
    217  O          1.2050    2.7110   15.9300 O.2    85  GLY85      -0.2717
    218  N         -0.0710    3.9500   17.2970 N.am   86  ALA86      -0.1979
    219  CA        -1.2900    3.2440   16.9370 C.3    86  ALA86       0.1597
    220  C         -2.4750    4.1490   17.1910 C.2    86  ALA86       0.2287
    221  O         -2.4500    4.9610   18.1160 O.2    86  ALA86      -0.2864
    222  CB        -1.4260    1.9440   17.7270 C.3    86  ALA86       0.0319
    223  N         -6.8560    3.8290   17.3650 N.3    88  LEU88      -0.1245
    224  CA        -8.0240    2.9510   17.2970 C.3    88  LEU88       0.1561
    225  C         -9.1750    3.5900   16.5170 C.2    88  LEU88       0.2260
    226  O         -9.6590    4.6560   16.8830 O.2    88  LEU88      -0.2867
    227  CB        -8.5100    2.5770   18.6980 C.3    88  LEU88       0.0270
    228  CG        -9.6110    1.5100   18.6960 C.3    88  LEU88       0.0019
    229  CD1       -9.0580    0.1910   18.1700 C.3    88  LEU88       0.0001
    230  CD2      -10.2210    1.3310   20.1000 C.3    88  LEU88       0.0001
@<TRIPOS>BOND
     1    21    20    2
     2    98    97    2
     3   106   107    1
     4    97    96    1
     5    33    31    1
     6    26    27    1
     7    30    27    1
     8    30    31    1
     9   107   108    1
    10   107   110    1
    11    20    19    1
    12    28    27    1
    13    28    29    2
    14   108   109    2
    15    18    19    1
    16    31    32    1
    17    96    95    1
    18    96    99    1
    19    19    22    1
    20    13    12    2
    21   112   110    1
    22    22    24    1
    23    22    23    1
    24   101   103   ar
    25   101   100   ar
    26   110   111    1
    27   103   105   ar
    28   113   114    1
    29    49    50    1
    30    49    46    1
    31   207   206    1
    32    12    11    1
    33    99   100    1
    34   100   102   ar
    35   105   104   ar
    36    52    50   ar
    37    52    54   ar
    38    50    51   ar
    39    34    35    1
    40   116   115    2
    41   114   115    1
    42   114   117    1
    43    10    11    1
    44    23    25    1
    45    47    46    1
    46    47    48    2
    47   102   104   ar
    48    54    55   ar
    49    51    53   ar
    50    46    45    1
    51    45    36   am
    52     3     4    2
    53     3     2    1
    54    11    14    1
    55     1     2    1
    56    71    68    1
    57    55    53   ar
    58   206   208    1
    59   206   203    1
    60   205   204    2
    61   217   216    2
    62     2     5    1
    63    35    36    1
    64    35    38    1
    65    36    37    2
    66   119   117    1
    67   117   118    1
    68   204   203    1
    69   204   209   am
    70   210   209    1
    71   210   213    1
    72   210   211    1
    73    14    15    1
    74   225   226    2
    75   225   224    1
    76   203   202    1
    77   216   215    1
    78   216   218   am
    79    38    39    1
    80   214   215    1
    81   120   121    1
    82    39    40    1
    83    68    67    1
    84    68    69    1
    85   219   220    1
    86   219   218    1
    87   219   222    1
    88   211   212    2
    89   220   221    2
    90   224   223    1
    91   224   227    1
    92   123   122    2
    93    41    40    1
    94    41    42    2
    95    15    16    2
    96    15    17   am
    97    94    92   ar
    98    94    93   ar
    99    67    58   am
   100     5     6    1
   101    70    69    2
   102    44    42    1
   103    92    90   ar
   104    93    91   ar
   105    42    43    1
   106   202   197   am
   107   122   121    1
   108   229   228    1
   109   121   124    1
   110    56    57    1
   111     6     7    1
   112   126   128   ar
   113   126   125   ar
   114     7     8    1
   115   228   227    1
   116   228   230    1
   117    86    87    2
   118    86    85    1
   119    58    57    1
   120    58    59    2
   121    91    89   ar
   122    90    89   ar
   123   128   129   ar
   124   193   192    1
   125   197   198    2
   126   197   196    1
   127   124   125    1
   128    57    60    1
   129   125   127   ar
   130    89    88    1
   131     8     9    1
   132   194   192    1
   133   192   191    2
   134    85    88    1
   135    85    84    1
   136   129   127   ar
   137   129   131   ar
   138    60    61    1
   139    61    62    1
   140   127   130   ar
   141   196   199    1
   142   196   195    1
   143    63    62    1
   144    63    64    2
   145   131   133   ar
   146    66    64    1
   147    81    83    1
   148    81    82    1
   149    81    78    1
   150    64    65    1
   151    72    73    1
   152   191   190    1
   153   189   190    1
   154   189   188    1
   155   199   200    1
   156   130   132   ar
   157   195   201    1
   158   142   140   ar
   159   142   144   ar
   160    79    80    2
   161    79    78    1
   162   140   139   ar
   163   183   181   ar
   164   183   182   ar
   165    77    78    1
   166    77    74   am
   167   133   132   ar
   168   188   185    1
   169   144   143   ar
   170   139   138    1
   171   139   141   ar
   172   138   135    1
   173   181   179   ar
   174   158   157   ar
   175   158   156   ar
   176   143   141   ar
   177   182   180   ar
   178   200   201    1
   179   157   155   ar
   180    73    76    1
   181    73    74    1
   182    74    75    2
   183   156   154   ar
   184   155   152   ar
   185   135   134    1
   186   135   136    1
   187   185   184    1
   188   185   186    1
   189   179   180   ar
   190   179   178    1
   191   154   152   ar
   192   154   153   ar
   193   187   186    2
   194   152   150   ar
   195   153   151   ar
   196   172   171    2
   197   136   137    2
   198   178   175    1
   199   150   151   ar
   200   150   149    1
   201   175   174    1
   202   175   176    1
   203   173   170    1
   204   171   174   am
   205   171   170    1
   206   149   146    1
   207   177   176    2
   208   168   165    1
   209   170   169    1
   210   163   160    1
   211   167   166    2
   212   165   166    1
   213   165   164    1
   214   159   160    1
   215   159   147   am
   216   160   161    1
   217   146   147    1
   218   146   145    1
   219   147   148    2
   220   161   162    2
