@<TRIPOS>MOLECULE
tmp/4nl8D00.pdb
 135 135 0 0 0
SMALL
GASTEIGER

@<TRIPOS>ATOM
      1  N         53.1570  174.4980   77.7750 N.3    65  TRP65      -0.1241
      2  CA        52.1270  174.1170   76.8160 C.3    65  TRP65       0.1605
      3  C         52.6210  173.0580   75.8070 C.2    65  TRP65       0.2264
      4  O         51.9450  172.0560   75.5500 O.2    65  TRP65      -0.2867
      5  CB        51.5910  175.3450   76.0770 C.3    65  TRP65       0.0550
      6  CG        50.6150  174.9700   75.0450 C.ar   65  TRP65       0.0003
      7  CD1       49.2900  174.7110   75.2290 C.ar   65  TRP65       0.0946
      8  CD2       50.8810  174.7630   73.6640 C.ar   65  TRP65       0.0152
      9  NE1       48.7110  174.3710   74.0380 N.ar   65  TRP65      -0.2442
     10  CE2       49.6670  174.3970   73.0590 C.ar   65  TRP65       0.0810
     11  CE3       52.0250  174.8520   72.8770 C.ar   65  TRP65       0.0012
     12  CZ2       49.5600  174.1240   71.6960 C.ar   65  TRP65       0.0191
     13  CZ3       51.9210  174.5890   71.5290 C.ar   65  TRP65       0.0001
     14  CH2       50.6970  174.2260   70.9480 C.ar   65  TRP65       0.0015
     15  N         49.7410  190.7550   68.2990 N.3   115  PHE115     -0.1241
     16  CA        49.9310  189.5380   67.5000 C.3   115  PHE115      0.1605
     17  C         49.2390  189.6380   66.1410 C.2   115  PHE115      0.2264
     18  O         48.1520  190.2080   66.0140 O.2   115  PHE115     -0.2867
     19  CB        49.4580  188.2720   68.2360 C.3   115  PHE115      0.0534
     20  CG        49.4130  187.0310   67.3550 C.ar  115  PHE115     -0.0203
     21  CD1       50.5730  186.3880   66.9630 C.ar  115  PHE115     -0.0042
     22  CD2       48.2050  186.5120   66.9210 C.ar  115  PHE115     -0.0042
     23  CE1       50.5290  185.2640   66.1560 C.ar  115  PHE115     -0.0003
     24  CE2       48.1580  185.3750   66.1250 C.ar  115  PHE115     -0.0003
     25  CZ        49.3230  184.7530   65.7460 C.ar  115  PHE115     -0.0000
     26  N         55.2560  175.9490   64.1780 N.3   237  ASP237     -0.1239
     27  CA        54.0250  176.0150   64.9600 C.3   237  ASP237      0.1674
     28  C         54.2840  176.7180   66.2990 C.2   237  ASP237      0.2266
     29  O         53.5780  177.6600   66.6760 O.2   237  ASP237     -0.2867
     30  CB        53.4210  174.6060   65.1450 C.3   237  ASP237      0.1410
     31  CG        53.2010  173.8820   63.8070 C.2   237  ASP237      0.3668
     32  OD1       53.0300  174.5630   62.7780 O.co2 237  ASP237     -0.2456
     33  OD2       53.1960  172.6420   63.7770 O.co2 237  ASP237     -0.2456
     34  N         54.8060  180.4610   65.9810 N.3   240  VAL240     -0.1231
     35  CA        53.5470  181.1620   65.8980 C.3   240  VAL240      0.1692
     36  C         52.8890  181.2300   67.2920 C.2   240  VAL240      0.2592
     37  O         52.3320  182.2660   67.6580 O.2   240  VAL240     -0.2718
     38  CB        52.6230  180.5300   64.8380 C.3   240  VAL240      0.0266
     39  CG1       51.2280  181.1240   64.9290 C.3   240  VAL240      0.0020
     40  CG2       53.1940  180.7440   63.4450 C.3   240  VAL240      0.0020
     41  N         52.9490  180.1310   68.0560 N.am  241  TRP241     -0.1976
     42  CA        52.4470  180.1180   69.4440 C.3   241  TRP241      0.1640
     43  C         53.1790  181.1780   70.2790 C.2   241  TRP241      0.2290
     44  O         52.5570  181.9110   71.0560 O.2   241  TRP241     -0.2864
     45  CB        52.5990  178.7340   70.1090 C.3   241  TRP241      0.0576
     46  CG        51.7300  178.5350   71.3770 C.ar  241  TRP241      0.0006
     47  CD1       50.5730  177.8350   71.4590 C.ar  241  TRP241      0.0946
     48  CD2       51.9780  179.0390   72.7100 C.ar  241  TRP241      0.0152
     49  NE1       50.0760  177.8620   72.7440 N.ar  241  TRP241     -0.2442
     50  CE2       50.9140  178.6010   73.5280 C.ar  241  TRP241      0.0810
     51  CE3       52.9990  179.8130   73.2900 C.ar  241  TRP241      0.0012
     52  CZ2       50.8340  178.9170   74.8860 C.ar  241  TRP241      0.0191
     53  CZ3       52.9190  180.1300   74.6460 C.ar  241  TRP241      0.0001
     54  CH2       51.8460  179.6800   75.4260 C.ar  241  TRP241      0.0015
     55  N         52.0520  184.5990   69.5450 N.3   244  HIS244     -0.1241
     56  CA        50.7110  184.8050   70.1030 C.3   244  HIS244      0.1621
     57  C         50.7510  185.2160   71.5720 C.2   244  HIS244      0.2264
     58  O         50.1760  186.2290   71.9410 O.2   244  HIS244     -0.2867
     59  CB        49.8740  183.5320   69.9230 C.3   244  HIS244      0.0745
     60  CG        48.4530  183.6670   70.3660 C.ar  244  HIS244      0.0817
     61  ND1       47.4960  184.3150   69.6140 N.ar  244  HIS244     -0.2268
     62  CD2       47.8230  183.2200   71.4750 C.ar  244  HIS244      0.1154
     63  CE1       46.3390  184.2750   70.2480 C.ar  244  HIS244      0.1986
     64  NE2       46.5090  183.6110   71.3770 N.ar  244  HIS244     -0.2212
     65  N         45.3600  177.7360   56.9070 N.3   264  ASN264     -0.1240
     66  CA        45.3310  178.7560   57.9380 C.3   264  ASN264      0.1653
     67  C         45.0430  180.1430   57.3630 C.2   264  ASN264      0.2266
     68  O         44.3920  180.9620   58.0230 O.2   264  ASN264     -0.2867
     69  CB        46.6260  178.7400   58.7550 C.3   264  ASN264      0.1155
     70  CG        46.6700  177.6000   59.7840 C.2   264  ASN264      0.2627
     71  OD1       45.6370  177.0990   60.2350 O.2   264  ASN264     -0.2716
     72  ND2       47.8800  177.1990   60.1710 N.am  264  ASN264     -0.0877
     73  N         43.0460  182.3490   60.4860 N.3   269  LYS269     -0.1231
     74  CA        44.2500  182.1990   61.3550 C.3   269  LYS269      0.1693
     75  C         45.4540  183.0680   60.9280 C.2   269  LYS269      0.2592
     76  O         46.0950  183.7160   61.7710 O.2   269  LYS269     -0.2718
     77  CB        44.7220  180.7300   61.4660 C.3   269  LYS269      0.0285
     78  CG        43.6580  179.6340   61.5350 C.3   269  LYS269      0.0035
     79  CD        43.0020  179.4800   62.8920 C.3   269  LYS269      0.0206
     80  CE        42.5830  178.0300   63.1180 C.3   269  LYS269      0.1093
     81  NZ        41.2940  177.9140   63.8440 N.3   269  LYS269     -0.1314
     82  N         45.7730  183.0460   59.6330 N.am  270  TYR270     -0.1976
     83  CA        46.8150  183.9160   59.0690 C.3   270  TYR270      0.1639
     84  C         46.2430  184.8360   57.9860 C.2   270  TYR270      0.2290
     85  O         45.1650  184.5930   57.4190 O.2   270  TYR270     -0.2864
     86  CB        47.9670  183.1240   58.4290 C.3   270  TYR270      0.0560
     87  CG        48.6160  182.0130   59.2260 C.ar  270  TYR270     -0.0198
     88  CD1       48.5420  181.9470   60.6120 C.ar  270  TYR270     -0.0009
     89  CD2       49.3550  181.0330   58.5680 C.ar  270  TYR270     -0.0009
     90  CE1       49.1550  180.9140   61.3130 C.ar  270  TYR270      0.0417
     91  CE2       49.9780  180.0000   59.2580 C.ar  270  TYR270      0.0417
     92  CZ        49.8800  179.9450   60.6300 C.ar  270  TYR270      0.1957
     93  OH        50.4910  178.9150   61.3080 O.3   270  TYR270     -0.2866
     94  N         38.9100  165.4600   63.6940 N.3   540  PRO540     -0.2102
     95  CA        38.7960  166.8330   63.1860 C.3   540  PRO540      0.1504
     96  C         39.2570  167.9020   64.1740 C.2   540  PRO540      0.2576
     97  O         39.8430  168.9070   63.7660 O.2   540  PRO540     -0.2718
     98  CB        37.2990  166.9830   62.8890 C.3   540  PRO540      0.0282
     99  CG        36.8310  165.5950   62.6550 C.3   540  PRO540      0.0208
    100  CD        37.6500  164.7180   63.5580 C.3   540  PRO540      0.0893
    101  N         38.9380  167.7050   65.4480 N.am  541  SER541     -0.1938
    102  CA        39.3860  168.5960   66.5190 C.3   541  SER541      0.2055
    103  C         40.7860  168.2950   67.0670 C.2   541  SER541      0.2643
    104  O         41.0840  167.1750   67.5220 O.2   541  SER541     -0.2714
    105  CB        38.3750  168.5840   67.6620 C.3   541  SER541      0.2130
    106  OG        38.7480  169.5000   68.6820 O.3   541  SER541     -0.2179
    107  N         41.6310  169.3240   67.0200 N.am  542  ARG542     -0.1963
    108  CA        42.9810  169.2740   67.5700 C.3   542  ARG542      0.1729
    109  C         42.9370  169.1650   69.0790 C.2   542  ARG542      0.2616
    110  O         43.6460  168.3520   69.6800 O.2   542  ARG542     -0.2715
    111  CB        43.7590  170.5370   67.1790 C.3   542  ARG542      0.0348
    112  CG        45.0980  170.2480   66.5090 C.3   542  ARG542      0.0492
    113  CD        45.4430  171.2590   65.4340 C.3   542  ARG542      0.2205
    114  NE        46.2610  172.3300   65.9810 N.pl3 542  ARG542     -0.0865
    115  CZ        46.8220  173.2800   65.2430 C.cat 542  ARG542      0.5346
    116  NH1       46.6360  173.3100   63.9270 N.pl3 542  ARG542      0.1354
    117  NH2       47.5670  174.2180   65.8240 N.pl3 542  ARG542      0.1354
    118  N         42.0870  169.9730   69.6930 N.am  543  VAL543     -0.1963
    119  CA        42.0420  170.0250   71.1410 C.3   543  VAL543      0.1727
    120  C         41.4690  168.7240   71.7170 C.2   543  VAL543      0.2616
    121  O         41.9910  168.2180   72.7130 O.2   543  VAL543     -0.2715
    122  CB        41.2600  171.2500   71.6600 C.3   543  VAL543      0.0290
    123  CG1       41.2660  171.2770   73.1910 C.3   543  VAL543      0.0023
    124  CG2       41.8570  172.5410   71.1090 C.3   543  VAL543      0.0023
    125  N         40.4260  168.1720   71.0940 N.am  544  ARG544     -0.1977
    126  CA        39.8460  166.9090   71.5720 C.3   544  ARG544      0.1597
    127  C         40.8330  165.7550   71.4860 C.2   544  ARG544      0.2287
    128  O         40.9600  164.9840   72.4200 O.2   544  ARG544     -0.2864
    129  CB        38.5570  166.5570   70.8290 C.3   544  ARG544      0.0334
    130  CG        37.3730  167.3460   71.3370 C.3   544  ARG544      0.0492
    131  CD        36.1210  167.0860   70.5340 C.3   544  ARG544      0.2205
    132  NE        35.0810  167.9630   71.0420 N.pl3 544  ARG544     -0.0865
    133  CZ        35.0190  169.2800   70.8500 C.cat 544  ARG544      0.5346
    134  NH1       35.9310  169.9190   70.1300 N.pl3 544  ARG544      0.1354
    135  NH2       34.0220  169.9670   71.3890 N.pl3 544  ARG544      0.1354
@<TRIPOS>BOND
     1    65    66    1
     2    67    66    1
     3    67    68    2
     4    85    84    2
     5    66    69    1
     6    84    83    1
     7    86    83    1
     8    86    87    1
     9    89    87   ar
    10    89    91   ar
    11    69    70    1
    12    83    82    1
    13    87    88   ar
    14    91    92   ar
    15    82    75   am
    16    70    72   am
    17    70    71    2
    18    73    74    1
    19    88    90   ar
    20    92    93    1
    21    92    90   ar
    22    75    74    1
    23    75    76    2
    24    74    77    1
    25    77    78    1
    26    78    79    1
    27    99    98    1
    28    99   100    1
    29    32    31   ar
    30    98    95    1
    31    79    80    1
    32    80    81    1
    33    95    94    1
    34    95    96    1
    35    40    38    1
    36   100    94    1
    37    97    96    2
    38    33    31   ar
    39    31    30    1
    40   116   115    1
    41    96   101   am
    42    26    27    1
    43    38    39    1
    44    38    35    1
    45    27    30    1
    46    27    28    1
    47   115   117    1
    48   115   114    2
    49   113   114    1
    50   113   112    1
    51   101   102    1
    52    25    24   ar
    53    25    23   ar
    54    35    34    1
    55    35    36    1
    56    18    17    2
    57    24    22   ar
    58    17    16    1
    59    23    21   ar
    60    28    29    2
    61   112   111    1
    62   102   103    1
    63   102   105    1
    64    22    20   ar
    65    21    20   ar
    66   107   103   am
    67   107   108    1
    68   103   104    2
    69   111   108    1
    70    36    37    2
    71    36    41   am
    72    20    19    1
    73    16    19    1
    74    16    15    1
    75   108   109    1
    76   105   106    1
    77    41    42    1
    78   109   110    2
    79   109   118   am
    80    42    45    1
    81    42    43    1
    82    55    56    1
    83    61    63   ar
    84    61    60   ar
    85   118   119    1
    86    59    56    1
    87    59    60    1
    88    56    57    1
    89    45    46    1
    90   134   133    1
    91    63    64   ar
    92    43    44    2
    93    60    62   ar
    94   131   132    1
    95   131   130    1
    96   129   130    1
    97   129   126    1
    98   133   132    2
    99   133   135    1
   100    14    13   ar
   101    14    12   ar
   102   125   126    1
   103   125   120   am
   104   124   122    1
   105   119   122    1
   106   119   120    1
   107    46    47   ar
   108    46    48   ar
   109    64    62   ar
   110    47    49   ar
   111   127   126    1
   112   127   128    2
   113    13    11   ar
   114    57    58    2
   115   122   123    1
   116    12    10   ar
   117   120   121    2
   118    48    51   ar
   119    48    50   ar
   120    49    50   ar
   121    11     8   ar
   122    10     8   ar
   123    10     9   ar
   124    51    53   ar
   125    50    52   ar
   126     8     6   ar
   127     9     7   ar
   128    53    54   ar
   129    52    54   ar
   130     6     7   ar
   131     6     5    1
   132     4     3    2
   133     3     2    1
   134     5     2    1
   135     2     1    1
