@<TRIPOS>MOLECULE
tmp/4nl8B00.pdb
 124 124 0 0 0
SMALL
GASTEIGER

@<TRIPOS>ATOM
      1  N         16.8050  142.5700   11.6170 N.3    65  TRP65      -0.1241
      2  CA        15.7870  143.5890   11.7310 C.3    65  TRP65       0.1605
      3  C         16.3040  144.9490   11.2110 C.2    65  TRP65       0.2264
      4  O         15.6070  145.6500   10.4610 O.2    65  TRP65      -0.2867
      5  CB        15.2810  143.6920   13.1800 C.3    65  TRP65       0.0550
      6  CG        14.2880  144.7980   13.3550 C.ar   65  TRP65       0.0003
      7  CD1       12.9540  144.7630   13.0770 C.ar   65  TRP65       0.0946
      8  CD2       14.5710  146.1180   13.7980 C.ar   65  TRP65       0.0152
      9  NE1       12.3860  145.9860   13.3290 N.ar   65  TRP65      -0.2442
     10  CE2       13.3590  146.8380   13.7750 C.ar   65  TRP65       0.0810
     11  CE3       15.7350  146.7640   14.2120 C.ar   65  TRP65       0.0012
     12  CZ2       13.2790  148.1700   14.1570 C.ar   65  TRP65       0.0191
     13  CZ3       15.6520  148.0820   14.5990 C.ar   65  TRP65       0.0001
     14  CH2       14.4330  148.7750   14.5680 C.ar   65  TRP65       0.0015
     15  N         13.9950  143.5530   30.5630 N.3   115  PHE115     -0.1241
     16  CA        14.1740  144.8050   29.8310 C.3   115  PHE115      0.1605
     17  C         13.5230  145.9630   30.5720 C.2   115  PHE115      0.2264
     18  O         12.4510  145.8240   31.1700 O.2   115  PHE115     -0.2867
     19  CB        13.6400  144.7240   28.3860 C.3   115  PHE115      0.0534
     20  CG        13.5800  146.0630   27.6820 C.ar  115  PHE115     -0.0203
     21  CD1       14.7380  146.7040   27.2400 C.ar  115  PHE115     -0.0042
     22  CD2       12.3730  146.6890   27.4780 C.ar  115  PHE115     -0.0042
     23  CE1       14.6890  147.9320   26.6110 C.ar  115  PHE115     -0.0003
     24  CE2       12.3200  147.9230   26.8480 C.ar  115  PHE115     -0.0003
     25  CZ        13.4800  148.5400   26.4110 C.ar  115  PHE115     -0.0000
     26  N         19.0750  153.9410   19.0530 N.3   237  ASP237     -0.1239
     27  CA        17.8380  153.1770   18.8520 C.3   237  ASP237      0.1674
     28  C         18.1730  151.7030   18.8680 C.2   237  ASP237      0.2266
     29  O         17.4930  150.9350   19.5270 O.2   237  ASP237     -0.2867
     30  CB        17.0150  153.4420   17.5810 C.3   237  ASP237      0.1410
     31  CG        15.5280  152.7180   17.6360 C.2   237  ASP237      0.3668
     32  OD1       15.0600  152.3370   18.7390 O.co2 237  ASP237     -0.2456
     33  OD2       14.8170  152.4760   16.6060 O.co2 237  ASP237     -0.2456
     34  N         18.7980  150.2500   22.2320 N.3   240  VAL240     -0.1231
     35  CA        17.5590  150.0210   22.9640 C.3   240  VAL240      0.1692
     36  C         16.8680  148.7800   22.4130 C.2   240  VAL240      0.2592
     37  O         16.3550  147.9760   23.1910 O.2   240  VAL240     -0.2718
     38  CB        16.6380  151.2440   22.9350 C.3   240  VAL240      0.0266
     39  CG1       15.2660  150.8980   23.4800 C.3   240  VAL240      0.0020
     40  CG2       17.2470  152.3870   23.7450 C.3   240  VAL240      0.0020
     41  N         16.9020  148.6020   21.0900 N.am  241  TRP241     -0.1976
     42  CA        16.3910  147.3710   20.4570 C.3   241  TRP241      0.1640
     43  C         17.1340  146.1380   20.9800 C.2   241  TRP241      0.2290
     44  O         16.5160  145.1240   21.3080 O.2   241  TRP241     -0.2864
     45  CB        16.5030  147.4170   18.9150 C.3   241  TRP241      0.0576
     46  CG        15.6200  146.4070   18.1810 C.ar  241  TRP241      0.0006
     47  CD1       14.4450  146.6710   17.5450 C.ar  241  TRP241      0.0946
     48  CD2       15.8530  144.9960   18.0140 C.ar  241  TRP241      0.0152
     49  NE1       13.9320  145.5270   16.9970 N.ar  241  TRP241     -0.2442
     50  CE2       14.7740  144.4860   17.2740 C.ar  241  TRP241      0.0810
     51  CE3       16.8710  144.1160   18.4140 C.ar  241  TRP241      0.0012
     52  CZ2       14.6770  143.1420   16.9270 C.ar  241  TRP241      0.0191
     53  CZ3       16.7730  142.7770   18.0710 C.ar  241  TRP241      0.0001
     54  CH2       15.6880  142.3040   17.3340 C.ar  241  TRP241      0.0015
     55  N         16.1140  145.2440   24.4150 N.3   244  HIS244     -0.1241
     56  CA        14.7710  144.6720   24.4020 C.3   244  HIS244      0.1621
     57  C         14.8100  143.1740   24.1000 C.2   244  HIS244      0.2264
     58  O         14.2290  142.3810   24.8420 O.2   244  HIS244     -0.2867
     59  CB        13.8990  145.4160   23.3770 C.3   244  HIS244      0.0745
     60  CG        12.4750  144.9660   23.3420 C.ar  244  HIS244      0.0817
     61  ND1       11.5560  145.3230   24.3050 N.ar  244  HIS244     -0.2268
     62  CD2       11.8090  144.1940   22.4530 C.ar  244  HIS244      0.1154
     63  CE1       10.3850  144.7870   24.0160 C.ar  244  HIS244      0.1986
     64  NE2       10.5120  144.0980   22.8960 N.ar  244  HIS244     -0.2212
     65  N          9.4150  159.5920   24.4290 N.3   264  ASN264     -0.1240
     66  CA         9.3900  158.2110   24.8530 C.3   264  ASN264      0.1653
     67  C          9.1530  158.0890   26.3630 C.2   264  ASN264      0.2266
     68  O          8.5510  157.1190   26.8230 O.2   264  ASN264     -0.2867
     69  CB        10.6720  157.4890   24.3980 C.3   264  ASN264      0.1155
     70  CG        10.6410  157.1020   22.9080 C.2   264  ASN264      0.2627
     71  OD1        9.5740  156.9220   22.3170 O.2   264  ASN264     -0.2716
     72  ND2       11.8240  156.9290   22.3140 N.am  264  ASN264     -0.0877
     73  N          7.2240  154.2940   27.0080 N.3   269  LYS269     -0.1231
     74  CA         8.3820  153.5890   26.4200 C.3   269  LYS269      0.1693
     75  C          9.6260  153.5760   27.3270 C.2   269  LYS269      0.2592
     76  O         10.2810  152.5340   27.4760 O.2   269  LYS269     -0.2718
     77  CB         8.7810  154.1650   25.0430 C.3   269  LYS269      0.0285
     78  CG         7.6690  154.6100   24.0900 C.3   269  LYS269      0.0035
     79  CD         6.9700  153.4740   23.3690 C.3   269  LYS269      0.0206
     80  CE         6.4810  153.9400   21.9990 C.3   269  LYS269      0.1093
     81  NZ         5.1660  153.3530   21.6360 N.3   269  LYS269     -0.1314
     82  N          9.9760  154.7390   27.8770 N.am  270  TYR270     -0.1976
     83  CA        11.0680  154.8510   28.8520 C.3   270  TYR270      0.1639
     84  C         10.5710  155.4150   30.1880 C.2   270  TYR270      0.2290
     85  O          9.4970  156.0110   30.2870 O.2   270  TYR270     -0.2864
     86  CB        12.2050  155.7730   28.3820 C.3   270  TYR270      0.0560
     87  CG        12.7900  155.5720   26.9960 C.ar  270  TYR270     -0.0198
     88  CD1       12.6800  154.3660   26.3070 C.ar  270  TYR270     -0.0009
     89  CD2       13.5100  156.6030   26.3910 C.ar  270  TYR270     -0.0009
     90  CE1       13.2310  154.2120   25.0380 C.ar  270  TYR270      0.0417
     91  CE2       14.0780  156.4550   25.1370 C.ar  270  TYR270      0.0417
     92  CZ        13.9360  155.2600   24.4680 C.ar  270  TYR270      0.1957
     93  OH        14.4810  155.1230   23.2220 O.3   270  TYR270     -0.2866
     94  N          2.4250  159.0640   10.6060 N.3   518  PRO518     -0.2102
     95  CA         2.3550  158.8490   12.0590 C.3   518  PRO518      0.1504
     96  C          2.8410  157.4740   12.5090 C.2   518  PRO518      0.2576
     97  O          3.4690  157.3590   13.5650 O.2   518  PRO518     -0.2718
     98  CB         0.8670  159.0030   12.3660 C.3   518  PRO518      0.0282
     99  CG         0.3440  159.8710   11.2700 C.3   518  PRO518      0.0208
    100  CD         1.1370  159.5030   10.0490 C.3   518  PRO518      0.0893
    101  N          2.5160  156.4440   11.7330 N.am  519  SER519     -0.1938
    102  CA         3.0140  155.0810   11.9700 C.3   519  SER519      0.2055
    103  C          4.4120  154.7640   11.3980 C.2   519  SER519      0.2643
    104  O          4.6710  154.8910   10.1960 O.2   519  SER519     -0.2714
    105  CB         2.0110  154.0570   11.4410 C.3   519  SER519      0.2130
    106  OG         2.4180  152.7250   11.7390 O.3   519  SER519     -0.2179
    107  N          5.2910  154.3240   12.2970 N.am  520  ARG520     -0.1963
    108  CA         6.6360  153.8830   11.9560 C.3   520  ARG520      0.1729
    109  C          6.5920  152.6050   11.1310 C.2   520  ARG520      0.2616
    110  O          7.2900  152.4770   10.1260 O.2   520  ARG520     -0.2715
    111  CB         7.4560  153.6380   13.2380 C.3   520  ARG520      0.0348
    112  CG         8.7820  154.3870   13.2790 C.3   520  ARG520      0.0492
    113  CD         9.1420  154.8520   14.6740 C.3   520  ARG520      0.2205
    114  NE         9.9700  153.8740   15.3570 N.pl3 520  ARG520     -0.0865
    115  CZ        10.5500  154.0850   16.5360 C.cat 520  ARG520      0.5346
    116  NH1       10.3740  155.2330   17.1850 N.pl3 520  ARG520      0.1354
    117  NH2       11.3040  153.1360   17.0810 N.pl3 520  ARG520      0.1354
    118  N          5.7700  151.6600   11.5570 N.am  521  VAL521     -0.1977
    119  CA         5.7520  150.3600   10.9200 C.3   521  VAL521      0.1596
    120  C          5.1400  150.4630    9.5280 C.2   521  VAL521      0.2287
    121  O          5.6490  149.8410    8.5970 O.2   521  VAL521     -0.2864
    122  CB         5.0070  149.3140   11.7610 C.3   521  VAL521      0.0276
    123  CG1        5.0200  147.9600   11.0590 C.3   521  VAL521      0.0022
    124  CG2        5.6300  149.1930   13.1540 C.3   521  VAL521      0.0022
@<TRIPOS>BOND
     1   121   120    2
     2   120   119    1
     3   100    94    1
     4   100    99    1
     5   110   109    2
     6   104   103    2
     7     4     3    2
     8    94    95    1
     9   119   118    1
    10   119   122    1
    11   123   122    1
    12   109   118   am
    13   109   108    1
    14     3     2    1
    15    99    98    1
    16   103   102    1
    17   103   107   am
    18   105   106    1
    19   105   102    1
    20     1     2    1
    21     2     5    1
    22   101   102    1
    23   101    96   am
    24   122   124    1
    25   108   107    1
    26   108   111    1
    27    95    98    1
    28    95    96    1
    29    96    97    2
    30     7     9   ar
    31     7     6   ar
    32     5     6    1
    33   111   112    1
    34   112   113    1
    35     9    10   ar
    36     6     8   ar
    37    10     8   ar
    38    10    12   ar
    39     8    11   ar
    40    12    14   ar
    41    11    13   ar
    42    14    13   ar
    43   113   114    1
    44   114   115    2
    45   115   117    1
    46   115   116    1
    47    33    31   ar
    48    52    50   ar
    49    52    54   ar
    50    49    50   ar
    51    49    47   ar
    52    50    48   ar
    53    54    53   ar
    54    47    46   ar
    55    30    31    1
    56    30    27    1
    57    31    32   ar
    58    48    46   ar
    59    48    51   ar
    60    53    51   ar
    61    46    45    1
    62    27    28    1
    63    27    26    1
    64    28    29    2
    65    45    42    1
    66    42    43    1
    67    42    41    1
    68    43    44    2
    69    41    36   am
    70    81    80    1
    71    80    79    1
    72    34    35    1
    73    72    70   am
    74    71    70    2
    75    36    35    1
    76    36    37    2
    77    62    64   ar
    78    62    60   ar
    79    64    63   ar
    80    70    69    1
    81    38    35    1
    82    38    39    1
    83    38    40    1
    84    93    92    1
    85    60    59    1
    86    60    61   ar
    87    79    78    1
    88    59    56    1
    89    63    61   ar
    90    78    77    1
    91    57    56    1
    92    57    58    2
    93    69    66    1
    94    56    55    1
    95    65    66    1
    96    92    90   ar
    97    92    91   ar
    98    66    67    1
    99    90    88   ar
   100    77    74    1
   101    91    89   ar
   102    88    87   ar
   103    67    68    2
   104    89    87   ar
   105    25    23   ar
   106    25    24   ar
   107    74    73    1
   108    74    75    1
   109    23    21   ar
   110    24    22   ar
   111    87    86    1
   112    21    20   ar
   113    75    76    2
   114    75    82   am
   115    22    20   ar
   116    20    19    1
   117    82    83    1
   118    86    83    1
   119    19    16    1
   120    83    84    1
   121    16    15    1
   122    16    17    1
   123    84    85    2
   124    17    18    2
