@<TRIPOS>MOLECULE
tmp/4nl8F00.pdb
 117 116 0 0 0
SMALL
GASTEIGER

@<TRIPOS>ATOM
      1  N         15.2100  142.9300   77.5050 N.3    58  TRP58      -0.1241
      2  CA        16.2810  142.3800   76.6880 C.3    58  TRP58       0.1605
      3  C         15.7710  141.9160   75.3110 C.2    58  TRP58       0.2264
      4  O         16.3660  142.2320   74.2740 O.2    58  TRP58      -0.2867
      5  CB        16.9880  141.2350   77.4290 C.3    58  TRP58       0.0550
      6  CG        18.0250  140.6040   76.5840 C.ar   58  TRP58       0.0003
      7  CD1       19.2960  141.0510   76.3710 C.ar   58  TRP58       0.0946
      8  CD2       17.8670  139.4450   75.7820 C.ar   58  TRP58       0.0152
      9  NE1       19.9480  140.2270   75.4880 N.ar   58  TRP58      -0.2442
     10  CE2       19.0910  139.2290   75.1110 C.ar   58  TRP58       0.0810
     11  CE3       16.8140  138.5630   75.5670 C.ar   58  TRP58       0.0012
     12  CZ2       19.2890  138.1640   74.2460 C.ar   58  TRP58       0.0191
     13  CZ3       17.0140  137.5060   74.7110 C.ar   58  TRP58       0.0001
     14  CH2       18.2430  137.3120   74.0570 C.ar   58  TRP58       0.0015
     15  N         20.8160  127.6180   87.6190 N.3   108  PHE108     -0.1241
     16  CA        20.5990  127.4400   86.1840 C.3   108  PHE108      0.1605
     17  C         21.4170  126.2710   85.6340 C.2   108  PHE108      0.2264
     18  O         22.5530  126.0250   86.0490 O.2   108  PHE108     -0.2867
     19  CB        20.9080  128.7070   85.3840 C.3   108  PHE108      0.0534
     20  CG        20.9420  128.4850   83.8860 C.ar  108  PHE108     -0.0203
     21  CD1       19.7740  128.2980   83.1700 C.ar  108  PHE108     -0.0042
     22  CD2       22.1460  128.4630   83.1920 C.ar  108  PHE108     -0.0042
     23  CE1       19.8040  128.1020   81.7980 C.ar  108  PHE108     -0.0003
     24  CE2       22.1800  128.2690   81.8190 C.ar  108  PHE108     -0.0003
     25  CZ        21.0060  128.0930   81.1220 C.ar  108  PHE108     -0.0000
     26  N         14.5470  130.0050   72.7310 N.3   230  ASP230     -0.1239
     27  CA        15.6880  130.8140   73.1160 C.3   230  ASP230      0.1674
     28  C         15.3380  131.6470   74.3440 C.2   230  ASP230      0.2266
     29  O         16.0690  131.6400   75.3420 O.2   230  ASP230     -0.2867
     30  CB        16.1490  131.6890   71.9390 C.3   230  ASP230      0.1410
     31  CG        16.4470  130.8620   70.6940 C.2   230  ASP230      0.3668
     32  OD1       16.7660  129.6620   70.8340 O.co2 230  ASP230     -0.2456
     33  OD2       16.3480  131.4070   69.5720 O.co2 230  ASP230     -0.2456
     34  N         15.1660  129.6420   77.5550 N.3   233  VAL233     -0.1231
     35  CA        16.4880  129.3940   78.1020 C.3   233  VAL233      0.1692
     36  C         17.0180  130.6750   78.7620 C.2   233  VAL233      0.2592
     37  O         17.6130  130.5980   79.8430 O.2   233  VAL233     -0.2718
     38  CB        17.4580  128.8510   77.0410 C.3   233  VAL233      0.0266
     39  CG1       18.8770  128.8270   77.5810 C.3   233  VAL233      0.0020
     40  CG2       17.0350  127.4560   76.6150 C.3   233  VAL233      0.0020
     41  N         16.7780  131.8370   78.1390 N.am  234  TRP234     -0.1976
     42  CA        17.1400  133.1420   78.7390 C.3   234  TRP234      0.1640
     43  C         16.4300  133.3230   80.0810 C.2   234  TRP234      0.2290
     44  O         17.0490  133.7350   81.0700 O.2   234  TRP234     -0.2864
     45  CB        16.8010  134.3300   77.8060 C.3   234  TRP234      0.0576
     46  CG        17.5190  135.6380   78.1390 C.ar  234  TRP234      0.0006
     47  CD1       18.5920  136.1670   77.4850 C.ar  234  TRP234      0.0946
     48  CD2       17.2070  136.5550   79.1950 C.ar  234  TRP234      0.0152
     49  NE1       18.9680  137.3480   78.0630 N.ar  234  TRP234     -0.2442
     50  CE2       18.1360  137.6070   79.1180 C.ar  234  TRP234      0.0810
     51  CE3       16.2310  136.5880   80.2050 C.ar  234  TRP234      0.0012
     52  CZ2       18.1230  138.6790   80.0080 C.ar  234  TRP234      0.0191
     53  CZ3       16.2210  137.6530   81.0960 C.ar  234  TRP234      0.0001
     54  CH2       17.1560  138.6850   80.9880 C.ar  234  TRP234      0.0015
     55  N         17.9110  131.2390   82.7700 N.3   237  HIS237     -0.1241
     56  CA        19.2160  131.7950   83.1550 C.3   237  HIS237      0.1621
     57  C         19.0830  132.9130   84.1850 C.2   237  HIS237      0.2264
     58  O         19.7010  132.8420   85.2490 O.2   237  HIS237     -0.2867
     59  CB        19.9550  132.3040   81.9170 C.3   237  HIS237      0.0745
     60  CG        21.3380  132.7940   82.1920 C.ar  237  HIS237      0.0817
     61  ND1       22.4040  131.9450   82.4160 N.ar  237  HIS237     -0.2268
     62  CD2       21.8350  134.0470   82.2660 C.ar  237  HIS237      0.1154
     63  CE1       23.4960  132.6560   82.6270 C.ar  237  HIS237      0.1986
     64  NE2       23.1790  133.9340   82.5340 N.ar  237  HIS237     -0.2212
     65  N         25.2000  124.0100   70.7490 N.3   257  ASN257     -0.1240
     66  CA        25.2120  124.4500   72.1320 C.3   257  ASN257      0.1653
     67  C         25.6740  123.3400   73.0940 C.2   257  ASN257      0.2266
     68  O         26.3020  123.6300   74.1170 O.2   257  ASN257     -0.2867
     69  CB        23.8380  125.0220   72.5310 C.3   257  ASN257      0.1155
     70  CG        23.6140  126.4440   72.0030 C.2   257  ASN257      0.2627
     71  OD1       24.5680  127.1830   71.7220 O.2   257  ASN257     -0.2716
     72  ND2       22.3540  126.8300   71.8600 N.am  257  ASN257     -0.0877
     73  N         27.4970  125.3530   76.4690 N.3   262  LYS262     -0.1231
     74  CA        26.2160  126.0390   76.7620 C.3   262  LYS262      0.1693
     75  C         25.1310  125.1230   77.3510 C.2   262  LYS262      0.2592
     76  O         24.4620  125.4980   78.3190 O.2   262  LYS262     -0.2718
     77  CB        25.6350  126.7350   75.5170 C.3   262  LYS262      0.0285
     78  CG        26.6070  127.4210   74.5520 C.3   262  LYS262      0.0035
     79  CD        27.1240  128.7630   75.0340 C.3   262  LYS262      0.0206
     80  CE        27.4050  129.6750   73.8430 C.3   262  LYS262      0.1093
     81  NZ        28.6080  130.5180   74.0480 N.3   262  LYS262     -0.1314
     82  N         24.9370  123.9500   76.7400 N.am  263  TYR263     -0.1976
     83  CA        24.0220  122.9200   77.2640 C.3   263  TYR263      0.1639
     84  C         24.7450  121.6010   77.5500 C.2   263  TYR263      0.2290
     85  O         25.8610  121.3490   77.0750 O.2   263  TYR263     -0.2864
     86  CB        22.8810  122.5830   76.2940 C.3   263  TYR263      0.0560
     87  CG        22.0960  123.7220   75.6710 C.ar  263  TYR263     -0.0198
     88  CD1       22.0380  124.9880   76.2490 C.ar  263  TYR263     -0.0009
     89  CD2       21.3530  123.4990   74.5150 C.ar  263  TYR263     -0.0009
     90  CE1       21.2960  126.0020   75.6690 C.ar  263  TYR263      0.0417
     91  CE2       20.6050  124.5010   73.9340 C.ar  263  TYR263      0.0417
     92  CZ        20.5830  125.7490   74.5160 C.ar  263  TYR263      0.1957
     93  OH        19.8210  126.7350   73.9540 O.3   263  TYR263     -0.2866
     94  N         29.9010  136.9470   65.3870 N.3   546  SER546     -0.1202
     95  CA        29.4060  137.4760   66.6610 C.3   546  SER546      0.2020
     96  C         27.9260  137.9130   66.6700 C.2   546  SER546      0.2619
     97  O         27.4830  138.7720   65.8930 O.2   546  SER546     -0.2717
     98  CB        30.2860  138.6430   67.1240 C.3   546  SER546      0.2103
     99  OG        29.9030  139.1140   68.4110 O.3   546  SER546     -0.2182
    100  N         27.1960  137.3150   67.6020 N.am  547  ARG547     -0.1965
    101  CA        25.8070  137.6410   67.8600 C.3   547  ARG547      0.1729
    102  C         25.6810  139.0510   68.4170 C.2   547  ARG547      0.2616
    103  O         24.8230  139.8230   67.9940 O.2   547  ARG547     -0.2715
    104  CB        25.2140  136.6310   68.8600 C.3   547  ARG547      0.0348
    105  CG        23.9500  135.9370   68.3740 C.3   547  ARG547      0.0492
    106  CD        23.9040  134.4760   68.8130 C.3   547  ARG547      0.2205
    107  NE        23.4800  134.3050   70.1940 N.pl3 547  ARG547     -0.0865
    108  CZ        23.2310  133.1270   70.7570 C.cat 547  ARG547      0.5346
    109  NH1       23.3470  132.0060   70.0560 N.pl3 547  ARG547      0.1354
    110  NH2       22.8410  133.0700   72.0230 N.pl3 547  ARG547      0.1354
    111  N         26.5310  139.3730   69.3820 N.am  548  VAL548     -0.1977
    112  CA        26.4150  140.6420   70.0790 C.3   548  VAL548      0.1596
    113  C         26.7880  141.7890   69.1450 C.2   548  VAL548      0.2287
    114  O         26.1210  142.8160   69.1540 O.2   548  VAL548     -0.2864
    115  CB        27.2580  140.6820   71.3740 C.3   548  VAL548      0.0276
    116  CG1       27.0910  142.0260   72.0760 C.3   548  VAL548      0.0022
    117  CG2       26.8570  139.5440   72.3110 C.3   548  VAL548      0.0022
@<TRIPOS>BOND
     1    94    95    1
     2    97    96    2
     3    95    96    1
     4    95    98    1
     5    96   100   am
     6    98    99    1
     7   100   101    1
     8   101   102    1
     9   101   104    1
    10   103   102    2
    11   105   106    1
    12   105   104    1
    13   102   111   am
    14   106   107    1
    15   113   114    2
    16   113   112    1
    17   111   112    1
    18    33    31   ar
    19   109   108    1
    20   112   115    1
    21   107   108    2
    22    31    32   ar
    23    31    30    1
    24    65    66    1
    25   108   110    1
    26   115   116    1
    27   115   117    1
    28    71    70    2
    29    72    70   am
    30    30    27    1
    31    70    69    1
    32    66    69    1
    33    66    67    1
    34    26    27    1
    35    67    68    2
    36    27    28    1
    37    80    81    1
    38    80    79    1
    39    91    89   ar
    40    91    92   ar
    41    93    92    1
    42    14    12   ar
    43    14    13   ar
    44    12    10   ar
    45     4     3    2
    46    28    29    2
    47    89    87   ar
    48    92    90   ar
    49    78    79    1
    50    78    77    1
    51    13    11   ar
    52    10     9   ar
    53    10     8   ar
    54     3     2    1
    55     9     7   ar
    56    77    74    1
    57    11     8   ar
    58    90    88   ar
    59    87    88   ar
    60    87    86    1
    61     8     6   ar
    62    86    83    1
    63     7     6   ar
    64    73    74    1
    65     6     5    1
    66    40    38    1
    67     2     5    1
    68     2     1    1
    69    82    83    1
    70    82    75   am
    71    74    75    1
    72    38    39    1
    73    38    35    1
    74    85    84    2
    75    83    84    1
    76    75    76    2
    77    47    49   ar
    78    47    46   ar
    79    34    35    1
    80    45    46    1
    81    45    42    1
    82    49    50   ar
    83    35    36    1
    84    41    42    1
    85    41    36   am
    86    46    48   ar
    87    42    43    1
    88    36    37    2
    89    50    48   ar
    90    50    52   ar
    91    48    51   ar
    92    52    54   ar
    93    43    44    2
    94    51    53   ar
    95    54    53   ar
    96    25    23   ar
    97    25    24   ar
    98    23    21   ar
    99    24    22   ar
   100    59    60    1
   101    59    56    1
   102    60    62   ar
   103    60    61   ar
   104    62    64   ar
   105    61    63   ar
   106    64    63   ar
   107    55    56    1
   108    56    57    1
   109    21    20   ar
   110    22    20   ar
   111    20    19    1
   112    57    58    2
   113    19    16    1
   114    17    18    2
   115    17    16    1
   116    16    15    1
