@<TRIPOS>MOLECULE
tmp/4nlcA01.pdb
 100 100 0 0 0
SMALL
GASTEIGER

@<TRIPOS>ATOM
      1  N         40.0100  -12.0880   20.1930 N.3    17  PHE17      -0.1227
      2  CA        39.1960  -11.9630   18.9830 C.3    17  PHE17       0.1736
      3  C         38.1550  -13.0690   18.8810 C.2    17  PHE17       0.2595
      4  O         38.4930  -14.2390   19.0200 O.2    17  PHE17      -0.2718
      5  CB        40.0810  -11.8880   17.7040 C.3    17  PHE17       0.0547
      6  CG        39.3410  -11.8730   16.3820 C.ar   17  PHE17      -0.0202
      7  CD1       38.6430  -10.7420   15.9650 C.ar   17  PHE17      -0.0042
      8  CD2       39.3480  -12.9870   15.5480 C.ar   17  PHE17      -0.0042
      9  CE1       37.9670  -10.7260   14.7350 C.ar   17  PHE17      -0.0003
     10  CE2       38.6960  -12.9600   14.3070 C.ar   17  PHE17      -0.0003
     11  CZ        37.9940  -11.8330   13.9170 C.ar   17  PHE17      -0.0000
     12  N         36.8900  -12.6960   18.6770 N.am   18  ARG18      -0.1966
     13  CA        35.7980  -13.6470   18.4890 C.3    18  ARG18       0.1714
     14  C         35.2630  -13.4390   17.0750 C.2    18  ARG18       0.2458
     15  O         34.7400  -12.3610   16.7760 O.2    18  ARG18      -0.2730
     16  CB        34.6800  -13.4590   19.5180 C.3    18  ARG18       0.0347
     17  CG        33.6150  -14.5500   19.4090 C.3    18  ARG18       0.0492
     18  CD        32.3830  -14.2940   20.2570 C.3    18  ARG18       0.2205
     19  NE        32.6670  -14.3120   21.6930 N.pl3  18  ARG18      -0.0865
     20  CZ        32.6670  -15.4080   22.4470 C.cat  18  ARG18       0.5346
     21  NH1       32.3940  -16.5940   21.9100 N.pl3  18  ARG18       0.1354
     22  NH2       32.9430  -15.3280   23.7430 N.pl3  18  ARG18       0.1354
     23  N         35.4400  -14.4190   16.1710 N.am   19  PRO19      -0.2716
     24  CA        35.0040  -14.1990   14.7850 C.3    19  PRO19       0.1536
     25  C         33.5120  -14.3760   14.5510 C.2    19  PRO19       0.2598
     26  O         32.9210  -15.3190   15.0530 O.2    19  PRO19      -0.2715
     27  CB        35.8090  -15.2420   13.9990 C.3    19  PRO19       0.0310
     28  CG        36.0370  -16.3350   14.9580 C.3    19  PRO19       0.0237
     29  CD        36.1060  -15.7270   16.3320 C.3    19  PRO19       0.0939
     30  N         32.9180  -13.4580   13.8000 N.am   20  VAL20      -0.1978
     31  CA        31.5350  -13.5200   13.3230 C.3    20  VAL20       0.1596
     32  C         31.7630  -13.8430   11.8460 C.2    20  VAL20       0.2287
     33  O         32.5510  -13.1500   11.1900 O.2    20  VAL20      -0.2864
     34  CB        30.7310  -12.2010   13.5150 C.3    20  VAL20       0.0276
     35  CG1       29.3740  -12.2840   12.8180 C.3    20  VAL20       0.0022
     36  CG2       30.5420  -11.8870   15.0000 C.3    20  VAL20       0.0022
     37  N         30.2060  -16.0370    7.9590 N.3    22  TYR22      -0.1241
     38  CA        29.1870  -16.6520    7.1310 C.3    22  TYR22       0.1605
     39  C         29.6850  -17.9000    6.4000 C.2    22  TYR22       0.2264
     40  O         30.8350  -17.9500    5.9410 O.2    22  TYR22      -0.2867
     41  CB        28.6390  -15.6270    6.1420 C.3    22  TYR22       0.0534
     42  CG        27.7810  -14.5640    6.7930 C.ar   22  TYR22      -0.0201
     43  CD1       28.3540  -13.5290    7.5400 C.ar   22  TYR22      -0.0009
     44  CD2       26.3980  -14.5620    6.6300 C.ar   22  TYR22      -0.0009
     45  CE1       27.5670  -12.5360    8.1200 C.ar   22  TYR22       0.0417
     46  CE2       25.6060  -13.5560    7.1790 C.ar   22  TYR22       0.0417
     47  CZ        26.1940  -12.5490    7.9270 C.ar   22  TYR22       0.1957
     48  OH        25.4020  -11.5680    8.4720 O.3    22  TYR22      -0.2866
     49  N         32.2690   -3.2820    2.7550 N.3   126  ARG126     -0.1245
     50  CA        32.7880   -3.9200    3.9700 C.3   126  ARG126      0.1563
     51  C         31.7910   -4.8640    4.6070 C.2   126  ARG126      0.2260
     52  O         32.1340   -6.0170    4.8690 O.2   126  ARG126     -0.2867
     53  CB        33.2420   -2.8760    5.0080 C.3   126  ARG126      0.0307
     54  CG        33.8730   -3.4930    6.2640 C.3   126  ARG126      0.0489
     55  CD        34.2600   -2.3950    7.2340 C.3   126  ARG126      0.2205
     56  NE        34.5390   -2.8840    8.5840 N.pl3 126  ARG126     -0.0865
     57  CZ        35.7140   -3.3720    8.9720 C.cat 126  ARG126      0.5346
     58  NH1       36.7300   -3.4420    8.1140 N.pl3 126  ARG126      0.1354
     59  NH2       35.8870   -3.7880   10.2160 N.pl3 126  ARG126      0.1354
     60  N         40.0210  -12.4210    8.0180 N.3   156  GLN156     -0.1231
     61  CA        39.3190  -12.8240    9.2250 C.3   156  GLN156      0.1698
     62  C         38.8530  -11.6130   10.0100 C.2   156  GLN156      0.2592
     63  O         37.6640  -11.4560   10.2520 O.2   156  GLN156     -0.2718
     64  CB        40.1850  -13.7560   10.0930 C.3   156  GLN156      0.0381
     65  CG        40.5610  -15.0510    9.3880 C.3   156  GLN156      0.0905
     66  CD        41.4720  -15.9090   10.2240 C.2   156  GLN156      0.2608
     67  OE1       41.4680  -15.8490   11.4590 O.2   156  GLN156     -0.2717
     68  NE2       42.2320  -16.7740    9.5690 N.am  156  GLN156     -0.0878
     69  N         39.7880  -10.7680   10.4080 N.am  157  LYS157     -0.1966
     70  CA        39.5310   -9.5540   11.1790 C.3   157  LYS157      0.1728
     71  C         38.3970   -8.7230   10.5960 C.2   157  LYS157      0.2616
     72  O         37.4740   -8.3350   11.3170 O.2   157  LYS157     -0.2715
     73  CB        40.8330   -8.7150   11.2340 C.3   157  LYS157      0.0311
     74  CG        40.6830   -7.2480   11.6910 C.3   157  LYS157      0.0038
     75  CD        42.0320   -6.4740   11.6210 C.3   157  LYS157      0.0206
     76  CE        42.5600   -6.1510   10.2050 C.3   157  LYS157      0.1093
     77  NZ        43.9620   -5.6280   10.2400 N.3   157  LYS157     -0.1314
     78  N         38.4690   -8.4520    9.2860 N.am  158  ASP158     -0.1957
     79  CA        37.5480   -7.5370    8.6300 C.3   158  ASP158      0.1840
     80  C         36.2860   -8.1440    8.1020 C.2   158  ASP158      0.2622
     81  O         35.2820   -7.4420    8.0500 O.2   158  ASP158     -0.2715
     82  CB        38.2750   -6.7870    7.5080 C.3   158  ASP158      0.1450
     83  CG        39.3310   -5.8210    8.0350 C.2   158  ASP158      0.3671
     84  OD1       38.9730   -4.9400    8.8360 O.co2 158  ASP158     -0.2456
     85  OD2       40.5220   -5.9390    7.6190 O.co2 158  ASP158     -0.2456
     86  N         36.3320   -9.3870    7.6120 N.am  159  PHE159     -0.1960
     87  CA        35.1700   -9.9410    6.9100 C.3   159  PHE159      0.1771
     88  C         34.7000  -11.3520    7.2890 C.2   159  PHE159      0.2620
     89  O         33.8100  -11.8760    6.6150 O.2   159  PHE159     -0.2715
     90  CB        35.4720   -9.9340    5.3880 C.3   159  PHE159      0.0574
     91  CG        36.2630   -8.7620    4.8450 C.ar  159  PHE159     -0.0200
     92  CD1       35.7300   -7.4710    4.8610 C.ar  159  PHE159     -0.0042
     93  CD2       37.4940   -8.9620    4.2240 C.ar  159  PHE159     -0.0042
     94  CE1       36.4460   -6.3910    4.3230 C.ar  159  PHE159     -0.0003
     95  CE2       38.2090   -7.8830    3.6870 C.ar  159  PHE159     -0.0003
     96  CZ        37.6780   -6.6070    3.7320 C.ar  159  PHE159     -0.0000
     97  N         35.3420  -11.9900    8.2640 N.am  160  GLY160     -0.1954
     98  CA        35.0430  -13.3810    8.6040 C.3   160  GLY160      0.1869
     99  C         35.2260  -14.3070    7.4040 C.2   160  GLY160      0.2309
    100  O         34.4640  -15.2670    7.2420 O.2   160  GLY160     -0.2863
@<TRIPOS>BOND
     1    49    50    1
     2    95    96   ar
     3    95    93   ar
     4    96    94   ar
     5    50    51    1
     6    50    53    1
     7    93    91   ar
     8    94    92   ar
     9    51    52    2
    10    91    92   ar
    11    91    90    1
    12    53    54    1
    13    90    87    1
    14    40    39    2
    15    41    42    1
    16    41    38    1
    17    54    55    1
    18    39    38    1
    19    89    88    2
    20    44    42   ar
    21    44    46   ar
    22    42    43   ar
    23    87    88    1
    24    87    86    1
    25    38    37    1
    26    46    47   ar
    27    55    56    1
    28   100    99    2
    29    88    97   am
    30    99    98    1
    31    82    83    1
    32    82    79    1
    33    43    45   ar
    34    86    80   am
    35    85    83   ar
    36    47    45   ar
    37    47    48    1
    38    60    61    1
    39    83    84   ar
    40    81    80    2
    41    80    79    1
    42    58    57    1
    43    97    98    1
    44    56    57    2
    45    79    78    1
    46    57    59    1
    47    61    62    1
    48    61    64    1
    49    78    71   am
    50    65    64    1
    51    65    66    1
    52    68    66   am
    53    62    63    2
    54    62    69   am
    55    76    77    1
    56    76    75    1
    57    66    67    2
    58    69    70    1
    59    71    70    1
    60    71    72    2
    61    70    73    1
    62    33    32    2
    63    73    74    1
    64    75    74    1
    65    32    31    1
    66    35    34    1
    67    31    34    1
    68    31    30    1
    69    34    36    1
    70    30    25   am
    71    11    10   ar
    72    11     9   ar
    73    27    24    1
    74    27    28    1
    75    10     8   ar
    76    25    24    1
    77    25    26    2
    78     9     7   ar
    79    24    23    1
    80    28    29    1
    81     8     6   ar
    82     7     6   ar
    83    23    29    1
    84    23    14   am
    85     6     5    1
    86    15    14    2
    87    14    13    1
    88     5     2    1
    89    13    12    1
    90    13    16    1
    91    12     3   am
    92     3     2    1
    93     3     4    2
    94     2     1    1
    95    17    16    1
    96    17    18    1
    97    18    19    1
    98    19    20    2
    99    21    20    1
   100    20    22    1
