@<TRIPOS>MOLECULE
tmp/4nlcA00.pdb
 93 91 0 0 0
SMALL
GASTEIGER

@<TRIPOS>ATOM
      1  N         46.9350    0.9230    8.2600 N.3    98  ASP98      -0.1239
      2  CA        47.2630    0.6660    9.6520 C.3    98  ASP98       0.1674
      3  C         47.5580    1.8990   10.4800 C.2    98  ASP98       0.2266
      4  O         47.5900    1.7660   11.6950 O.2    98  ASP98      -0.2867
      5  CB        48.4340   -0.3530    9.7650 C.3    98  ASP98       0.1410
      6  CG        49.7290    0.0110    9.0540 C.2    98  ASP98       0.3668
      7  OD1       50.1590    1.1770    9.1610 O.co2  98  ASP98      -0.2456
      8  OD2       50.3450   -0.8890    8.4470 O.co2  98  ASP98      -0.2456
      9  N         43.5050    1.3690   15.0370 N.3   102  TYR102     -0.1227
     10  CA        44.1960    0.5690   16.0520 C.3   102  TYR102      0.1736
     11  C         44.5870   -0.8090   15.5340 C.2   102  TYR102      0.2595
     12  O         45.7640   -1.1450   15.5400 O.2   102  TYR102     -0.2718
     13  CB        43.3880    0.4590   17.3450 C.3   102  TYR102      0.0548
     14  CG        44.2060   -0.1960   18.4250 C.ar  102  TYR102     -0.0200
     15  CD1       45.2260    0.5000   19.0740 C.ar  102  TYR102     -0.0009
     16  CD2       44.0210   -1.5380   18.7490 C.ar  102  TYR102     -0.0009
     17  CE1       46.0380   -0.1230   20.0210 C.ar  102  TYR102      0.0417
     18  CE2       44.8210   -2.1670   19.7030 C.ar  102  TYR102      0.0417
     19  CZ        45.8230   -1.4550   20.3390 C.ar  102  TYR102      0.1957
     20  OH        46.5910   -2.0780   21.2910 O.3   102  TYR102     -0.2866
     21  N         43.6110   -1.5960   15.0800 N.am  103  GLN103     -0.1979
     22  CA        43.8720   -2.9330   14.5570 C.3   103  GLN103      0.1601
     23  C         44.2190   -2.8790   13.0880 C.2   103  GLN103      0.2287
     24  O         44.8190   -3.8150   12.5650 O.2   103  GLN103     -0.2864
     25  CB        42.6530   -3.8550   14.7610 C.3   103  GLN103      0.0394
     26  CG        42.2990   -4.1320   16.2330 C.3   103  GLN103      0.0908
     27  CD        41.0680   -4.9970   16.3490 C.2   103  GLN103      0.2608
     28  OE1       41.0000   -6.1150   15.8270 O.2   103  GLN103     -0.2717
     29  NE2       40.0350   -4.4600   16.9610 N.am  103  GLN103     -0.0878
     30  N         45.7280   -6.9520   18.4540 N.3   258  PRO258     -0.2102
     31  CA        46.9970   -6.4780   19.0340 C.3   258  PRO258      0.1504
     32  C         46.9700   -6.6310   20.5600 C.2   258  PRO258      0.2576
     33  O         45.9910   -6.3050   21.2320 O.2   258  PRO258     -0.2718
     34  CB        47.0690   -5.0220   18.5770 C.3   258  PRO258      0.0282
     35  CG        46.2880   -4.9980   17.3080 C.3   258  PRO258      0.0208
     36  CD        45.1330   -5.9160   17.5890 C.3   258  PRO258      0.0893
     37  N         48.0330   -7.2350   21.0620 N.am  259  HIS259     -0.1962
     38  CA        48.2910   -7.6890   22.4280 C.3   259  HIS259      0.1787
     39  C         49.1010   -6.6870   23.2760 C.2   259  HIS259      0.2620
     40  O         50.3140   -6.5480   23.0710 O.2   259  HIS259     -0.2715
     41  CB        49.0490   -9.0240   22.2960 C.3   259  HIS259      0.0785
     42  CG        49.4370   -9.2980   20.8650 C.ar  259  HIS259      0.0821
     43  ND1       50.3810   -8.5110   20.2040 N.ar  259  HIS259     -0.2267
     44  CD2       48.9150  -10.1850   19.9800 C.ar  259  HIS259      0.1154
     45  CE1       50.4250   -8.9680   18.9620 C.ar  259  HIS259      0.1986
     46  NE2       49.5650   -9.9770   18.7770 N.ar  259  HIS259     -0.2212
     47  N         48.4370   -5.9830   24.2150 N.am  260  LEU260     -0.1977
     48  CA        49.1460   -5.0440   25.1000 C.3   260  LEU260      0.1596
     49  C         49.4860   -5.7210   26.4120 C.2   260  LEU260      0.2287
     50  O         48.5900   -6.0770   27.1830 O.2   260  LEU260     -0.2864
     51  CB        48.3710   -3.7290   25.3580 C.3   260  LEU260      0.0297
     52  CG        49.0710   -2.5620   26.1430 C.3   260  LEU260      0.0022
     53  CD1       48.9290   -2.6850   27.6460 C.3   260  LEU260      0.0001
     54  CD2       50.5050   -2.2560   25.6630 C.3   260  LEU260      0.0001
     55  N         55.3110   -4.9710   26.7380 N.3   265  THR265     -0.1218
     56  CA        55.2160   -4.2660   25.4340 C.3   265  THR265      0.1862
     57  C         56.0760   -2.9960   25.3400 C.2   265  THR265      0.2287
     58  O         56.7890   -2.8400   24.3420 O.2   265  THR265     -0.2866
     59  CB        53.7590   -3.9880   25.0090 C.3   265  THR265      0.1770
     60  OG1       52.9840   -5.1700   25.1660 O.3   265  THR265     -0.2211
     61  CG2       53.6430   -3.5490   23.5500 C.3   265  THR265      0.0375
     62  N         53.6380    4.9510   27.8400 N.3   289  PHE289     -0.1241
     63  CA        53.4520    3.9260   26.8310 C.3   289  PHE289      0.1605
     64  C         52.1290    3.1840   27.0270 C.2   289  PHE289      0.2264
     65  O         51.4300    2.9250   26.0520 O.2   289  PHE289     -0.2867
     66  CB        54.6580    2.9600   26.7710 C.3   289  PHE289      0.0534
     67  CG        54.6110    2.0730   25.5430 C.ar  289  PHE289     -0.0203
     68  CD1       53.8660    0.8930   25.5400 C.ar  289  PHE289     -0.0042
     69  CD2       55.2420    2.4550   24.3660 C.ar  289  PHE289     -0.0042
     70  CE1       53.7800    0.1000   24.3860 C.ar  289  PHE289     -0.0003
     71  CE2       55.1760    1.6470   23.2250 C.ar  289  PHE289     -0.0003
     72  CZ        54.4390    0.4810   23.2390 C.ar  289  PHE289     -0.0000
     73  N         48.7440    3.3540   24.5050 N.3   293  ASP293     -0.1239
     74  CA        48.0190    2.2150   23.9560 C.3   293  ASP293      0.1674
     75  C         46.5160    2.3160   24.2700 C.2   293  ASP293      0.2266
     76  O         45.7150    2.0980   23.3780 O.2   293  ASP293     -0.2867
     77  CB        48.6210    0.8850   24.4090 C.3   293  ASP293      0.1410
     78  CG        48.0010   -0.2830   23.6620 C.2   293  ASP293      0.3668
     79  OD1       48.4360   -0.5610   22.5230 O.co2 293  ASP293     -0.2456
     80  OD2       47.0630   -0.8910   24.2000 O.co2 293  ASP293     -0.2456
     81  N         46.3370    4.0880   15.4540 N.3   302  SER302     -0.1203
     82  CA        47.4750    3.2570   15.8500 C.3   302  SER302      0.2005
     83  C         48.2150    4.0100   16.9900 C.2   302  SER302      0.2460
     84  O         48.1150    5.2450   17.0320 O.2   302  SER302     -0.2732
     85  CB        48.4190    3.0180   14.6760 C.3   302  SER302      0.2103
     86  OG        49.1070    4.2040   14.3270 O.3   302  SER302     -0.2182
     87  N         48.9420    3.3280   17.9140 N.am  303  PRO303     -0.2728
     88  CA        49.7110    4.0700   18.9360 C.3   303  PRO303      0.1401
     89  C         50.6160    5.1770   18.3400 C.2   303  PRO303      0.2269
     90  O         50.7220    6.2340   18.9340 O.2   303  PRO303     -0.2865
     91  CB        50.5070    2.9600   19.6460 C.3   303  PRO303      0.0296
     92  CG        49.6700    1.7480   19.4720 C.3   303  PRO303      0.0237
     93  CD        49.1810    1.8770   18.0410 C.3   303  PRO303      0.0939
@<TRIPOS>BOND
     1     1     2    1
     2     8     6   ar
     3     6     7   ar
     4     6     5    1
     5     2     5    1
     6     2     3    1
     7     3     4    2
     8    24    23    2
     9    23    22    1
    10    86    85    1
    11    22    25    1
    12    22    21    1
    13    85    82    1
    14    25    26    1
    15     9    10    1
    16    21    11   am
    17    81    82    1
    18    11    12    2
    19    11    10    1
    20    28    27    2
    21    82    83    1
    22    10    13    1
    23    26    27    1
    24    27    29   am
    25    83    84    2
    26    83    87   am
    27    35    36    1
    28    35    34    1
    29    13    14    1
    30    36    30    1
    31    87    93    1
    32    87    88    1
    33    93    92    1
    34    89    90    2
    35    89    88    1
    36    14    16   ar
    37    14    15   ar
    38    30    31    1
    39    34    31    1
    40    16    18   ar
    41    46    45   ar
    42    46    44   ar
    43    88    91    1
    44    45    43   ar
    45    31    32    1
    46    15    17   ar
    47    92    91    1
    48    18    19   ar
    49    44    42   ar
    50    17    19   ar
    51    43    42   ar
    52    19    20    1
    53    32    37   am
    54    32    33    2
    55    42    41    1
    56    37    38    1
    57    41    38    1
    58    38    39    1
    59    79    78   ar
    60    40    39    2
    61    71    72   ar
    62    71    69   ar
    63    72    70   ar
    64    39    47   am
    65    76    75    2
    66    61    59    1
    67    78    80   ar
    68    78    77    1
    69    74    75    1
    70    74    77    1
    71    74    73    1
    72    47    48    1
    73    58    57    2
    74    69    67   ar
    75    70    68   ar
    76    59    60    1
    77    59    56    1
    78    48    51    1
    79    48    49    1
    80    57    56    1
    81    51    52    1
    82    56    55    1
    83    68    67   ar
    84    67    66    1
    85    54    52    1
    86    65    64    2
    87    52    53    1
    88    49    50    2
    89    66    63    1
    90    63    64    1
    91    63    62    1
