@<TRIPOS>MOLECULE
tmp/4nldA03.pdb
 98 95 0 0 0
SMALL
GASTEIGER

@<TRIPOS>ATOM
      1  N         42.5120   35.6490   66.2890 N.3   152  VAL152     -0.1245
      2  CA        43.2240   36.6000   65.4280 C.3   152  VAL152      0.1561
      3  C         43.3540   37.9450   66.1400 C.2   152  VAL152      0.2260
      4  O         44.4590   38.5000   66.1760 O.2   152  VAL152     -0.2867
      5  CB        42.6040   36.7080   64.0100 C.3   152  VAL152      0.0252
      6  CG1       43.2060   37.8720   63.2200 C.3   152  VAL152      0.0019
      7  CG2       42.7700   35.4020   63.2510 C.3   152  VAL152      0.0019
      8  N         45.9590   37.5650   68.8320 N.3   155  TRP155     -0.1227
      9  CA        47.2700   37.4780   68.1790 C.3   155  TRP155      0.1737
     10  C         47.7560   38.8980   67.7650 C.2   155  TRP155      0.2595
     11  O         48.8950   39.2700   68.0690 O.2   155  TRP155     -0.2718
     12  CB        47.1990   36.5270   66.9730 C.3   155  TRP155      0.0564
     13  CG        48.5410   36.1500   66.4110 C.ar  155  TRP155      0.0003
     14  CD1       49.1780   36.7310   65.3530 C.ar  155  TRP155      0.0946
     15  CD2       49.4330   35.1350   66.9090 C.ar  155  TRP155      0.0152
     16  NE1       50.4080   36.1390   65.1570 N.ar  155  TRP155     -0.2442
     17  CE2       50.5900   35.1540   66.0960 C.ar  155  TRP155      0.0810
     18  CE3       49.3690   34.2120   67.9660 C.ar  155  TRP155      0.0012
     19  CZ2       51.6910   34.3120   66.3350 C.ar  155  TRP155      0.0191
     20  CZ3       50.4380   33.3490   68.1700 C.ar  155  TRP155      0.0001
     21  CH2       51.5830   33.4050   67.3620 C.ar  155  TRP155      0.0015
     22  N         46.8720   39.6980   67.1350 N.am  156  LYS156     -0.1980
     23  CA        47.1410   41.0810   66.6910 C.3   156  LYS156      0.1596
     24  C         47.3820   42.0360   67.8610 C.2   156  LYS156      0.2287
     25  O         48.0490   43.0490   67.6840 O.2   156  LYS156     -0.2864
     26  CB        45.9640   41.6360   65.8570 C.3   156  LYS156      0.0298
     27  CG        45.8500   41.1160   64.4290 C.3   156  LYS156      0.0038
     28  CD        44.5720   41.6240   63.7590 C.3   156  LYS156      0.0206
     29  CE        44.4680   41.2770   62.2890 C.3   156  LYS156      0.1093
     30  NZ        43.0960   41.5210   61.7490 N.3   156  LYS156     -0.1314
     31  N         53.9910   31.7050   64.4970 N.3   301  ASP301     -0.1225
     32  CA        52.9630   31.8690   63.4790 C.3   301  ASP301      0.1805
     33  C         51.6930   31.2190   64.0620 C.2   301  ASP301      0.2598
     34  O         51.7300   30.0260   64.4010 O.2   301  ASP301     -0.2718
     35  CB        53.3500   31.1690   62.1520 C.3   301  ASP301      0.1424
     36  CG        52.3620   31.3540   61.0000 C.2   301  ASP301      0.3668
     37  OD1       51.4230   32.1830   61.1390 O.co2 301  ASP301     -0.2456
     38  OD2       52.5320   30.6830   59.9590 O.co2 301  ASP301     -0.2456
     39  N         50.5690   31.9860   64.1360 N.am  302  LEU302     -0.1966
     40  CA        49.2960   31.4710   64.6410 C.3   302  LEU302      0.1728
     41  C         48.8680   30.2020   63.8950 C.2   302  LEU302      0.2616
     42  O         48.3770   29.2810   64.5330 O.2   302  LEU302     -0.2715
     43  CB        48.1960   32.5620   64.6140 C.3   302  LEU302      0.0311
     44  CG        46.7550   32.1780   65.0610 C.3   302  LEU302      0.0022
     45  CD1       46.7220   31.6230   66.4650 C.3   302  LEU302      0.0001
     46  CD2       45.8110   33.3710   64.9460 C.3   302  LEU302      0.0001
     47  N         49.1530   30.1190   62.5690 N.am  303  GLU303     -0.1977
     48  CA        48.7990   28.9830   61.7030 C.3   303  GLU303      0.1602
     49  C         49.3910   27.6510   62.1640 C.2   303  GLU303      0.2287
     50  O         48.7720   26.6080   61.9380 O.2   303  GLU303     -0.2864
     51  CB        49.1570   29.2790   60.2310 C.3   303  GLU303      0.0415
     52  CG        48.6310   28.2970   59.1810 C.3   303  GLU303      0.1163
     53  CD        48.5000   28.7480   57.7280 C.2   303  GLU303      0.3649
     54  OE1       48.0770   27.9090   56.8890 O.co2 303  GLU303     -0.2457
     55  OE2       48.7890   29.9370   57.4350 O.co2 303  GLU303     -0.2457
     56  N         44.2700   27.6140   62.3760 N.3   312  VAL312     -0.1231
     57  CA        43.8290   28.7820   61.6510 C.3   312  VAL312      0.1692
     58  C         44.5950   28.8270   60.3460 C.2   312  VAL312      0.2593
     59  O         45.7760   28.5170   60.3220 O.2   312  VAL312     -0.2718
     60  CB        44.0640   30.0500   62.5040 C.3   312  VAL312      0.0266
     61  CG1       43.8570   31.3410   61.7000 C.3   312  VAL312      0.0020
     62  CG2       43.1890   30.0370   63.7480 C.3   312  VAL312      0.0020
     63  N         43.9270   29.1930   59.2600 N.am  313  SER313     -0.1938
     64  CA        44.5440   29.4200   57.9530 C.3   313  SER313      0.2055
     65  C         43.9030   30.6920   57.3460 C.2   313  SER313      0.2642
     66  O         42.9520   31.2520   57.9140 O.2   313  SER313     -0.2714
     67  CB        44.4010   28.1920   57.0600 C.3   313  SER313      0.2130
     68  OG        45.2400   28.2880   55.9170 O.3   313  SER313     -0.2179
     69  N         44.4590   31.1620   56.2350 N.am  314  VAL314     -0.1977
     70  CA        44.0710   32.3750   55.5040 C.3   314  VAL314      0.1596
     71  C         43.5400   32.0540   54.1050 C.2   314  VAL314      0.2287
     72  O         43.9830   31.0980   53.4540 O.2   314  VAL314     -0.2864
     73  CB        45.2740   33.3600   55.3640 C.3   314  VAL314      0.0276
     74  CG1       44.8010   34.7520   54.9500 C.3   314  VAL314      0.0022
     75  CG2       46.0860   33.4490   56.6490 C.3   314  VAL314      0.0022
     76  N         41.7100   39.6120   53.4020 N.3   322  ARG322     -0.1245
     77  CA        42.0770   38.4040   54.1450 C.3   322  ARG322      0.1563
     78  C         40.9030   37.9320   55.0180 C.2   322  ARG322      0.2260
     79  O         40.2410   38.7330   55.6870 O.2   322  ARG322     -0.2867
     80  CB        43.2610   38.6750   55.0670 C.3   322  ARG322      0.0307
     81  CG        44.6270   38.4630   54.4900 C.3   322  ARG322      0.0489
     82  CD        45.6390   38.5730   55.6260 C.3   322  ARG322      0.2205
     83  NE        46.9140   37.9170   55.3280 N.pl3 322  ARG322     -0.0865
     84  CZ        47.8130   37.5690   56.2450 C.cat 322  ARG322      0.5346
     85  NH1       47.5860   37.8010   57.5310 N.pl3 322  ARG322      0.1354
     86  NH2       48.9360   36.9700   55.8850 N.pl3 322  ARG322      0.1354
     87  N         40.1610   34.7570   57.7560 N.3   324  TYR324     -0.1241
     88  CA        40.7320   33.7160   58.5720 C.3   324  TYR324      0.1605
     89  C         39.6780   32.6550   58.8030 C.2   324  TYR324      0.2264
     90  O         38.4870   32.9770   58.9070 O.2   324  TYR324     -0.2867
     91  CB        41.2640   34.3120   59.8710 C.3   324  TYR324      0.0534
     92  CG        42.3110   35.3740   59.6140 C.ar  324  TYR324     -0.0201
     93  CD1       43.6380   35.0300   59.3580 C.ar  324  TYR324     -0.0009
     94  CD2       41.9700   36.7250   59.5880 C.ar  324  TYR324     -0.0009
     95  CE1       44.5980   36.0080   59.0830 C.ar  324  TYR324      0.0417
     96  CE2       42.9290   37.7120   59.3600 C.ar  324  TYR324      0.0417
     97  CZ        44.2350   37.3510   59.0880 C.ar  324  TYR324      0.1957
     98  OH        45.1410   38.3460   58.8230 O.3   324  TYR324     -0.2866
@<TRIPOS>BOND
     1    76    77    1
     2    72    71    2
     3    71    70    1
     4    77    78    1
     5    77    80    1
     6    81    80    1
     7    81    82    1
     8    74    73    1
     9    78    79    2
    10    83    82    1
    11    83    84    2
    12    73    70    1
    13    73    75    1
    14    70    69    1
    15    86    84    1
    16    68    67    1
    17    69    65   am
    18    84    85    1
    19    54    53   ar
    20    67    64    1
    21    65    66    2
    22    65    64    1
    23    55    53   ar
    24    53    52    1
    25    87    88    1
    26    64    63    1
    27    88    89    1
    28    88    91    1
    29    89    90    2
    30    98    97    1
    31    95    97   ar
    32    95    93   ar
    33    97    96   ar
    34    52    51    1
    35    63    58   am
    36    93    92   ar
    37    96    94   ar
    38    94    92   ar
    39    92    91    1
    40    38    36   ar
    41    51    48    1
    42    59    58    2
    43    58    57    1
    44    36    37   ar
    45    36    35    1
    46    57    56    1
    47    57    60    1
    48    61    60    1
    49    48    49    1
    50    48    47    1
    51    30    29    1
    52    50    49    2
    53    35    32    1
    54    29    28    1
    55    60    62    1
    56    47    41   am
    57     6     5    1
    58     7     5    1
    59    32    33    1
    60    32    31    1
    61    28    27    1
    62    41    42    2
    63    41    40    1
    64     5     2    1
    65    33    39   am
    66    33    34    2
    67    39    40    1
    68    27    26    1
    69    43    40    1
    70    43    44    1
    71    46    44    1
    72    44    45    1
    73    16    14   ar
    74    16    17   ar
    75    14    13   ar
    76     2     3    1
    77     2     1    1
    78    26    23    1
    79    17    19   ar
    80    17    15   ar
    81     3     4    2
    82    19    21   ar
    83    13    15   ar
    84    13    12    1
    85    23    22    1
    86    23    24    1
    87    15    18   ar
    88    12     9    1
    89    22    10   am
    90    21    20   ar
    91    25    24    2
    92    10    11    2
    93    10     9    1
    94    18    20   ar
    95     9     8    1
