@<TRIPOS>MOLECULE
tmp/4nldA00.pdb
 123 120 0 0 0
SMALL
GASTEIGER

@<TRIPOS>ATOM
      1  N         37.8520   12.5410   55.3030 N.3   334  LEU334     -0.1231
      2  CA        37.6630   11.8710   54.0040 C.3   334  LEU334      0.1693
      3  C         37.4680   10.3790   54.1600 C.2   334  LEU334      0.2591
      4  O         36.5650    9.8140   53.5400 O.2   334  LEU334     -0.2718
      5  CB        38.7960   12.1730   52.9940 C.3   334  LEU334      0.0284
      6  CG        39.0170   13.6250   52.5450 C.3   334  LEU334      0.0019
      7  CD1       40.0210   13.6740   51.4210 C.3   334  LEU334      0.0001
      8  CD2       37.7200   14.3100   52.1160 C.3   334  LEU334      0.0001
      9  N         38.2900    9.7480   55.0070 N.am  335  ALA335     -0.1980
     10  CA        38.2080    8.3170   55.2740 C.3   335  ALA335      0.1597
     11  C         36.8190    7.9320   55.8430 C.2   335  ALA335      0.2287
     12  O         36.2090    6.9630   55.3590 O.2   335  ALA335     -0.2864
     13  CB        39.3310    7.8870   56.2150 C.3   335  ALA335      0.0319
     14  N         34.0300    9.7460   55.4830 N.3   337  ALA337     -0.1231
     15  CA        33.0560   10.0460   54.4300 C.3   337  ALA337      0.1694
     16  C         33.0630    8.9060   53.4000 C.2   337  ALA337      0.2591
     17  O         31.9960    8.5790   52.8820 O.2   337  ALA337     -0.2718
     18  CB        33.3750   11.3720   53.7670 C.3   337  ALA337      0.0304
     19  N         34.2480    8.2790   53.1310 N.am  338  ALA338     -0.1980
     20  CA        34.3650    7.1340   52.1980 C.3   338  ALA338      0.1597
     21  C         33.5460    5.9740   52.7470 C.2   338  ALA338      0.2287
     22  O         32.7620    5.3800   52.0170 O.2   338  ALA338     -0.2864
     23  CB        35.8170    6.7180   52.0130 C.3   338  ALA338      0.0319
     24  N         29.8860    6.6060   52.2090 N.3   341  THR341     -0.1203
     25  CA        29.4830    6.4390   50.8030 C.3   341  THR341      0.1994
     26  C         29.0320    4.9700   50.6030 C.2   341  THR341      0.2617
     27  O         28.1100    4.6990   49.8240 O.2   341  THR341     -0.2717
     28  CB        30.6350    6.8180   49.8580 C.3   341  THR341      0.1784
     29  OG1       30.9830    8.1830   50.0740 O.3   341  THR341     -0.2211
     30  CG2       30.2860    6.6420   48.3970 C.3   341  THR341      0.0376
     31  N         29.6770    4.0390   51.3230 N.am  342  ALA342     -0.1979
     32  CA        29.3940    2.6160   51.2290 C.3   342  ALA342      0.1597
     33  C         28.3150    2.1590   52.2090 C.2   342  ALA342      0.2287
     34  O         27.5220    1.2810   51.8820 O.2   342  ALA342     -0.2864
     35  CB        30.6680    1.8270   51.4570 C.3   342  ALA342      0.0319
     36  N         35.3960   18.8020   47.7860 N.3   366  ILE366     -0.1231
     37  CA        35.2310   17.3660   47.8070 C.3   366  ILE366      0.1692
     38  C         33.9360   16.9580   48.4760 C.2   366  ILE366      0.2591
     39  O         33.1210   16.3260   47.8180 O.2   366  ILE366     -0.2718
     40  CB        36.4870   16.6470   48.3970 C.3   366  ILE366      0.0266
     41  CG1       37.7650   17.0390   47.6150 C.3   366  ILE366      0.0019
     42  CG2       36.3190   15.1310   48.3560 C.3   366  ILE366      0.0020
     43  CD1       38.8580   17.4220   48.4680 C.3   366  ILE366      0.0001
     44  N         33.7490   17.2760   49.7730 N.am  367  LEU367     -0.1980
     45  CA        32.5660   16.8120   50.5060 C.3   367  LEU367      0.1596
     46  C         31.2480   17.3400   49.9460 C.2   367  LEU367      0.2287
     47  O         30.3520   16.5230   49.7000 O.2   367  LEU367     -0.2864
     48  CB        32.6620   17.0720   52.0150 C.3   367  LEU367      0.0297
     49  CG        33.8170   16.4130   52.7840 C.3   367  LEU367      0.0022
     50  CD1       33.7880   16.8190   54.2130 C.3   367  LEU367      0.0001
     51  CD2       33.7490   14.9200   52.6910 C.3   367  LEU367      0.0001
     52  N         30.7480   15.7110   46.2650 N.3   370  HIS370     -0.1226
     53  CA        30.4610   14.2960   46.3390 C.3   370  HIS370      0.1752
     54  C         29.0850   13.9450   46.9450 C.2   370  HIS370      0.2596
     55  O         28.3350   13.1680   46.3580 O.2   370  HIS370     -0.2718
     56  CB        31.5900   13.5730   47.0770 C.3   370  HIS370      0.0759
     57  CG        31.4810   12.0950   46.9820 C.ar  370  HIS370      0.0818
     58  ND1       31.7450   11.4250   45.7890 N.ar  370  HIS370     -0.2268
     59  CD2       31.0970   11.2020   47.9220 C.ar  370  HIS370      0.1154
     60  CE1       31.5280   10.1500   46.0560 C.ar  370  HIS370      0.1986
     61  NE2       31.1480    9.9640   47.3310 N.ar  370  HIS370     -0.2212
     62  N         28.7420   14.5310   48.0870 N.am  371  PHE371     -0.1976
     63  CA        27.4750   14.2130   48.7310 C.3   371  PHE371      0.1639
     64  C         26.2320   14.8250   48.0410 C.2   371  PHE371      0.2290
     65  O         25.2080   14.1430   47.9660 O.2   371  PHE371     -0.2864
     66  CB        27.5290   14.5090   50.2180 C.3   371  PHE371      0.0560
     67  CG        28.3280   13.3990   50.8620 C.ar  371  PHE371     -0.0200
     68  CD1       27.7400   12.1610   51.1370 C.ar  371  PHE371     -0.0042
     69  CD2       29.6960   13.5480   51.0930 C.ar  371  PHE371     -0.0042
     70  CE1       28.4970   11.1090   51.6630 C.ar  371  PHE371     -0.0003
     71  CE2       30.4490   12.4920   51.6130 C.ar  371  PHE371     -0.0003
     72  CZ        29.8410   11.2860   51.9050 C.ar  371  PHE371     -0.0000
     73  N         45.2450    8.8710   49.0990 N.3   434  LEU434     -0.1231
     74  CA        43.9990    8.1100   49.2650 C.3   434  LEU434      0.1693
     75  C         43.3880    7.6260   47.9620 C.2   434  LEU434      0.2593
     76  O         42.3830    6.9190   47.9950 O.2   434  LEU434     -0.2718
     77  CB        42.9610    8.9070   50.0860 C.3   434  LEU434      0.0284
     78  CG        43.3450    9.4190   51.4920 C.3   434  LEU434      0.0019
     79  CD1       42.3420   10.4680   51.9870 C.3   434  LEU434      0.0001
     80  CD2       43.3620    8.3300   52.4670 C.3   434  LEU434      0.0001
     81  N         43.9640    8.0050   46.8310 N.am  435  GLY435     -0.1942
     82  CA        43.4290    7.6030   45.5320 C.3   435  GLY435      0.2014
     83  C         42.1920    8.3770   45.1220 C.2   435  GLY435      0.2639
     84  O         41.3770    7.9070   44.3130 O.2   435  GLY435     -0.2714
     85  N         42.0540    9.5810   45.6730 N.am  436  VAL436     -0.1963
     86  CA        40.9230   10.4430   45.3930 C.3   436  VAL436      0.1712
     87  C         41.2790   11.2810   44.1530 C.2   436  VAL436      0.2458
     88  O         42.4220   11.7350   44.0580 O.2   436  VAL436     -0.2730
     89  CB        40.6060   11.3330   46.6280 C.3   436  VAL436      0.0289
     90  CG1       39.3560   12.1970   46.4100 C.3   436  VAL436      0.0023
     91  CG2       40.4840   10.4980   47.8940 C.3   436  VAL436      0.0023
     92  N         40.3400   11.5270   43.2030 N.am  437  PRO437     -0.2727
     93  CA        40.6720   12.3880   42.0610 C.3   437  PRO437      0.1402
     94  C         41.1710   13.7760   42.4870 C.2   437  PRO437      0.2269
     95  O         40.7950   14.2910   43.5580 O.2   437  PRO437     -0.2865
     96  CB        39.3460   12.4970   41.3160 C.3   437  PRO437      0.0296
     97  CG        38.5660   11.3300   41.7160 C.3   437  PRO437      0.0237
     98  CD        38.9330   11.0780   43.1310 C.3   437  PRO437      0.0939
     99  N         37.1480   17.5980   40.6690 N.3   442  TRP442     -0.1241
    100  CA        36.0720   18.0590   41.5350 C.3   442  TRP442      0.1605
    101  C         35.3900   19.3090   41.0020 C.2   442  TRP442      0.2264
    102  O         34.1680   19.3970   41.1040 O.2   442  TRP442     -0.2867
    103  CB        36.5690   18.2170   42.9710 C.3   442  TRP442      0.0550
    104  CG        36.9190   16.8890   43.5800 C.ar  442  TRP442      0.0003
    105  CD1       38.1720   16.3910   43.8090 C.ar  442  TRP442      0.0946
    106  CD2       36.0000   15.8330   43.9090 C.ar  442  TRP442      0.0152
    107  NE1       38.0870   15.1130   44.3220 N.ar  442  TRP442     -0.2442
    108  CE2       36.7640   14.7490   44.3970 C.ar  442  TRP442      0.0810
    109  CE3       34.5990   15.7170   43.8880 C.ar  442  TRP442      0.0012
    110  CZ2       36.1680   13.5650   44.8590 C.ar  442  TRP442      0.0191
    111  CZ3       34.0140   14.5400   44.3270 C.ar  442  TRP442      0.0001
    112  CH2       34.7900   13.4880   44.8210 C.ar  442  TRP442      0.0015
    113  N         33.0660   18.0840   38.2060 N.3   445  ARG445     -0.1245
    114  CA        31.9160   17.4340   38.8150 C.3   445  ARG445      0.1563
    115  C         30.9420   18.4360   39.4660 C.2   445  ARG445      0.2260
    116  O         29.7260   18.2770   39.3130 O.2   445  ARG445     -0.2867
    117  CB        32.3540   16.3590   39.8110 C.3   445  ARG445      0.0307
    118  CG        33.0510   15.1900   39.1590 C.3   445  ARG445      0.0489
    119  CD        33.4880   14.1660   40.1820 C.3   445  ARG445      0.2205
    120  NE        34.3890   13.1800   39.5970 N.pl3 445  ARG445     -0.0865
    121  CZ        34.8530   12.1080   40.2270 C.cat 445  ARG445      0.5346
    122  NH1       34.4950   11.8560   41.4780 N.pl3 445  ARG445      0.1354
    123  NH2       35.6820   11.2800   39.6110 N.pl3 445  ARG445      0.1354
@<TRIPOS>BOND
     1   113   114    1
     2   114   115    1
     3   114   117    1
     4   118   117    1
     5   118   119    1
     6   116   115    2
     7   120   119    1
     8   120   121    2
     9   123   121    1
    10   121   122    1
    11    99   100    1
    12   101   102    2
    13   101   100    1
    14    96    97    1
    15    96    93    1
    16   100   103    1
    17    97    98    1
    18    93    94    1
    19    93    92    1
    20    94    95    2
    21   103   104    1
    22    98    92    1
    23    92    87   am
    24   104   105   ar
    25   104   106   ar
    26   105   107   ar
    27   109   106   ar
    28   109   111   ar
    29   106   108   ar
    30    88    87    2
    31    87    86    1
    32    84    83    2
    33   107   108   ar
    34   111   112   ar
    35   108   110   ar
    36   112   110   ar
    37    83    82    1
    38    83    85   am
    39    86    85    1
    40    86    89    1
    41    82    81    1
    42    58    60   ar
    43    58    57   ar
    44    60    61   ar
    45    52    53    1
    46    53    54    1
    47    53    56    1
    48    55    54    2
    49    90    89    1
    50    89    91    1
    51    81    75   am
    52    54    62   am
    53    57    56    1
    54    57    59   ar
    55    61    59   ar
    56    41    40    1
    57    41    43    1
    58    36    37    1
    59    37    40    1
    60    37    38    1
    61    39    38    2
    62    75    76    2
    63    75    74    1
    64    65    64    2
    65    64    63    1
    66    62    63    1
    67    42    40    1
    68    30    28    1
    69    38    44   am
    70    63    66    1
    71    73    74    1
    72    74    77    1
    73    47    46    2
    74    44    45    1
    75    27    26    2
    76    28    29    1
    77    28    25    1
    78    46    45    1
    79    77    78    1
    80    66    67    1
    81    45    48    1
    82    26    25    1
    83    26    31   am
    84    25    24    1
    85    67    69   ar
    86    67    68   ar
    87    69    71   ar
    88    68    70   ar
    89    32    31    1
    90    32    35    1
    91    32    33    1
    92     7     6    1
    93    78    79    1
    94    78    80    1
    95    71    72   ar
    96    70    72   ar
    97    34    33    2
    98    23    20    1
    99    48    49    1
   100    22    21    2
   101     8     6    1
   102    20    21    1
   103    20    19    1
   104     6     5    1
   105    51    49    1
   106    49    50    1
   107    17    16    2
   108     5     2    1
   109    19    16   am
   110    16    15    1
   111     4     3    2
   112    18    15    1
   113     2     3    1
   114     2     1    1
   115     3     9   am
   116    15    14    1
   117     9    10    1
   118    10    11    1
   119    10    13    1
   120    12    11    2
