@<TRIPOS>MOLECULE
tmp/4nlgA00.pdb
 167 163 0 0 0
SMALL
GASTEIGER

@<TRIPOS>ATOM
      1  N         35.5760  223.8810    9.8650 N.3     7  ASP7       -0.1225
      2  CA        34.2910  224.2960    9.3490 C.3     7  ASP7        0.1805
      3  C         33.8880  223.2290    8.3350 C.2     7  ASP7        0.2598
      4  O         34.6380  222.9800    7.3950 O.2     7  ASP7       -0.2718
      5  CB        34.3970  225.6980    8.7300 C.3     7  ASP7        0.1424
      6  CG        33.0260  226.3890    8.5630 C.2     7  ASP7        0.3668
      7  OD1       31.9700  225.7250    8.6770 O.co2   7  ASP7       -0.2456
      8  OD2       33.0090  227.6150    8.3290 O.co2   7  ASP7       -0.2456
      9  N         32.7520  222.5600    8.5530 N.am    8  PHE8       -0.1962
     10  CA        32.3450  221.4560    7.6740 C.3     8  PHE8        0.1771
     11  C         31.8820  222.0360    6.3220 C.2     8  PHE8        0.2620
     12  O         31.2780  223.1030    6.3020 O.2     8  PHE8       -0.2715
     13  CB        31.2300  220.6090    8.3110 C.3     8  PHE8        0.0574
     14  CG        31.4830  220.2260    9.7460 C.ar    8  PHE8       -0.0200
     15  CD1       30.4210  219.9160   10.5850 C.ar    8  PHE8       -0.0042
     16  CD2       32.7770  220.1520   10.2590 C.ar    8  PHE8       -0.0042
     17  CE1       30.6410  219.5560   11.9150 C.ar    8  PHE8       -0.0003
     18  CE2       32.9970  219.7850   11.5750 C.ar    8  PHE8       -0.0003
     19  CZ        31.9180  219.4980   12.4100 C.ar    8  PHE8       -0.0000
     20  N         32.1690  221.3660    5.2020 N.am    9  ASP9       -0.1957
     21  CA        31.8290  221.9310    3.8630 C.3     9  ASP9        0.1840
     22  C         30.3430  221.7400    3.5390 C.2     9  ASP9        0.2622
     23  O         29.7850  220.6970    3.8720 O.2     9  ASP9       -0.2715
     24  CB        32.6800  221.2920    2.7610 C.3     9  ASP9        0.1450
     25  CG        34.1550  221.6570    2.8660 C.2     9  ASP9        0.3671
     26  OD1       34.9960  220.7840    2.5820 O.co2   9  ASP9       -0.2456
     27  OD2       34.4810  222.8110    3.2370 O.co2   9  ASP9       -0.2456
     28  N         29.7250  222.7410    2.9040 N.am   10  TYR10      -0.1960
     29  CA        28.2840  222.7400    2.5930 C.3    10  TYR10       0.1771
     30  C         27.5080  221.7200    3.4590 C.2    10  TYR10       0.2620
     31  O         26.8480  220.7910    2.9650 O.2    10  TYR10      -0.2715
     32  CB        28.0680  222.5010    1.0750 C.3    10  TYR10       0.0574
     33  CG        28.5750  221.1760    0.5210 C.ar   10  TYR10      -0.0198
     34  CD1       27.6850  220.2150    0.0420 C.ar   10  TYR10      -0.0009
     35  CD2       29.9430  220.8910    0.4650 C.ar   10  TYR10      -0.0009
     36  CE1       28.1450  218.9820   -0.4630 C.ar   10  TYR10       0.0417
     37  CE2       30.4180  219.6510   -0.0340 C.ar   10  TYR10       0.0417
     38  CZ        29.5090  218.7110   -0.4870 C.ar   10  TYR10       0.1957
     39  OH        29.9640  217.5050   -0.9960 O.3    10  TYR10      -0.2866
     40  N         27.6120  221.9110    4.7750 N.am   11  PHE11      -0.1960
     41  CA        27.3820  220.8330    5.7490 C.3    11  PHE11       0.1771
     42  C         26.0580  220.0890    5.6150 C.2    11  PHE11       0.2619
     43  O         26.0630  218.8770    5.3830 O.2    11  PHE11      -0.2715
     44  CB        27.5060  221.3790    7.1830 C.3    11  PHE11       0.0574
     45  CG        27.3120  220.3230    8.2640 C.ar   11  PHE11      -0.0200
     46  CD1       27.9990  219.1160    8.2080 C.ar   11  PHE11      -0.0042
     47  CD2       26.4630  220.5500    9.3380 C.ar   11  PHE11      -0.0042
     48  CE1       27.8350  218.1230    9.2160 C.ar   11  PHE11      -0.0003
     49  CE2       26.2980  219.5700   10.3530 C.ar   11  PHE11      -0.0003
     50  CZ        26.9810  218.3560   10.2800 C.ar   11  PHE11      -0.0000
     51  N         24.9250  220.7680    5.7950 N.am   12  PHE12      -0.1974
     52  CA        23.6430  220.0450    5.6980 C.3    12  PHE12       0.1639
     53  C         23.5110  219.3240    4.3430 C.2    12  PHE12       0.2290
     54  O         23.0520  218.1790    4.3020 O.2    12  PHE12      -0.2864
     55  CB        22.4420  220.9720    5.9130 C.3    12  PHE12       0.0560
     56  CG        22.3950  221.6000    7.2810 C.ar   12  PHE12      -0.0200
     57  CD1       23.4390  221.4260    8.1780 C.ar   12  PHE12      -0.0042
     58  CD2       21.2930  222.3580    7.6790 C.ar   12  PHE12      -0.0042
     59  CE1       23.3950  222.0010    9.4500 C.ar   12  PHE12      -0.0003
     60  CE2       21.2520  222.9350    8.9310 C.ar   12  PHE12      -0.0003
     61  CZ        22.3020  222.7410    9.8250 C.ar   12  PHE12      -0.0000
     62  N         14.0990  224.9230    4.0040 N.3    32  VAL32      -0.1245
     63  CA        13.2470  224.9740    5.1790 C.3    32  VAL32       0.1561
     64  C         11.8080  225.2670    4.7260 C.2    32  VAL32       0.2260
     65  O         11.4380  226.4150    4.4570 O.2    32  VAL32      -0.2867
     66  CB        13.7330  226.0300    6.2060 C.3    32  VAL32       0.0252
     67  CG1       12.9760  225.8970    7.4700 C.3    32  VAL32       0.0019
     68  CG2       15.2140  225.8610    6.5120 C.3    32  VAL32       0.0019
     69  N         16.1660  228.6270    1.6760 N.3    43  VAL43      -0.1231
     70  CA        17.2200  227.6770    1.4410 C.3    43  VAL43       0.1692
     71  C         18.0650  227.6630    2.7050 C.2    43  VAL43       0.2592
     72  O         18.3850  228.7150    3.2430 O.2    43  VAL43      -0.2718
     73  CB        18.0650  228.0570    0.2070 C.3    43  VAL43       0.0266
     74  CG1       19.3370  227.2420    0.1710 C.3    43  VAL43       0.0020
     75  CG2       17.2460  227.8690   -1.0820 C.3    43  VAL43       0.0020
     76  N         18.4450  226.4870    3.1800 N.am   44  ALA44      -0.1966
     77  CA        19.3410  226.4510    4.3270 C.3    44  ALA44       0.1728
     78  C         20.7610  226.3500    3.8130 C.2    44  ALA44       0.2616
     79  O         21.6560  227.0750    4.2540 O.2    44  ALA44      -0.2715
     80  CB        19.0010  225.2660    5.2730 C.3    44  ALA44       0.0334
     81  N         20.9550  225.4290    2.8770 N.am   45  THR45      -0.1951
     82  CA        22.2480  225.2440    2.2520 C.3    45  THR45       0.1897
     83  C         22.1150  224.5530    0.8690 C.2    45  THR45       0.2313
     84  O         21.1950  223.7690    0.6060 O.2    45  THR45      -0.2863
     85  CB        23.1860  224.4550    3.1880 C.3    45  THR45       0.1794
     86  OG1       24.4810  224.3080    2.5900 O.3    45  THR45      -0.2208
     87  CG2       22.6300  223.1110    3.5170 C.3    45  THR45       0.0378
     88  N         27.8570  222.7090   -3.8490 N.3    48  TYR48      -0.1241
     89  CA        28.5850  223.6490   -4.6920 C.3    48  TYR48       0.1605
     90  C         28.0890  223.6480   -6.1480 C.2    48  TYR48       0.2264
     91  O         28.1710  224.6680   -6.8480 O.2    48  TYR48      -0.2867
     92  CB        30.0890  223.3540   -4.6020 C.3    48  TYR48       0.0534
     93  CG        30.6780  223.9680   -3.3480 C.ar   48  TYR48      -0.0201
     94  CD1       31.1600  225.2740   -3.3540 C.ar   48  TYR48      -0.0009
     95  CD2       30.7040  223.2680   -2.1530 C.ar   48  TYR48      -0.0009
     96  CE1       31.6770  225.8550   -2.2100 C.ar   48  TYR48       0.0417
     97  CE2       31.2150  223.8360   -1.0020 C.ar   48  TYR48       0.0417
     98  CZ        31.7000  225.1320   -1.0330 C.ar   48  TYR48       0.1957
     99  OH        32.2170  225.7060    0.1100 O.3    48  TYR48      -0.2866
    100  N         25.3840  226.0560   -6.0370 N.3    51  ARG51      -0.1245
    101  CA        25.8770  227.4140   -5.9190 C.3    51  ARG51       0.1563
    102  C         26.3420  227.9280   -7.2970 C.2    51  ARG51       0.2260
    103  O         26.2370  229.1210   -7.5550 O.2    51  ARG51      -0.2867
    104  CB        26.9910  227.5180   -4.8750 C.3    51  ARG51       0.0307
    105  CG        26.5330  227.1530   -3.4750 C.3    51  ARG51       0.0489
    106  CD        27.6120  227.2890   -2.4090 C.3    51  ARG51       0.2205
    107  NE        27.1940  226.6350   -1.1680 N.pl3  51  ARG51      -0.0865
    108  CZ        27.9110  226.6110   -0.0430 C.cat  51  ARG51       0.5346
    109  NH1       29.0970  227.2120    0.0050 N.pl3  51  ARG51       0.1354
    110  NH2       27.4450  225.9790    1.0370 N.pl3  51  ARG51       0.1354
    111  N         22.3530  230.4920    0.4860 N.3    57  ALA57      -0.1231
    112  CA        21.6510  230.2920    1.7560 C.3    57  ALA57       0.1694
    113  C         20.8200  231.5290    2.0630 C.2    57  ALA57       0.2592
    114  O         21.2170  232.6660    1.7780 O.2    57  ALA57      -0.2718
    115  CB        22.6080  229.9940    2.8930 C.3    57  ALA57       0.0304
    116  N         19.6390  231.2970    2.6110 N.am   58  GLY58      -0.1957
    117  CA        18.7620  232.3810    2.9920 C.3    58  GLY58       0.1869
    118  C         17.7790  232.7680    1.9060 C.2    58  GLY58       0.2309
    119  O         16.8200  233.5130    2.1750 O.2    58  GLY58      -0.2863
    120  N         14.8500  220.0610    5.2510 N.3    76  MET76      -0.1245
    121  CA        15.8920  219.9740    6.2380 C.3    76  MET76       0.1570
    122  C         15.5990  218.8690    7.2510 C.2    76  MET76       0.2261
    123  O         14.4580  218.6560    7.6670 O.2    76  MET76      -0.2867
    124  CB        16.0670  221.3050    6.9420 C.3    76  MET76       0.0387
    125  CG        17.2910  221.3240    7.8050 C.3    76  MET76       0.0595
    126  SD        17.5730  222.9480    8.4080 S.3    76  MET76      -0.1393
    127  CE        16.1380  223.2010    9.4380 C.3    76  MET76       0.0692
    128  N         29.4200  226.4100   16.7110 N.3   103  SER103     -0.1202
    129  CA        28.1290  226.2770   16.0470 C.3   103  SER103      0.2020
    130  C         27.9680  224.8610   15.5490 C.2   103  SER103      0.2619
    131  O         28.8100  224.0020   15.8020 O.2   103  SER103     -0.2717
    132  CB        28.0030  227.2640   14.8740 C.3   103  SER103      0.2103
    133  OG        28.6620  226.7600   13.7170 O.3   103  SER103     -0.2182
    134  N         26.9020  224.6060   14.8090 N.am  104  ILE104     -0.1965
    135  CA        26.6060  223.2290   14.5030 C.3   104  ILE104      0.1727
    136  C         27.6790  222.6750   13.5590 C.2   104  ILE104      0.2616
    137  O         27.8780  221.4640   13.4820 O.2   104  ILE104     -0.2715
    138  CB        25.1920  223.0770   13.9160 C.3   104  ILE104      0.0290
    139  CG1       24.7830  221.6010   13.8470 C.3   104  ILE104      0.0022
    140  CG2       25.0570  223.7900   12.5550 C.3   104  ILE104      0.0023
    141  CD1       23.3510  221.4300   13.3950 C.3   104  ILE104      0.0001
    142  N         28.4280  223.5470   12.8960 N.am  105  ASP105     -0.1957
    143  CA        29.3600  223.0370   11.8930 C.3   105  ASP105      0.1840
    144  C         30.7730  223.6210   11.9990 C.2   105  ASP105      0.2621
    145  O         31.5800  223.5180   11.0790 O.2   105  ASP105     -0.2715
    146  CB        28.7440  223.2560   10.4850 C.3   105  ASP105      0.1450
    147  CG        29.4060  224.3770    9.6990 C.2   105  ASP105      0.3671
    148  OD1       29.6380  225.4830   10.2140 O.co2 105  ASP105     -0.2456
    149  OD2       29.7030  224.1210    8.5260 O.co2 105  ASP105     -0.2456
    150  N         31.1000  224.2030   13.1390 N.am  106  GLU106     -0.1977
    151  CA        32.4510  224.7000   13.3020 C.3   106  GLU106      0.1602
    152  C         32.9610  224.7290   14.7590 C.2   106  GLU106      0.2287
    153  O         32.2000  224.9080   15.7080 O.2   106  GLU106     -0.2864
    154  CB        32.5420  226.0970   12.6800 C.3   106  GLU106      0.0415
    155  CG        31.5430  227.0970   13.2200 C.3   106  GLU106      0.1163
    156  CD        31.5090  228.3750   12.4060 C.2   106  GLU106      0.3649
    157  OE1       32.4610  228.6170   11.6480 O.co2 106  GLU106     -0.2457
    158  OE2       30.5280  229.1380   12.5090 O.co2 106  GLU106     -0.2457
    159  N         38.2080  227.5380    1.7710 N.3   160  LYS160     -0.1245
    160  CA        37.0560  226.7330    1.3660 C.3   160  LYS160      0.1561
    161  C         37.0250  226.5810   -0.1540 C.2   160  LYS160      0.2260
    162  O         37.4910  227.4670   -0.8740 O.2   160  LYS160     -0.2867
    163  CB        35.7410  227.3650    1.8440 C.3   160  LYS160      0.0271
    164  CG        35.6270  227.6040    3.3390 C.3   160  LYS160      0.0035
    165  CD        34.2200  228.1060    3.7030 C.3   160  LYS160      0.0206
    166  CE        34.0280  228.3280    5.2220 C.3   160  LYS160      0.1093
    167  NZ        32.5720  228.5170    5.5960 N.3   160  LYS160     -0.1314
@<TRIPOS>BOND
     1   103   102    2
     2   102   101    1
     3    91    90    2
     4    90    89    1
     5   100   101    1
     6   101   104    1
     7   104   105    1
     8    89    92    1
     9    89    88    1
    10    92    93    1
    11   105   106    1
    12    94    93   ar
    13    94    96   ar
    14    93    95   ar
    15   106   107    1
    16    96    98   ar
    17    95    97   ar
    18   107   108    2
    19    75    73    1
    20    98    97   ar
    21    98    99    1
    22    39    38    1
    23   162   161    2
    24    38    36   ar
    25    38    37   ar
    26    36    34   ar
    27   161   160    1
    28   108   109    1
    29   108   110    1
    30    37    35   ar
    31    34    33   ar
    32    74    73    1
    33    73    70    1
    34    35    33   ar
    35   111   112    1
    36    33    32    1
    37    84    83    2
    38    83    82    1
    39    32    29    1
    40   160   159    1
    41   160   163    1
    42    70    69    1
    43    70    71    1
    44   112   113    1
    45   112   115    1
    46   114   113    2
    47   163   164    1
    48   118   119    2
    49   118   117    1
    50   113   116   am
    51    82    81    1
    52    82    85    1
    53    26    25   ar
    54    86    85    1
    55    29    28    1
    56    29    30    1
    57   116   117    1
    58    71    76   am
    59    71    72    2
    60    24    25    1
    61    24    21    1
    62    25    27   ar
    63    81    78   am
    64    28    22   am
    65    31    30    2
    66    76    77    1
    67    85    87    1
    68   164   165    1
    69    30    40   am
    70    22    21    1
    71    22    23    2
    72   165   166    1
    73    78    79    2
    74    78    77    1
    75    21    20    1
    76    62    63    1
    77    54    53    2
    78    77    80    1
    79    53    52    1
    80    65    64    2
    81    64    63    1
    82    40    41    1
    83    63    66    1
    84    20    11   am
    85   166   167    1
    86   120   121    1
    87    43    42    2
    88    42    41    1
    89    42    51   am
    90    52    51    1
    91    52    55    1
    92    41    44    1
    93    55    56    1
    94    66    68    1
    95    66    67    1
    96   121   124    1
    97   121   122    1
    98    12    11    2
    99    11    10    1
   100   124   125    1
   101    44    45    1
   102   122   123    2
   103    56    58   ar
   104    56    57   ar
   105     4     3    2
   106    10    13    1
   107    10     9    1
   108    58    60   ar
   109   125   126    1
   110    57    59   ar
   111    46    45   ar
   112    46    48   ar
   113    45    47   ar
   114    13    14    1
   115     8     6   ar
   116     3     9   am
   117     3     2    1
   118   126   127    1
   119   149   147   ar
   120     6     7   ar
   121     6     5    1
   122     5     2    1
   123    60    61   ar
   124    48    50   ar
   125    47    49   ar
   126     2     1    1
   127    59    61   ar
   128   147   148   ar
   129   147   146    1
   130    14    16   ar
   131    14    15   ar
   132    16    18   ar
   133    50    49   ar
   134   146   143    1
   135    15    17   ar
   136   145   144    2
   137    18    19   ar
   138   157   156   ar
   139   143   144    1
   140   143   142    1
   141    17    19   ar
   142   144   150   am
   143   156   158   ar
   144   156   155    1
   145   140   138    1
   146   154   155    1
   147   154   151    1
   148   142   136   am
   149   150   151    1
   150   151   152    1
   151   141   139    1
   152   137   136    2
   153   136   135    1
   154   133   132    1
   155   139   138    1
   156   138   135    1
   157   135   134    1
   158   152   153    2
   159   134   130   am
   160   132   129    1
   161   130   131    2
   162   130   129    1
   163   129   128    1
