@<TRIPOS>MOLECULE
tmp/4nm5A01.pdb
 156 144 0 0 0
SMALL
GASTEIGER

@<TRIPOS>ATOM
      1  N         -5.5400   49.7600   -2.1620 N.3    39  ILE39      -0.1231
      2  CA        -4.4670   48.9360   -2.7070 C.3    39  ILE39       0.1692
      3  C         -4.5960   48.8030   -4.2220 C.2    39  ILE39       0.2592
      4  O         -3.7290   48.2310   -4.8870 O.2    39  ILE39      -0.2718
      5  CB        -4.4430   47.5390   -2.0630 C.3    39  ILE39       0.0266
      6  CG1       -5.7710   46.8180   -2.3050 C.3    39  ILE39       0.0019
      7  CG2       -4.1500   47.6490   -0.5730 C.3    39  ILE39       0.0020
      8  CD1       -5.8180   45.4160   -1.7350 C.3    39  ILE39       0.0001
      9  N         -5.6850   49.3410   -4.7590 N.am   40  GLY40      -0.1957
     10  CA        -5.9370   49.3170   -6.1870 C.3    40  GLY40       0.1869
     11  C         -6.9310   50.3920   -6.5770 C.2    40  GLY40       0.2309
     12  O         -7.8460   50.7040   -5.8160 O.2    40  GLY40      -0.2863
     13  N        -12.8690   51.4410  -13.1200 N.3    44  PHE44      -0.1241
     14  CA       -13.8920   50.4990  -12.6820 C.3    44  PHE44       0.1605
     15  C        -14.4170   50.8980  -11.3060 C.2    44  PHE44       0.2264
     16  O        -15.5960   50.7220  -10.9990 O.2    44  PHE44      -0.2867
     17  CB       -13.3150   49.0830  -12.6190 C.3    44  PHE44       0.0534
     18  CG       -12.3180   48.8850  -11.5090 C.ar   44  PHE44      -0.0203
     19  CD1      -11.0050   49.3060  -11.6530 C.ar   44  PHE44      -0.0042
     20  CD2      -12.6960   48.2860  -10.3180 C.ar   44  PHE44      -0.0042
     21  CE1      -10.0890   49.1290  -10.6320 C.ar   44  PHE44      -0.0003
     22  CE2      -11.7850   48.1090   -9.2930 C.ar   44  PHE44      -0.0003
     23  CZ       -10.4800   48.5300   -9.4520 C.ar   44  PHE44      -0.0000
     24  N        -10.2910   49.5380   -5.0810 N.3    47  VAL47      -0.1245
     25  CA       -10.0970   48.3350   -4.2810 C.3    47  VAL47       0.1561
     26  C         -9.3740   48.6730   -2.9810 C.2    47  VAL47       0.2260
     27  O         -8.2760   49.2290   -2.9990 O.2    47  VAL47      -0.2867
     28  CB        -9.2980   47.2580   -5.0340 C.3    47  VAL47       0.0252
     29  CG1       -9.0940   46.0390   -4.1460 C.3    47  VAL47       0.0019
     30  CG2      -10.0080   46.8700   -6.3170 C.3    47  VAL47       0.0019
     31  N        -10.0760   42.0650    0.8040 N.3    60  ALA60      -0.1245
     32  CA       -10.0720   43.0870   -0.2310 C.3    60  ALA60       0.1562
     33  C        -11.5050   43.5240   -0.4870 C.2    60  ALA60       0.2260
     34  O        -12.4160   42.6950   -0.5280 O.2    60  ALA60      -0.2867
     35  CB        -9.4440   42.5550   -1.5050 C.3    60  ALA60       0.0290
     36  N        -13.6430   45.3080   -3.2670 N.3    62  LYS62      -0.1245
     37  CA       -13.7720   45.8350   -4.6180 C.3    62  LYS62       0.1561
     38  C        -15.0360   46.6820   -4.7140 C.2    62  LYS62       0.2260
     39  O        -16.1490   46.1680   -4.6120 O.2    62  LYS62      -0.2867
     40  CB       -13.8110   44.6930   -5.6330 C.3    62  LYS62       0.0271
     41  CG       -13.7860   45.1400   -7.0840 C.3    62  LYS62       0.0035
     42  CD       -13.7440   43.9420   -8.0210 C.3    62  LYS62       0.0206
     43  CE       -13.6520   44.3770   -9.4730 C.3    62  LYS62       0.1093
     44  NZ       -13.5360   43.2150  -10.3990 N.3    62  LYS62      -0.1314
     45  N        -10.9620   33.0930   -6.1530 N.3    87  VAL87      -0.1245
     46  CA       -11.0220   33.9610   -4.9800 C.3    87  VAL87       0.1561
     47  C        -12.4300   33.9700   -4.3800 C.2    87  VAL87       0.2260
     48  O        -13.4270   34.0910   -5.0950 O.2    87  VAL87      -0.2867
     49  CB       -10.5260   35.3970   -5.2860 C.3    87  VAL87       0.0252
     50  CG1      -11.4160   36.0750   -6.3120 C.3    87  VAL87       0.0019
     51  CG2      -10.4520   36.2170   -4.0120 C.3    87  VAL87       0.0019
     52  N        -13.8040   40.2770   -0.6030 N.3   109  LEU109     -0.1231
     53  CA       -13.1440   39.0520   -1.0340 C.3   109  LEU109      0.1693
     54  C        -12.0040   38.6880   -0.0950 C.2   109  LEU109      0.2592
     55  O        -11.5820   39.5030    0.7220 O.2   109  LEU109     -0.2718
     56  CB       -12.5890   39.2300   -2.4500 C.3   109  LEU109      0.0284
     57  CG       -13.5310   39.8200   -3.5030 C.3   109  LEU109      0.0019
     58  CD1      -12.7520   40.2820   -4.7230 C.3   109  LEU109      0.0001
     59  CD2      -14.5810   38.8060   -3.9010 C.3   109  LEU109      0.0001
     60  N        -11.5050   37.4630   -0.2160 N.am  110  ASP110     -0.1960
     61  CA       -10.2750   37.0840    0.4660 C.3   110  ASP110      0.1840
     62  C         -9.1280   37.9220   -0.0840 C.2   110  ASP110      0.2622
     63  O         -9.0660   38.1880   -1.2840 O.2   110  ASP110     -0.2715
     64  CB        -9.9750   35.5980    0.2640 C.3   110  ASP110      0.1450
     65  CG       -10.7700   34.7080    1.1980 C.2   110  ASP110      0.3671
     66  OD1      -11.2290   35.2070    2.2460 O.co2 110  ASP110     -0.2456
     67  OD2      -10.9280   33.5070    0.8890 O.co2 110  ASP110     -0.2456
     68  N         -8.2260   38.3500    0.7910 N.am  111  TYR111     -0.1960
     69  CA        -7.0760   39.1260    0.3500 C.3   111  TYR111      0.1771
     70  C         -5.9220   38.2140   -0.0470 C.2   111  TYR111      0.2619
     71  O         -5.4770   37.3800    0.7410 O.2   111  TYR111     -0.2715
     72  CB        -6.6200   40.1080    1.4320 C.3   111  TYR111      0.0574
     73  CG        -5.3250   40.8030    1.0810 C.ar  111  TYR111     -0.0198
     74  CD1       -5.2920   41.8030    0.1170 C.ar  111  TYR111     -0.0009
     75  CD2       -4.1340   40.4500    1.7000 C.ar  111  TYR111     -0.0009
     76  CE1       -4.1100   42.4350   -0.2170 C.ar  111  TYR111      0.0417
     77  CE2       -2.9470   41.0770    1.3750 C.ar  111  TYR111      0.0417
     78  CZ        -2.9400   42.0680    0.4160 C.ar  111  TYR111      0.1957
     79  OH        -1.7590   42.6950    0.0910 O.3   111  TYR111     -0.2866
     80  N         -5.4460   38.3770   -1.2780 N.am  112  VAL112     -0.1977
     81  CA        -4.3040   37.6160   -1.7730 C.3   112  VAL112      0.1596
     82  C         -3.2260   38.5920   -2.2470 C.2   112  VAL112      0.2287
     83  O         -3.4510   39.3690   -3.1700 O.2   112  VAL112     -0.2864
     84  CB        -4.7100   36.6680   -2.9170 C.3   112  VAL112      0.0276
     85  CG1       -3.5880   35.7030   -3.2250 C.3   112  VAL112      0.0022
     86  CG2       -5.9720   35.8980   -2.5500 C.3   112  VAL112      0.0022
     87  N          0.2100   38.6290   -7.5470 N.3   115  THR115     -0.1218
     88  CA        -0.3710   38.1180   -8.7830 C.3   115  THR115      0.1862
     89  C          0.7130   37.4500   -9.6180 C.2   115  THR115      0.2287
     90  O          1.9070   37.6600   -9.3840 O.2   115  THR115     -0.2866
     91  CB        -1.0230   39.2310   -9.6260 C.3   115  THR115      0.1770
     92  OG1       -0.0080   40.1020  -10.1400 O.3   115  THR115     -0.2211
     93  CG2       -2.0000   40.0380   -8.7880 C.3   115  THR115      0.0375
     94  N          2.9460   40.1570  -11.2850 N.3   118  ARG118     -0.1245
     95  CA         3.9630   40.7760  -10.4380 C.3   118  ARG118      0.1563
     96  C          5.1380   39.8400  -10.1930 C.2   118  ARG118      0.2260
     97  O          6.2890   40.2690  -10.1920 O.2   118  ARG118     -0.2867
     98  CB         3.3720   41.2300   -9.1060 C.3   118  ARG118      0.0307
     99  CG         2.3380   42.3310   -9.2320 C.3   118  ARG118      0.0489
    100  CD         1.7560   42.6950   -7.8790 C.3   118  ARG118      0.2205
    101  NE         0.5120   43.4440   -8.0180 N.pl3 118  ARG118     -0.0865
    102  CZ        -0.3520   43.6420   -7.0300 C.cat 118  ARG118      0.5346
    103  NH1       -0.1090   43.1410   -5.8270 N.pl3 118  ARG118      0.1354
    104  NH2       -1.4620   44.3360   -7.2460 N.pl3 118  ARG118      0.1354
    105  N         -5.7260   36.5160  -17.8850 N.3   160  LYS160     -0.1245
    106  CA        -4.4330   37.1680  -18.0580 C.3   160  LYS160      0.1561
    107  C         -3.6970   37.1440  -16.7130 C.2   160  LYS160      0.2260
    108  O         -4.3280   36.9460  -15.6750 O.2   160  LYS160     -0.2867
    109  CB        -4.6170   38.5990  -18.5810 C.3   160  LYS160      0.0271
    110  CG        -5.4090   39.5220  -17.6810 C.3   160  LYS160      0.0035
    111  CD        -5.4350   40.9170  -18.2780 C.3   160  LYS160      0.0206
    112  CE        -6.2360   41.8830  -17.4280 C.3   160  LYS160      0.1093
    113  NZ        -6.2430   43.2440  -18.0320 N.3   160  LYS160     -0.1314
    114  N         -2.5600   39.3000  -14.6970 N.3   162  GLN162     -0.1231
    115  CA        -2.9950   40.2670  -13.6930 C.3   162  GLN162      0.1698
    116  C         -4.2240   39.7860  -12.9300 C.2   162  GLN162      0.2592
    117  O         -4.5060   40.2620  -11.8290 O.2   162  GLN162     -0.2718
    118  CB        -3.2900   41.6280  -14.3340 C.3   162  GLN162      0.0381
    119  CG        -2.0880   42.3270  -14.9600 C.3   162  GLN162      0.0905
    120  CD        -1.7900   41.8500  -16.3730 C.2   162  GLN162      0.2608
    121  OE1       -2.3130   40.8330  -16.8240 O.2   162  GLN162     -0.2717
    122  NE2       -0.9440   42.5910  -17.0790 N.am  162  GLN162     -0.0878
    123  N         -4.9590   38.8480  -13.5210 N.am  163  ASN163     -0.1974
    124  CA        -6.1650   38.3160  -12.8970 C.3   163  ASN163      0.1688
    125  C         -5.9310   36.9960  -12.1690 C.2   163  ASN163      0.2292
    126  O         -6.8790   36.3350  -11.7440 O.2   163  ASN163     -0.2864
    127  CB        -7.2790   38.1520  -13.9320 C.3   163  ASN163      0.1181
    128  CG        -7.8770   39.4770  -14.3550 C.2   163  ASN163      0.2629
    129  OD1       -7.6950   40.4920  -13.6850 O.2   163  ASN163     -0.2716
    130  ND2       -8.6070   39.4710  -15.4640 N.am  163  ASN163     -0.0877
    131  N         -4.3450   35.6480   -8.9430 N.3   165  LEU165     -0.1245
    132  CA        -3.8070   35.9720   -7.6280 C.3   165  LEU165      0.1561
    133  C         -2.9300   34.8480   -7.0900 C.2   165  LEU165      0.2260
    134  O         -3.2250   33.6690   -7.2830 O.2   165  LEU165     -0.2867
    135  CB        -4.9420   36.2720   -6.6480 C.3   165  LEU165      0.0270
    136  CG        -5.9330   37.3490   -7.0930 C.3   165  LEU165      0.0019
    137  CD1       -7.0230   37.5480   -6.0490 C.3   165  LEU165      0.0001
    138  CD2       -5.2150   38.6580   -7.3810 C.3   165  LEU165      0.0001
    139  N         -9.3770   35.5670  -10.3050 N.3   176  CYS176     -0.1221
    140  CA       -10.2020   36.6810   -9.8540 C.3   176  CYS176      0.1808
    141  C        -10.7290   37.5000  -11.0240 C.2   176  CYS176      0.2601
    142  O        -10.4830   37.1690  -12.1860 O.2   176  CYS176     -0.2717
    143  CB        -9.4160   37.5860   -8.9060 C.3   176  CYS176      0.0970
    144  SG        -8.2220   38.6590   -9.7240 S.3   176  CYS176     -0.0800
    145  N        -11.4550   38.5670  -10.6960 N.am  177  ASP177     -0.1973
    146  CA       -12.0090   39.4960  -11.6790 C.3   177  ASP177      0.1709
    147  C        -13.0010   38.8360  -12.6340 C.2   177  ASP177      0.2293
    148  O        -12.6310   38.3750  -13.7150 O.2   177  ASP177     -0.2864
    149  CB       -10.8940   40.1980  -12.4610 C.3   177  ASP177      0.1436
    150  CG       -11.4160   41.3160  -13.3440 C.2   177  ASP177      0.3671
    151  OD1      -12.6060   41.6680  -13.2230 O.co2 177  ASP177     -0.2456
    152  OD2      -10.6320   41.8510  -14.1540 O.co2 177  ASP177     -0.2456
    153  N        -15.7040   40.4800  -13.8590 N.3   179  GLY179     -0.1225
    154  CA       -16.4720   41.5780  -14.4200 C.3   179  GLY179      0.1811
    155  C        -16.7820   41.4260  -15.9000 C.2   179  GLY179      0.2280
    156  O        -17.6450   42.1230  -16.4350 O.2   179  GLY179     -0.2866
@<TRIPOS>BOND
     1   109   106    1
     2   109   110    1
     3   111   110    1
     4   111   112    1
     5   106   105    1
     6   106   107    1
     7   113   112    1
     8   122   120   am
     9   121   120    2
    10   107   108    2
    11   156   155    2
    12   120   119    1
    13   155   154    1
    14   130   128   am
    15   119   118    1
    16   114   115    1
    17   154   153    1
    18   128   127    1
    19   128   129    2
    20   118   115    1
    21   152   150   ar
    22   127   124    1
    23   148   147    2
    24   115   116    1
    25   123   116   am
    26   123   124    1
    27   150   151   ar
    28   150   149    1
    29    13    14    1
    30   116   117    2
    31   124   125    1
    32    14    17    1
    33    14    15    1
    34   147   146    1
    35    17    18    1
    36   149   146    1
    37   142   141    2
    38   125   126    2
    39   146   145    1
    40    19    18   ar
    41    19    21   ar
    42    18    20   ar
    43    15    16    2
    44    94    95    1
    45   141   145   am
    46   141   140    1
    47    21    23   ar
    48    95    96    1
    49    95    98    1
    50    44    43    1
    51    20    22   ar
    52   139   140    1
    53    96    97    2
    54    92    91    1
    55   140   143    1
    56   144   143    1
    57    91    93    1
    58    91    88    1
    59    89    90    2
    60    89    88    1
    61    43    42    1
    62    23    22   ar
    63    99    98    1
    64    99   100    1
    65   131   132    1
    66    88    87    1
    67    42    41    1
    68   101   100    1
    69   101   102    2
    70   132   133    1
    71   132   135    1
    72   138   136    1
    73   134   133    2
    74   104   102    1
    75   136   135    1
    76   136   137    1
    77    41    40    1
    78   102   103    1
    79    11    10    1
    80    11    12    2
    81    30    28    1
    82    50    49    1
    83    10     9    1
    84    45    46    1
    85    40    37    1
    86    49    46    1
    87    49    51    1
    88    48    47    2
    89    24    25    1
    90    28    25    1
    91    28    29    1
    92    46    47    1
    93     4     3    2
    94     9     3   am
    95    58    57    1
    96    38    37    1
    97    38    39    2
    98    37    36    1
    99    25    26    1
   100     3     2    1
   101    59    57    1
   102    57    56    1
   103    85    84    1
   104    83    82    2
   105    27    26    2
   106    84    86    1
   107    84    81    1
   108     2     1    1
   109     2     5    1
   110    56    53    1
   111     6     5    1
   112     6     8    1
   113    82    81    1
   114     5     7    1
   115    81    80    1
   116    35    32    1
   117    63    62    2
   118    80    70   am
   119    53    52    1
   120    53    54    1
   121    34    33    2
   122    33    32    1
   123    32    31    1
   124    76    74   ar
   125    76    78   ar
   126    60    54   am
   127    60    61    1
   128    54    55    2
   129    62    61    1
   130    62    68   am
   131    70    69    1
   132    70    71    2
   133    79    78    1
   134    74    73   ar
   135    64    61    1
   136    64    65    1
   137    69    68    1
   138    69    72    1
   139    78    77   ar
   140    67    65   ar
   141    73    72    1
   142    73    75   ar
   143    65    66   ar
   144    77    75   ar
