@<TRIPOS>MOLECULE
tmp/4nmaA01.pdb
 107 102 0 0 0
SMALL
GASTEIGER

@<TRIPOS>ATOM
      1  N         65.2220   -8.2810  -15.4860 N.3   185  LYS185     -0.1245
      2  CA        64.5070   -8.0990  -14.2170 C.3   185  LYS185      0.1561
      3  C         64.0600   -9.4280  -13.5900 C.2   185  LYS185      0.2260
      4  O         63.2100  -10.1340  -14.1380 O.2   185  LYS185     -0.2867
      5  CB        63.3140   -7.1590  -14.3910 C.3   185  LYS185      0.0271
      6  CG        63.6950   -5.6850  -14.3700 C.3   185  LYS185      0.0035
      7  CD        62.4610   -4.7970  -14.3360 C.3   185  LYS185      0.0206
      8  CE        62.8060   -3.3790  -13.9000 C.3   185  LYS185      0.1093
      9  NZ        63.8300   -2.7810  -14.7850 N.3   185  LYS185     -0.1314
     10  N         69.2870   -6.3660  -12.8960 N.3   226  ASP226     -0.1225
     11  CA        68.5930   -5.2050  -12.3390 C.3   226  ASP226      0.1805
     12  C         68.1880   -5.4740  -10.9020 C.2   226  ASP226      0.2597
     13  O         67.9440   -6.6170  -10.5270 O.2   226  ASP226     -0.2718
     14  CB        67.3230   -4.9010  -13.1390 C.3   226  ASP226      0.1424
     15  CG        67.6010   -4.1220  -14.4330 C.2   226  ASP226      0.3668
     16  OD1       68.7590   -3.6910  -14.6640 O.co2 226  ASP226     -0.2456
     17  OD2       66.6360   -3.9330  -15.2080 O.co2 226  ASP226     -0.2456
     18  N         68.0880   -4.4120  -10.1130 N.am  227  MET227     -0.1979
     19  CA        67.6110   -4.5160   -8.7360 C.3   227  MET227      0.1605
     20  C         66.1960   -3.9420   -8.6560 C.2   227  MET227      0.2287
     21  O         65.8890   -2.8920   -9.2430 O.2   227  MET227     -0.2864
     22  CB        68.5780   -3.7860   -7.7920 C.3   227  MET227      0.0413
     23  CG        68.2950   -3.9500   -6.3060 C.3   227  MET227      0.0598
     24  SD        68.1270   -5.6710   -5.8010 S.3   227  MET227     -0.1393
     25  CE        69.8430   -6.1790   -5.6510 C.3   227  MET227      0.0692
     26  N         76.5890   -1.8930  -11.0430 N.3   285  ARG285     -0.1245
     27  CA        75.9860   -0.6550  -11.4950 C.3   285  ARG285      0.1563
     28  C         75.3870    0.0170  -10.2550 C.2   285  ARG285      0.2260
     29  O         74.4600   -0.5050   -9.6400 O.2   285  ARG285     -0.2867
     30  CB        74.9030   -0.9020  -12.5580 C.3   285  ARG285      0.0307
     31  CG        74.2850    0.3830  -13.1140 C.3   285  ARG285      0.0489
     32  CD        72.8650    0.1670  -13.6580 C.3   285  ARG285      0.2205
     33  NE        72.8180   -0.8810  -14.6750 N.pl3 285  ARG285     -0.0865
     34  CZ        71.7470   -1.6230  -14.9470 C.cat 285  ARG285      0.5346
     35  NH1       70.6050   -1.4370  -14.2880 N.pl3 285  ARG285      0.1354
     36  NH2       71.8150   -2.5450  -15.9010 N.pl3 285  ARG285      0.1354
     37  N         64.7660    3.4480   -7.9120 N.3   290  ALA290     -0.1231
     38  CA        63.5900    3.8430   -8.6800 C.3   290  ALA290      0.1694
     39  C         62.2300    3.6640   -7.9740 C.2   290  ALA290      0.2592
     40  O         61.2000    4.0290   -8.5390 O.2   290  ALA290     -0.2718
     41  CB        63.5790    3.1420  -10.0610 C.3   290  ALA290      0.0304
     42  N         62.2250    3.1300   -6.7510 N.am  291  TYR291     -0.1976
     43  CA        60.9680    2.7930   -6.0780 C.3   291  TYR291      0.1639
     44  C         60.7440    3.5430   -4.7630 C.2   291  TYR291      0.2290
     45  O         60.1730    2.9940   -3.8230 O.2   291  TYR291     -0.2864
     46  CB        60.9090    1.2790   -5.8230 C.3   291  TYR291      0.0560
     47  CG        61.2540    0.4590   -7.0580 C.ar  291  TYR291     -0.0198
     48  CD1       60.2830    0.1800   -8.0210 C.ar  291  TYR291     -0.0009
     49  CD2       62.5510   -0.0150   -7.2700 C.ar  291  TYR291     -0.0009
     50  CE1       60.5850   -0.5590   -9.1610 C.ar  291  TYR291      0.0417
     51  CE2       62.8630   -0.7600   -8.4110 C.ar  291  TYR291      0.0417
     52  CZ        61.8720   -1.0240   -9.3520 C.ar  291  TYR291      0.1957
     53  OH        62.1700   -1.7570  -10.4840 O.3   291  TYR291     -0.2866
     54  N         69.5750    6.5220  -18.8820 N.3   367  LEU367     -0.1245
     55  CA        68.3640    5.9370  -19.4340 C.3   367  LEU367      0.1561
     56  C         68.0660    6.5770  -20.7880 C.2   367  LEU367      0.2260
     57  O         68.2040    7.7920  -20.9570 O.2   367  LEU367     -0.2867
     58  CB        67.1800    6.1450  -18.4840 C.3   367  LEU367      0.0270
     59  CG        67.2940    5.5320  -17.0870 C.3   367  LEU367      0.0019
     60  CD1       66.1320    5.9690  -16.2130 C.3   367  LEU367      0.0001
     61  CD2       67.3650    4.0220  -17.1790 C.3   367  LEU367      0.0001
     62  N         70.7270    2.7450  -21.3510 N.3   388  TYR388     -0.1241
     63  CA        69.8100    1.6820  -20.9650 C.3   388  TYR388      0.1605
     64  C         68.6380    1.7700  -21.9300 C.2   388  TYR388      0.2264
     65  O         67.8550    2.7180  -21.8820 O.2   388  TYR388     -0.2867
     66  CB        69.3340    1.8650  -19.5260 C.3   388  TYR388      0.0534
     67  CG        68.5460    0.6910  -18.9530 C.ar  388  TYR388     -0.0201
     68  CD1       67.1870    0.5620  -19.1890 C.ar  388  TYR388     -0.0009
     69  CD2       69.1670   -0.2720  -18.1500 C.ar  388  TYR388     -0.0009
     70  CE1       66.4560   -0.5030  -18.6610 C.ar  388  TYR388      0.0417
     71  CE2       68.4470   -1.3360  -17.6160 C.ar  388  TYR388      0.0417
     72  CZ        67.0920   -1.4480  -17.8810 C.ar  388  TYR388      0.1957
     73  OH        66.3610   -2.4970  -17.3610 O.3   388  TYR388     -0.2866
     74  N         57.6010    0.9630  -15.7840 N.3   400  TYR400     -0.1241
     75  CA        58.7800    1.6990  -16.2200 C.3   400  TYR400      0.1605
     76  C         58.4110    3.1190  -16.6860 C.2   400  TYR400      0.2264
     77  O         59.0570    4.0940  -16.2960 O.2   400  TYR400     -0.2867
     78  CB        59.5120    0.9230  -17.3250 C.3   400  TYR400      0.0534
     79  CG        60.8270    1.5350  -17.7670 C.ar  400  TYR400     -0.0201
     80  CD1       60.8540    2.5510  -18.7120 C.ar  400  TYR400     -0.0009
     81  CD2       62.0370    1.0900  -17.2500 C.ar  400  TYR400     -0.0009
     82  CE1       62.0370    3.1150  -19.1260 C.ar  400  TYR400      0.0417
     83  CE2       63.2380    1.6470  -17.6700 C.ar  400  TYR400      0.0417
     84  CZ        63.2220    2.6630  -18.6070 C.ar  400  TYR400      0.1957
     85  OH        64.3870    3.2340  -19.0480 O.3   400  TYR400     -0.2866
     86  N         57.4270    5.3180  -13.7280 N.3   403  ARG403     -0.1231
     87  CA        58.6570    5.6330  -12.9890 C.3   403  ARG403      0.1694
     88  C         59.5020    6.7250  -13.6660 C.2   403  ARG403      0.2591
     89  O         60.0680    7.5880  -12.9890 O.2   403  ARG403     -0.2718
     90  CB        59.4890    4.3820  -12.7170 C.3   403  ARG403      0.0321
     91  CG        58.8390    3.4570  -11.6860 C.3   403  ARG403      0.0489
     92  CD        59.7940    2.3740  -11.2110 C.3   403  ARG403      0.2205
     93  NE        60.2700    1.5030  -12.2860 N.pl3 403  ARG403     -0.0865
     94  CZ        59.6280    0.4120  -12.7080 C.cat 403  ARG403      0.5346
     95  NH1       58.4630    0.0620  -12.1680 N.pl3 403  ARG403      0.1354
     96  NH2       60.1440   -0.3230  -13.6830 N.pl3 403  ARG403      0.1354
     97  N         59.5680    6.7120  -14.9940 N.am  404  ARG404     -0.1980
     98  CA        60.2820    7.7780  -15.6860 C.3   404  ARG404      0.1597
     99  C         59.6070    9.1270  -15.4800 C.2   404  ARG404      0.2287
    100  O         60.2800   10.1300  -15.2320 O.2   404  ARG404     -0.2864
    101  CB        60.4150    7.4800  -17.1800 C.3   404  ARG404      0.0334
    102  CG        61.2040    6.2270  -17.5050 C.3   404  ARG404      0.0492
    103  CD        62.6790    6.3370  -17.1220 C.3   404  ARG404      0.2205
    104  NE        62.9500    6.1840  -15.6880 N.pl3 404  ARG404     -0.0865
    105  CZ        62.8340    5.0430  -15.0120 C.cat 404  ARG404      0.5346
    106  NH1       62.4170    3.9400  -15.6250 N.pl3 404  ARG404      0.1354
    107  NH2       63.1230    5.0040  -13.7140 N.pl3 404  ARG404      0.1354
@<TRIPOS>BOND
     1    64    65    2
     2    64    63    1
     3    62    63    1
     4    63    66    1
     5    57    56    2
     6    56    55    1
     7    66    67    1
     8    55    54    1
     9    55    58    1
    10    68    67   ar
    11    68    70   ar
    12    82    80   ar
    13    82    84   ar
    14    85    84    1
    15    67    69   ar
    16    80    79   ar
    17    70    72   ar
    18    84    83   ar
    19    58    59    1
    20    69    71   ar
    21    72    71   ar
    22    72    73    1
    23    79    78    1
    24    79    81   ar
    25    83    81   ar
    26   102   101    1
    27   102   103    1
    28    78    75    1
    29   101    98    1
    30    61    59    1
    31   103   104    1
    32    59    60    1
    33    76    77    2
    34    76    75    1
    35    75    74    1
    36    36    34    1
    37   104   105    2
    38    98    99    1
    39    98    97    1
    40   106   105    1
    41     1     2    1
    42    99   100    2
    43    17    15   ar
    44   105   107    1
    45    97    88   am
    46    34    33    2
    47    34    35    1
    48     9     8    1
    49    33    32    1
    50    16    15   ar
    51    15    14    1
    52     5     6    1
    53     5     2    1
    54     6     7    1
    55     7     8    1
    56     2     3    1
    57     4     3    2
    58    86    87    1
    59    96    94    1
    60    88    89    2
    61    88    87    1
    62    32    31    1
    63    14    11    1
    64    31    30    1
    65    87    90    1
    66    10    11    1
    67    90    91    1
    68    94    93    2
    69    94    95    1
    70    30    27    1
    71    11    12    1
    72    93    92    1
    73    91    92    1
    74    27    26    1
    75    27    28    1
    76    12    13    2
    77    12    18   am
    78    53    52    1
    79    28    29    2
    80    18    19    1
    81    41    38    1
    82    52    50   ar
    83    52    51   ar
    84    21    20    2
    85    50    48   ar
    86    19    20    1
    87    19    22    1
    88    38    39    1
    89    38    37    1
    90    40    39    2
    91    51    49   ar
    92    48    47   ar
    93    39    42   am
    94    22    23    1
    95    49    47   ar
    96    47    46    1
    97    42    43    1
    98    23    24    1
    99    43    46    1
   100    43    44    1
   101    24    25    1
   102    44    45    2
