@<TRIPOS>MOLECULE
tmp/4nmbA01.pdb
 140 134 0 0 0
SMALL
GASTEIGER

@<TRIPOS>ATOM
      1  N         47.0900   -9.2560   15.5810 N.3   582  GLU582     -0.1245
      2  CA        45.7210   -8.7390   15.7010 C.3   582  GLU582      0.1567
      3  C         45.1850   -8.8870   17.1470 C.2   582  GLU582      0.2260
      4  O         44.6260   -7.9400   17.7190 O.2   582  GLU582     -0.2867
      5  CB        44.7910   -9.4410   14.7030 C.3   582  GLU582      0.0388
      6  CG        43.3470   -8.9290   14.7220 C.3   582  GLU582      0.1160
      7  CD        42.6460   -9.0790   13.3700 C.2   582  GLU582      0.3649
      8  OE1       42.8680   -8.2080   12.4940 O.co2 582  GLU582     -0.2457
      9  OE2       41.8840  -10.0630   13.1860 O.co2 582  GLU582     -0.2457
     10  N         44.0510   -5.8770   19.4800 N.3   586  PHE586     -0.1241
     11  CA        42.7890   -5.7500   20.2170 C.3   586  PHE586      0.1605
     12  C         43.0660   -5.3400   21.6700 C.2   586  PHE586      0.2264
     13  O         42.4340   -4.4260   22.2040 O.2   586  PHE586     -0.2867
     14  CB        41.9990   -7.0650   20.1720 C.3   586  PHE586      0.0534
     15  CG        41.1990   -7.2670   18.9010 C.ar  586  PHE586     -0.0203
     16  CD1       40.4170   -6.2380   18.3770 C.ar  586  PHE586     -0.0042
     17  CD2       41.2160   -8.4970   18.2450 C.ar  586  PHE586     -0.0042
     18  CE1       39.6760   -6.4250   17.2170 C.ar  586  PHE586     -0.0003
     19  CE2       40.4670   -8.7070   17.0810 C.ar  586  PHE586     -0.0003
     20  CZ        39.6990   -7.6610   16.5610 C.ar  586  PHE586     -0.0000
     21  N         39.9590  -17.7290   13.3300 N.3   629  PHE629     -0.1241
     22  CA        40.8940  -16.7690   13.9150 C.3   629  PHE629      0.1605
     23  C         40.9640  -17.0190   15.4110 C.2   629  PHE629      0.2264
     24  O         40.5010  -16.2000   16.2080 O.2   629  PHE629     -0.2867
     25  CB        40.4610  -15.3360   13.6410 C.3   629  PHE629      0.0534
     26  CG        40.5430  -14.9510   12.1990 C.ar  629  PHE629     -0.0203
     27  CD1       41.7220  -14.4310   11.6760 C.ar  629  PHE629     -0.0042
     28  CD2       39.4400  -15.1070   11.3610 C.ar  629  PHE629     -0.0042
     29  CE1       41.8020  -14.0730   10.3410 C.ar  629  PHE629     -0.0003
     30  CE2       39.5100  -14.7530   10.0250 C.ar  629  PHE629     -0.0003
     31  CZ        40.6910  -14.2350    9.5120 C.ar  629  PHE629     -0.0000
     32  N         40.1420  -13.3280   17.1600 N.3   633  ILE633     -0.1245
     33  CA        38.7210  -13.1210   17.4200 C.3   633  ILE633      0.1561
     34  C         38.3580  -13.4290   18.8760 C.2   633  ILE633      0.2260
     35  O         37.6560  -12.6430   19.5190 O.2   633  ILE633     -0.2867
     36  CB        37.8210  -13.8930   16.4320 C.3   633  ILE633      0.0252
     37  CG1       37.9190  -13.2640   15.0360 C.3   633  ILE633      0.0019
     38  CG2       36.3680  -13.8360   16.8890 C.3   633  ILE633      0.0019
     39  CD1       36.9950  -13.9230   13.9780 C.3   633  ILE633      0.0001
     40  N         37.9310  -17.6790    5.7230 N.3   765  LYS765     -0.1231
     41  CA        37.7810  -16.3700    6.3390 C.3   765  LYS765      0.1693
     42  C         36.3890  -15.8440    6.0550 C.2   765  LYS765      0.2592
     43  O         35.9040  -15.9440    4.9250 O.2   765  LYS765     -0.2718
     44  CB        38.8220  -15.4000    5.7740 C.3   765  LYS765      0.0285
     45  CG        40.2420  -15.9330    5.7950 C.3   765  LYS765      0.0035
     46  CD        41.2390  -14.8140    5.5140 C.3   765  LYS765      0.0206
     47  CE        42.6680  -15.3480    5.4440 C.3   765  LYS765      0.1093
     48  NZ        43.6180  -14.2430    5.1810 N.3   765  LYS765     -0.1314
     49  N         35.7520  -15.2740    7.0790 N.am  766  CYS766     -0.1956
     50  CA        34.4500  -14.6400    6.9170 C.3   766  CYS766      0.1843
     51  C         34.5200  -13.6140    5.7880 C.2   766  CYS766      0.2626
     52  O         33.5470  -13.3920    5.0710 O.2   766  CYS766     -0.2714
     53  CB        34.0290  -13.9700    8.2300 C.3   766  CYS766      0.0997
     54  SG        33.7910  -15.1310    9.6400 S.3   766  CYS766     -0.0797
     55  N         35.7090  -13.0340    5.6250 N.am  767  SER767     -0.1950
     56  CA        35.9740  -11.9410    4.6980 C.3   767  SER767      0.1924
     57  C         36.3630  -12.4120    3.3030 C.2   767  SER767      0.2314
     58  O         36.5120  -11.6000    2.4000 O.2   767  SER767     -0.2863
     59  CB        37.1310  -11.1050    5.2340 C.3   767  SER767      0.2116
     60  OG        38.2880  -11.9180    5.4000 O.3   767  SER767     -0.2180
     61  N         36.5930   -2.7150   -0.1510 N.3   915  TYR915     -0.1241
     62  CA        37.9700   -2.3550   -0.4850 C.3   915  TYR915      0.1605
     63  C         38.1360   -1.9620   -1.9560 C.2   915  TYR915      0.2264
     64  O         37.5980   -2.6120   -2.8540 O.2   915  TYR915     -0.2867
     65  CB        38.9280   -3.4960   -0.1480 C.3   915  TYR915      0.0534
     66  CG        38.9760   -3.8760    1.3080 C.ar  915  TYR915     -0.0201
     67  CD1       37.9980   -4.6880    1.8660 C.ar  915  TYR915     -0.0009
     68  CD2       40.0130   -3.4350    2.1220 C.ar  915  TYR915     -0.0009
     69  CE1       38.0490   -5.0590    3.2040 C.ar  915  TYR915      0.0417
     70  CE2       40.0840   -3.7990    3.4630 C.ar  915  TYR915      0.0417
     71  CZ        39.1020   -4.6050    3.9990 C.ar  915  TYR915      0.1957
     72  OH        39.1810   -4.9620    5.3290 O.3   915  TYR915     -0.2866
     73  N         40.1870   -7.9810   -0.2890 N.3   920  ASN920     -0.1225
     74  CA        39.1540   -7.6000    0.6690 C.3   920  ASN920      0.1785
     75  C         39.2980   -8.3320    1.9890 C.2   920  ASN920      0.2598
     76  O         38.3310   -8.4540    2.7460 O.2   920  ASN920     -0.2718
     77  CB        37.7500   -7.8370    0.1020 C.3   920  ASN920      0.1169
     78  CG        37.4870   -9.3020   -0.1930 C.2   920  ASN920      0.2627
     79  OD1       38.4090  -10.0530   -0.5170 O.2   920  ASN920     -0.2716
     80  ND2       36.2270   -9.7200   -0.0700 N.am  920  ASN920     -0.0877
     81  N         40.5000   -8.8360    2.2540 N.am  921  THR921     -0.1939
     82  CA        40.7910   -9.4770    3.5260 C.3   921  THR921      0.2028
     83  C         41.8720   -8.6880    4.2550 C.2   921  THR921      0.2643
     84  O         42.2920   -7.6240    3.7970 O.2   921  THR921     -0.2714
     85  CB        41.2120  -10.9390    3.3330 C.3   921  THR921      0.1808
     86  OG1       42.4620  -10.9950    2.6460 O.3   921  THR921     -0.2208
     87  CG2       40.1710  -11.6840    2.5080 C.3   921  THR921      0.0379
     88  N         42.3050   -9.1860    5.4030 N.am  922  GLY922     -0.1939
     89  CA        43.3390   -8.5030    6.1650 C.3   922  GLY922      0.2014
     90  C         42.9590   -7.1510    6.7610 C.2   922  GLY922      0.2639
     91  O         43.7490   -6.2000    6.7330 O.2   922  GLY922     -0.2714
     92  N         41.7480   -7.0650    7.3020 N.am  923  ALA923     -0.1963
     93  CA        41.3230   -5.8960    8.0680 C.3   923  ALA923      0.1728
     94  C         42.1710   -5.7220    9.3380 C.2   923  ALA923      0.2616
     95  O         42.3220   -6.6560   10.1360 O.2   923  ALA923     -0.2715
     96  CB        39.8520   -6.0180    8.4360 C.3   923  ALA923      0.0334
     97  N         42.7160   -4.5220    9.5240 N.am  924  LEU924     -0.1963
     98  CA        43.5180   -4.2110   10.7060 C.3   924  LEU924      0.1728
     99  C         42.7290   -3.3870   11.7220 C.2   924  LEU924      0.2616
    100  O         41.8540   -2.5970   11.3430 O.2   924  LEU924     -0.2715
    101  CB        44.7600   -3.4310   10.3000 C.3   924  LEU924      0.0311
    102  CG        45.7710   -4.2010    9.4540 C.3   924  LEU924      0.0022
    103  CD1       46.7820   -3.2390    8.8450 C.3   924  LEU924      0.0001
    104  CD2       46.4560   -5.2850   10.2990 C.3   924  LEU924      0.0001
    105  N         43.0550   -3.5650   13.0020 N.am  925  VAL925     -0.1977
    106  CA        42.4220   -2.8080   14.0820 C.3   925  VAL925      0.1596
    107  C         42.6620   -1.3100   13.9010 C.2   925  VAL925      0.2287
    108  O         43.7520   -0.8950   13.4700 O.2   925  VAL925     -0.2864
    109  CB        42.9280   -3.2960   15.4680 C.3   925  VAL925      0.0276
    110  CG1       42.5170   -2.3490   16.5910 C.3   925  VAL925      0.0022
    111  CG2       42.3980   -4.6870   15.7440 C.3   925  VAL925      0.0022
    112  N         40.7350   -0.6990    9.8150 N.3   928  GLN928     -0.1245
    113  CA        39.5370   -1.2690    9.2020 C.3   928  GLN928      0.1566
    114  C         38.6740   -1.9770   10.2370 C.2   928  GLN928      0.2260
    115  O         38.6660   -3.2060   10.2990 O.2   928  GLN928     -0.2867
    116  CB        39.8940   -2.2170    8.0490 C.3   928  GLN928      0.0367
    117  CG        40.6380   -1.5270    6.8880 C.3   928  GLN928      0.0905
    118  CD        42.1580   -1.6570    6.9780 C.2   928  GLN928      0.2608
    119  OE1       42.6860   -2.6000    7.5880 O.2   928  GLN928     -0.2717
    120  NE2       42.8700   -0.7110    6.3610 N.am  928  GLN928     -0.0878
    121  N         35.8980   -3.9440   11.7820 N.3   930  PHE930     -0.1241
    122  CA        35.3660   -5.0460   10.9920 C.3   930  PHE930      0.1605
    123  C         33.9830   -5.4810   11.4430 C.2   930  PHE930      0.2264
    124  O         33.7480   -5.6940   12.6300 O.2   930  PHE930     -0.2867
    125  CB        36.3420   -6.2350   11.0540 C.3   930  PHE930      0.0534
    126  CG        36.0000   -7.3540   10.1110 C.ar  930  PHE930     -0.0203
    127  CD1       36.3590   -7.2790    8.7690 C.ar  930  PHE930     -0.0042
    128  CD2       35.3230   -8.4830   10.5640 C.ar  930  PHE930     -0.0042
    129  CE1       36.0480   -8.3080    7.8940 C.ar  930  PHE930     -0.0003
    130  CE2       35.0060   -9.5220    9.6940 C.ar  930  PHE930     -0.0003
    131  CZ        35.3640   -9.4360    8.3560 C.ar  930  PHE930     -0.0000
    132  N         34.1840   -4.7680   15.4170 N.3   942  ALA942     -0.1231
    133  CA        35.3680   -5.0110   16.2280 C.3   942  ALA942      0.1694
    134  C         36.5230   -4.1300   15.7540 C.2   942  ALA942      0.2592
    135  O         36.6250   -3.8140   14.5650 O.2   942  ALA942     -0.2718
    136  CB        35.7640   -6.4840   16.1450 C.3   942  ALA942      0.0304
    137  N         37.3980   -3.7510   16.6840 N.am  943  GLY943     -0.1957
    138  CA        38.5600   -2.9430   16.3450 C.3   943  GLY943      0.1869
    139  C         38.2310   -1.5090   15.9580 C.2   943  GLY943      0.2309
    140  O         39.0780   -0.8030   15.3850 O.2   943  GLY943     -0.2863
@<TRIPOS>BOND
     1    64    63    2
     2    63    62    1
     3    79    78    2
     4    62    61    1
     5    62    65    1
     6    73    74    1
     7    78    80   am
     8    78    77    1
     9    65    66    1
    10    77    74    1
    11    74    75    1
    12    66    67   ar
    13    66    68   ar
    14    67    69   ar
    15    75    81   am
    16    75    76    2
    17    68    70   ar
    18    81    82    1
    19    58    57    2
    20    87    85    1
    21    86    85    1
    22    69    71   ar
    23    57    56    1
    24    85    82    1
    25    70    71   ar
    26    82    83    1
    27    84    83    2
    28    71    72    1
    29    83    88   am
    30    56    59    1
    31    56    55    1
    32    43    42    2
    33    52    51    2
    34    48    47    1
    35    59    60    1
    36    88    89    1
    37    47    46    1
    38    46    45    1
    39    55    51   am
    40    40    41    1
    41    44    45    1
    42    44    41    1
    43    51    50    1
    44    42    41    1
    45    42    49   am
    46    89    90    1
    47   120   118   am
    48    91    90    2
    49    90    92   am
    50   117   118    1
    51   117   116    1
    52    50    49    1
    53    50    53    1
    54   118   119    2
    55    92    93    1
    56   129   131   ar
    57   129   127   ar
    58   116   113    1
    59    93    96    1
    60    93    94    1
    61    53    54    1
    62   131   130   ar
    63   127   126   ar
    64   103   102    1
    65   113   112    1
    66   113   114    1
    67    94    97   am
    68    94    95    2
    69   102   104    1
    70   102   101    1
    71    31    30   ar
    72    31    29   ar
    73    97    98    1
    74   130   128   ar
    75    30    28   ar
    76   126   128   ar
    77   126   125    1
    78   114   115    2
    79   101    98    1
    80    29    27   ar
    81    98    99    1
    82   122   125    1
    83   122   123    1
    84   122   121    1
    85   100    99    2
    86    28    26   ar
    87   123   124    2
    88    27    26   ar
    89    99   105   am
    90    26    25    1
    91     8     7   ar
    92   105   106    1
    93     9     7   ar
    94    21    22    1
    95     7     6    1
    96   108   107    2
    97    25    22    1
    98   107   106    1
    99    22    23    1
   100    39    37    1
   101   106   109    1
   102   135   134    2
   103     5     6    1
   104     5     2    1
   105    37    36    1
   106   140   139    2
   107    23    24    2
   108   132   133    1
   109   109   111    1
   110   109   110    1
   111     1     2    1
   112     2     3    1
   113   134   133    1
   114   134   137   am
   115   139   138    1
   116   136   133    1
   117   138   137    1
   118    36    38    1
   119    36    33    1
   120    20    19   ar
   121    20    18   ar
   122    19    17   ar
   123     3     4    2
   124    32    33    1
   125    18    16   ar
   126    33    34    1
   127    17    15   ar
   128    16    15   ar
   129    34    35    2
   130    15    14    1
   131    10    11    1
   132    14    11    1
   133    11    12    1
   134    12    13    2
