@<TRIPOS>MOLECULE
tmp/4nmcA00.pdb
 215 212 0 0 0
SMALL
GASTEIGER

@<TRIPOS>ATOM
      1  N        307.2620   91.8570 -188.7710 N.3   215  ASP215     -0.1225
      2  CA       305.9730   92.1670 -188.1460 C.3   215  ASP215      0.1805
      3  C        305.5830   91.1340 -187.0990 C.2   215  ASP215      0.2597
      4  O        306.0470   89.9930 -187.1400 O.2   215  ASP215     -0.2718
      5  CB       304.8550   92.2380 -189.1890 C.3   215  ASP215      0.1424
      6  CG       304.9580   93.4510 -190.0810 C.2   215  ASP215      0.3668
      7  OD1      305.6070   94.4440 -189.6870 O.co2 215  ASP215     -0.2456
      8  OD2      304.3730   93.4070 -191.1800 O.co2 215  ASP215     -0.2456
      9  N        304.7190   91.5360 -186.1700 N.am  216  MET216     -0.1979
     10  CA       304.1630   90.6060 -185.1970 C.3   216  MET216      0.1605
     11  C        302.6760   90.4060 -185.4870 C.2   216  MET216      0.2287
     12  O        301.9510   91.3680 -185.7310 O.2   216  MET216     -0.2864
     13  CB       304.3670   91.1180 -183.7680 C.3   216  MET216      0.0413
     14  CG       303.9360   90.1320 -182.6960 C.3   216  MET216      0.0598
     15  SD       304.7790   88.5400 -182.7950 S.3   216  MET216     -0.1393
     16  CE       306.3990   88.9650 -182.1470 C.3   216  MET216      0.0692
     17  N        308.7710   93.5210 -184.1730 N.3   245  VAL245     -0.1245
     18  CA       307.6200   94.2020 -183.5960 C.3   245  VAL245      0.1561
     19  C        307.2430   93.5700 -182.2560 C.2   245  VAL245      0.2260
     20  O        307.1330   92.3500 -182.1530 O.2   245  VAL245     -0.2867
     21  CB       306.3900   94.1170 -184.5320 C.3   245  VAL245      0.0252
     22  CG1      305.1690   94.7420 -183.8720 C.3   245  VAL245      0.0019
     23  CG2      306.6810   94.7930 -185.8560 C.3   245  VAL245      0.0019
     24  N        304.2330   93.8730 -179.1180 N.3   247  GLN247     -0.1245
     25  CA       302.9030   94.4120 -178.8580 C.3   247  GLN247      0.1566
     26  C        302.6760   94.6730 -177.3750 C.2   247  GLN247      0.2260
     27  O        302.7270   93.7560 -176.5600 O.2   247  GLN247     -0.2867
     28  CB       301.8340   93.4490 -179.3890 C.3   247  GLN247      0.0367
     29  CG       301.9750   93.1430 -180.8700 C.3   247  GLN247      0.0905
     30  CD       301.4910   91.7570 -181.2280 C.2   247  GLN247      0.2608
     31  OE1      301.6810   90.8080 -180.4670 O.2   247  GLN247     -0.2717
     32  NE2      300.8670   91.6280 -182.3970 N.am  247  GLN247     -0.0878
     33  N        299.9370   95.4090 -175.8490 N.3   249  TYR249     -0.1241
     34  CA       298.6660   94.9280 -175.2990 C.3   249  TYR249      0.1605
     35  C        298.7590   93.5250 -174.7060 C.2   249  TYR249      0.2264
     36  O        297.8460   93.0750 -174.0270 O.2   249  TYR249     -0.2867
     37  CB       297.4820   95.0950 -176.2800 C.3   249  TYR249      0.0534
     38  CG       297.3750   94.1530 -177.4790 C.ar  249  TYR249     -0.0201
     39  CD1      298.3780   93.2440 -177.8090 C.ar  249  TYR249     -0.0009
     40  CD2      296.2530   94.2020 -178.2980 C.ar  249  TYR249     -0.0009
     41  CE1      298.2460   92.4000 -178.9130 C.ar  249  TYR249      0.0417
     42  CE2      296.1150   93.3680 -179.3990 C.ar  249  TYR249      0.0417
     43  CZ       297.1100   92.4710 -179.7010 C.ar  249  TYR249      0.1957
     44  OH       296.9610   91.6480 -180.7960 O.3   249  TYR249     -0.2866
     45  N        310.2290   97.6880 -183.0480 N.3   274  ARG274     -0.1245
     46  CA       309.1000   98.5520 -183.3630 C.3   274  ARG274      0.1563
     47  C        307.9820   98.2320 -182.3870 C.2   274  ARG274      0.2260
     48  O        307.3200   97.1950 -182.4960 O.2   274  ARG274     -0.2867
     49  CB       308.6110   98.3630 -184.8010 C.3   274  ARG274      0.0307
     50  CG       307.5680   99.3950 -185.2170 C.3   274  ARG274      0.0489
     51  CD       306.6330   98.8550 -186.2870 C.3   274  ARG274      0.2205
     52  NE       307.3500   98.4920 -187.5060 N.pl3 274  ARG274     -0.0865
     53  CZ       306.9180   97.6020 -188.3940 C.cat 274  ARG274      0.5346
     54  NH1      305.7660   96.9720 -188.2110 N.pl3 274  ARG274      0.1354
     55  NH2      307.6430   97.3370 -189.4690 N.pl3 274  ARG274      0.1354
     56  N        304.4330   98.4550 -180.9020 N.3   276  VAL276     -0.1231
     57  CA       303.0620   98.7900 -181.2580 C.3   276  VAL276      0.1692
     58  C        302.1500   98.4640 -180.0880 C.2   276  VAL276      0.2592
     59  O        302.5920   97.9000 -179.0870 O.2   276  VAL276     -0.2718
     60  CB       302.5750   97.9800 -182.4790 C.3   276  VAL276      0.0266
     61  CG1      303.5100   98.1790 -183.6650 C.3   276  VAL276      0.0020
     62  CG2      302.4450   96.4970 -182.1220 C.3   276  VAL276      0.0020
     63  N        300.8740   98.8060 -180.2140 N.am  277  LYS277     -0.1966
     64  CA       299.9090   98.4220 -179.1970 C.3   277  LYS277      0.1728
     65  C        299.3690   97.0210 -179.4510 C.2   277  LYS277      0.2617
     66  O        299.3550   96.1860 -178.5470 O.2   277  LYS277     -0.2715
     67  CB       298.7930   99.4610 -179.0750 C.3   277  LYS277      0.0311
     68  CG       299.2090  100.6100 -178.1650 C.3   277  LYS277      0.0038
     69  CD       298.3980  101.8720 -178.3690 C.3   277  LYS277      0.0206
     70  CE       299.1390  103.0530 -177.7570 C.3   277  LYS277      0.1093
     71  NZ       298.4110  104.3320 -177.9240 N.3   277  LYS277     -0.1314
     72  N        298.9550   96.7570 -180.6860 N.am  278  GLY278     -0.1940
     73  CA       298.4460   95.4460 -181.0480 C.3   278  GLY278      0.2014
     74  C        297.2130   95.5670 -181.9190 C.2   278  GLY278      0.2639
     75  O        296.3210   96.3630 -181.6250 O.2   278  GLY278     -0.2714
     76  N        297.1630   94.7690 -182.9840 N.am  279  ALA279     -0.1963
     77  CA       296.1070   94.8810 -183.9910 C.3   279  ALA279      0.1728
     78  C        295.0050   93.8230 -183.8950 C.2   279  ALA279      0.2616
     79  O        294.0400   93.8710 -184.6600 O.2   279  ALA279     -0.2715
     80  CB       296.7180   94.8690 -185.3880 C.3   279  ALA279      0.0334
     81  N        295.1350   92.8800 -182.9660 N.am  280  TYR280     -0.1960
     82  CA       294.2190   91.7380 -182.9230 C.3   280  TYR280      0.1771
     83  C        293.4200   91.6130 -181.6320 C.2   280  TYR280      0.2619
     84  O        293.0730   90.5030 -181.2230 O.2   280  TYR280     -0.2715
     85  CB       294.9970   90.4450 -183.1540 C.3   280  TYR280      0.0574
     86  CG       295.8620   90.4820 -184.3830 C.ar  280  TYR280     -0.0198
     87  CD1      297.1940   90.8630 -184.3040 C.ar  280  TYR280     -0.0009
     88  CD2      295.3470   90.1390 -185.6230 C.ar  280  TYR280     -0.0009
     89  CE1      297.9890   90.9030 -185.4250 C.ar  280  TYR280      0.0417
     90  CE2      296.1340   90.1740 -186.7530 C.ar  280  TYR280      0.0417
     91  CZ       297.4550   90.5560 -186.6480 C.ar  280  TYR280      0.1957
     92  OH       298.2540   90.5940 -187.7710 O.3   280  TYR280     -0.2866
     93  N        293.1010   92.7420 -181.0090 N.am  281  TRP281     -0.1974
     94  CA       292.4630   92.7240 -179.6970 C.3   281  TRP281      0.1640
     95  C        291.1640   91.9190 -179.6470 C.2   281  TRP281      0.2290
     96  O        291.0140   91.0360 -178.8010 O.2   281  TRP281     -0.2864
     97  CB       292.2240   94.1450 -179.1860 C.3   281  TRP281      0.0576
     98  CG       291.8210   94.1600 -177.7500 C.ar  281  TRP281      0.0006
     99  CD1      292.6470   94.2420 -176.6660 C.ar  281  TRP281      0.0946
    100  CD2      290.4890   94.0620 -177.2370 C.ar  281  TRP281      0.0152
    101  NE1      291.9070   94.2100 -175.5070 N.ar  281  TRP281     -0.2442
    102  CE2      290.5790   94.1010 -175.8310 C.ar  281  TRP281      0.0810
    103  CE3      289.2270   93.9500 -177.8310 C.ar  281  TRP281      0.0012
    104  CZ2      289.4530   94.0330 -175.0100 C.ar  281  TRP281      0.0191
    105  CZ3      288.1130   93.8820 -177.0190 C.ar  281  TRP281      0.0001
    106  CH2      288.2310   93.9220 -175.6220 C.ar  281  TRP281      0.0015
    107  N        295.4900   92.7380 -172.2050 N.3   298  TRP298     -0.1227
    108  CA       294.7680   93.5240 -171.2080 C.3   298  TRP298      0.1737
    109  C        293.3900   93.8100 -171.7740 C.2   298  TRP298      0.2596
    110  O        293.2070   93.7770 -172.9920 O.2   298  TRP298     -0.2718
    111  CB       295.4660   94.8610 -170.9410 C.3   298  TRP298      0.0564
    112  CG       296.9120   94.7470 -170.6490 C.ar  298  TRP298      0.0003
    113  CD1      297.9430   95.0550 -171.4870 C.ar  298  TRP298      0.0946
    114  CD2      297.5060   94.3070 -169.4240 C.ar  298  TRP298      0.0152
    115  NE1      299.1410   94.8260 -170.8590 N.ar  298  TRP298     -0.2442
    116  CE2      298.9000   94.3680 -169.5910 C.ar  298  TRP298      0.0810
    117  CE3      296.9920   93.8680 -168.2030 C.ar  298  TRP298      0.0012
    118  CZ2      299.7890   93.9990 -168.5830 C.ar  298  TRP298      0.0191
    119  CZ3      297.8750   93.5040 -167.2040 C.ar  298  TRP298      0.0001
    120  CH2      299.2570   93.5720 -167.3990 C.ar  298  TRP298      0.0015
    121  N        292.4220   94.0970 -170.9060 N.am  299  THR299     -0.1939
    122  CA       291.0610   94.3730 -171.3670 C.3   299  THR299      0.2028
    123  C        290.5770   95.7740 -170.9870 C.2   299  THR299      0.2642
    124  O        289.4210   96.1300 -171.2390 O.2   299  THR299     -0.2714
    125  CB       290.0490   93.2910 -170.9140 C.3   299  THR299      0.1808
    126  OG1      290.0370   93.1990 -169.4870 O.3   299  THR299     -0.2208
    127  CG2      290.4310   91.9440 -171.4880 C.3   299  THR299      0.0379
    128  N        291.4760   96.5540 -170.3850 N.am  300  ILE300     -0.1963
    129  CA       291.2710   97.9860 -170.1970 C.3   300  ILE300      0.1727
    130  C        292.2060   98.7010 -171.1580 C.2   300  ILE300      0.2616
    131  O        293.4220   98.5210 -171.0830 O.2   300  ILE300     -0.2715
    132  CB       291.6040   98.4280 -168.7580 C.3   300  ILE300      0.0290
    133  CG1      290.7330   97.6770 -167.7490 C.3   300  ILE300      0.0022
    134  CG2      291.4180   99.9290 -168.5990 C.3   300  ILE300      0.0023
    135  CD1      291.1250   97.9230 -166.3060 C.3   300  ILE300      0.0001
    136  N        291.6440   99.4970 -172.0660 N.am  301  LYS301     -0.1977
    137  CA       292.4330  100.1510 -173.1110 C.3   301  LYS301      0.1596
    138  C        293.6250  100.9220 -172.5410 C.2   301  LYS301      0.2287
    139  O        294.7330  100.8290 -173.0630 O.2   301  LYS301     -0.2864
    140  CB       291.5430  101.0630 -173.9660 C.3   301  LYS301      0.0298
    141  CG       292.1670  101.5020 -175.2920 C.3   301  LYS301      0.0038
    142  CD       292.9010  102.8430 -175.1740 C.3   301  LYS301      0.0206
    143  CE       293.6520  103.1700 -176.4600 C.3   301  LYS301      0.1093
    144  NZ       294.2350  104.5450 -176.4370 N.3   301  LYS301     -0.1314
    145  N        296.9180   99.1690 -171.9560 N.3   304  SER304     -0.1217
    146  CA       297.7780   99.1000 -173.1330 C.3   304  SER304      0.1889
    147  C        298.5090  100.4200 -173.3760 C.2   304  SER304      0.2288
    148  O        299.6800  100.4250 -173.7630 O.2   304  SER304     -0.2866
    149  CB       296.9680   98.7200 -174.3690 C.3   304  SER304      0.2089
    150  OG       296.4450   97.4130 -174.2450 O.3   304  SER304     -0.2183
    151  N        305.5100  103.3260 -183.1180 N.3   327  ALA327     -0.1231
    152  CA       304.4490  103.1470 -184.1050 C.3   327  ALA327      0.1694
    153  C        303.0790  103.2980 -183.4630 C.2   327  ALA327      0.2593
    154  O        302.5270  102.3390 -182.9220 O.2   327  ALA327     -0.2718
    155  CB       304.5690  101.7890 -184.7830 C.3   327  ALA327      0.0304
    156  N        302.5450  104.5130 -183.5250 N.am  328  SER328     -0.1938
    157  CA       301.2380  104.8330 -182.9620 C.3   328  SER328      0.2055
    158  C        300.7150  106.1060 -183.6050 C.2   328  SER328      0.2643
    159  O        301.4910  106.9210 -184.1110 O.2   328  SER328     -0.2714
    160  CB       301.3330  105.0250 -181.4450 C.3   328  SER328      0.2130
    161  OG       300.1170  105.5230 -180.9130 O.3   328  SER328     -0.2179
    162  N        299.3960  106.2700 -183.5980 N.am  329  HIS329     -0.1959
    163  CA       298.7930  107.5100 -184.0630 C.3   329  HIS329      0.1787
    164  C        298.3100  108.3090 -182.8620 C.2   329  HIS329      0.2620
    165  O        297.6840  109.3590 -183.0070 O.2   329  HIS329     -0.2715
    166  CB       297.6470  107.2320 -185.0370 C.3   329  HIS329      0.0785
    167  CG       298.0950  106.6420 -186.3380 C.ar  329  HIS329      0.0821
    168  ND1      297.3060  106.6380 -187.4680 N.ar  329  HIS329     -0.2267
    169  CD2      299.2540  106.0320 -186.6880 C.ar  329  HIS329      0.1154
    170  CE1      297.9590  106.0550 -188.4580 C.ar  329  HIS329      0.1986
    171  NE2      299.1430  105.6760 -188.0090 N.ar  329  HIS329     -0.2212
    172  N        298.6170  107.8070 -181.6690 N.am  330  ASN330     -0.1972
    173  CA       298.2380  108.5000 -180.4480 C.3   330  ASN330      0.1688
    174  C        299.2400  109.5850 -180.0700 C.2   330  ASN330      0.2292
    175  O        300.4210  109.3110 -179.8560 O.2   330  ASN330     -0.2864
    176  CB       298.0460  107.5200 -179.2890 C.3   330  ASN330      0.1181
    177  CG       297.2460  108.1240 -178.1430 C.2   330  ASN330      0.2629
    178  OD1      297.3950  109.3050 -177.8150 O.2   330  ASN330     -0.2716
    179  ND2      296.3810  107.3170 -177.5360 N.am  330  ASN330     -0.0877
    180  N        306.8960  106.1970 -186.5190 N.3   354  GLN354     -0.1231
    181  CA       306.2400  105.5630 -187.6480 C.3   354  GLN354      0.1698
    182  C        304.7250  105.7100 -187.5770 C.2   354  GLN354      0.2592
    183  O        304.1110  105.4870 -186.5300 O.2   354  GLN354     -0.2718
    184  CB       306.6300  104.0860 -187.7250 C.3   354  GLN354      0.0381
    185  CG       308.1200  103.8500 -187.9380 C.3   354  GLN354      0.0905
    186  CD       308.4430  102.3890 -188.1760 C.2   354  GLN354      0.2608
    187  OE1      307.5460  101.5440 -188.2430 O.2   354  GLN354     -0.2717
    188  NE2      309.7280  102.0810 -188.3060 N.am  354  GLN354     -0.0878
    189  N        304.1330  106.0930 -188.7040 N.am  355  VAL355     -0.1966
    190  CA       302.6870  106.2380 -188.8200 C.3   355  VAL355      0.1727
    191  C        302.2230  105.6630 -190.1540 C.2   355  VAL355      0.2616
    192  O        303.0360  105.4170 -191.0470 O.2   355  VAL355     -0.2715
    193  CB       302.2570  107.7150 -188.7190 C.3   355  VAL355      0.0290
    194  CG1      302.4990  108.2460 -187.3220 C.3   355  VAL355      0.0023
    195  CG2      303.0090  108.5530 -189.7370 C.3   355  VAL355      0.0023
    196  N        300.9180  105.4490 -190.2880 N.am  356  LEU356     -0.1977
    197  CA       300.3650  104.8630 -191.5070 C.3   356  LEU356      0.1596
    198  C        300.3690  105.8370 -192.6820 C.2   356  LEU356      0.2287
    199  O        300.0090  107.0060 -192.5380 O.2   356  LEU356     -0.2864
    200  CB       298.9440  104.3470 -191.2670 C.3   356  LEU356      0.0297
    201  CG       298.8010  103.2310 -190.2310 C.3   356  LEU356      0.0022
    202  CD1      297.3750  102.6970 -190.1990 C.3   356  LEU356      0.0001
    203  CD2      299.7910  102.1160 -190.5200 C.3   356  LEU356      0.0001
    204  N        304.5100  103.8390 -192.8990 N.3   377  TYR377     -0.1241
    205  CA       304.1910  102.4500 -193.1730 C.3   377  TYR377      0.1605
    206  C        303.3650  102.3930 -194.4490 C.2   377  TYR377      0.2264
    207  O        302.1870  102.7560 -194.4540 O.2   377  TYR377     -0.2867
    208  CB       303.4080  101.8520 -192.0130 C.3   377  TYR377      0.0534
    209  CG       303.2160  100.3610 -192.1110 C.ar  377  TYR377     -0.0201
    210  CD1      302.1320   99.8290 -192.7900 C.ar  377  TYR377     -0.0009
    211  CD2      304.1140   99.4840 -191.5140 C.ar  377  TYR377     -0.0009
    212  CE1      301.9460   98.4630 -192.8820 C.ar  377  TYR377      0.0417
    213  CE2      303.9370   98.1140 -191.5990 C.ar  377  TYR377      0.0417
    214  CZ       302.8480   97.6110 -192.2860 C.ar  377  TYR377      0.1957
    215  OH       302.6540   96.2520 -192.3800 O.3   377  TYR377     -0.2866
@<TRIPOS>BOND
     1   207   206    2
     2   206   205    1
     3   205   204    1
     4   205   208    1
     5   212   210   ar
     6   212   214   ar
     7   210   209   ar
     8   198   199    2
     9   198   197    1
    10   215   214    1
    11   214   213   ar
    12   209   208    1
    13   209   211   ar
    14   213   211   ar
    15   197   200    1
    16   197   196    1
    17   200   201    1
    18     8     6   ar
    19   192   191    2
    20   203   201    1
    21   196   191   am
    22   201   202    1
    23   191   190    1
    24     6     7   ar
    25     6     5    1
    26   195   193    1
    27    55    53    1
    28     5     2    1
    29   190   193    1
    30   190   189    1
    31     1     2    1
    32   193   194    1
    33   189   182   am
    34   170   171   ar
    35   170   168   ar
    36    53    54    1
    37    53    52    2
    38   188   186   am
    39   187   186    2
    40   186   185    1
    41     2     3    1
    42   171   169   ar
    43   185   184    1
    44    92    91    1
    45   184   181    1
    46   181   182    1
    47   181   180    1
    48   182   183    2
    49    52    51    1
    50   168   167   ar
    51     4     3    2
    52     3     9   am
    53    90    91   ar
    54    90    88   ar
    55   169   167   ar
    56    91    89   ar
    57   167   166    1
    58    51    50    1
    59     9    10    1
    60    23    21    1
    61    12    11    2
    62    88    86   ar
    63    11    10    1
    64    89    87   ar
    65    80    77    1
    66    50    49    1
    67    10    13    1
    68   166   163    1
    69    49    46    1
    70   155   152    1
    71    79    78    2
    72    21    22    1
    73    21    18    1
    74    86    87   ar
    75    86    85    1
    76    17    18    1
    77   159   158    2
    78   152   153    1
    79   152   151    1
    80   163   162    1
    81   163   164    1
    82    77    78    1
    83    77    76    1
    84    78    81   am
    85    13    14    1
    86    61    60    1
    87   158   162   am
    88   158   157    1
    89    18    19    1
    90   156   153   am
    91   156   157    1
    92   153   154    2
    93    46    45    1
    94    46    47    1
    95    85    82    1
    96   165   164    2
    97    76    74   am
    98    81    82    1
    99   157   160    1
   100    82    83    1
   101   164   172   am
   102    15    14    1
   103    15    16    1
   104    48    47    2
   105    60    62    1
   106    60    57    1
   107    32    30   am
   108    19    20    2
   109    74    75    2
   110    74    73    1
   111   172   173    1
   112    83    84    2
   113    83    93   am
   114   160   161    1
   115    57    56    1
   116    57    58    1
   117    30    29    1
   118    30    31    2
   119    73    72    1
   120    93    94    1
   121    29    28    1
   122    44    43    1
   123    72    65   am
   124   173   174    1
   125   173   176    1
   126    63    58   am
   127    63    64    1
   128    58    59    2
   129   174   175    2
   130    43    42   ar
   131    43    41   ar
   132    94    95    1
   133    94    97    1
   134    95    96    2
   135    65    64    1
   136    65    66    2
   137    42    40   ar
   138    28    25    1
   139   176   177    1
   140    64    67    1
   141    97    98    1
   142    24    25    1
   143    67    68    1
   144    41    39   ar
   145    25    26    1
   146    69    68    1
   147    69    70    1
   148    40    38   ar
   149   177   178    2
   150   177   179   am
   151    71    70    1
   152   103   100   ar
   153   103   105   ar
   154    39    38   ar
   155    98   100   ar
   156    98    99   ar
   157    38    37    1
   158    26    27    2
   159   100   102   ar
   160   105   106   ar
   161    99   101   ar
   162   143   144    1
   163   143   142    1
   164    37    34    1
   165    33    34    1
   166   102   101   ar
   167   102   104   ar
   168   106   104   ar
   169    34    35    1
   170   141   142    1
   171   141   140    1
   172    35    36    2
   173   149   150    1
   174   149   146    1
   175   140   137    1
   176   148   147    2
   177   147   146    1
   178   146   145    1
   179   137   138    1
   180   137   136    1
   181   139   138    2
   182   110   109    2
   183   107   108    1
   184   136   130   am
   185   109   108    1
   186   109   121   am
   187   127   125    1
   188   113   115   ar
   189   113   112   ar
   190   122   123    1
   191   122   125    1
   192   122   121    1
   193   124   123    2
   194   108   111    1
   195   130   131    2
   196   130   129    1
   197   123   128   am
   198   111   112    1
   199   125   126    1
   200   115   116   ar
   201   112   114   ar
   202   128   129    1
   203   129   132    1
   204   116   114   ar
   205   116   118   ar
   206   114   117   ar
   207   132   134    1
   208   132   133    1
   209   118   120   ar
   210   117   119   ar
   211   133   135    1
   212   120   119   ar
