@<TRIPOS>MOLECULE
tmp/4nmcB03.pdb
 101 99 0 0 0
SMALL
GASTEIGER

@<TRIPOS>ATOM
      1  N        240.5490   66.7830 -124.0240 N.3    32  TRP32      -0.1241
      2  CA       241.3090   66.5010 -125.2460 C.3    32  TRP32       0.1605
      3  C        240.7420   67.2200 -126.4730 C.2    32  TRP32       0.2264
      4  O        241.4940   67.7940 -127.2710 O.2    32  TRP32      -0.2867
      5  CB       241.3640   64.9970 -125.5390 C.3    32  TRP32       0.0550
      6  CG       241.7710   64.7240 -126.9640 C.ar   32  TRP32       0.0003
      7  CD1      240.9780   64.2540 -127.9810 C.ar   32  TRP32       0.0946
      8  CD2      243.0630   64.9540 -127.5370 C.ar   32  TRP32       0.0152
      9  NE1      241.7120   64.1610 -129.1460 N.ar   32  TRP32      -0.2442
     10  CE2      242.9930   64.5840 -128.8960 C.ar   32  TRP32       0.0810
     11  CE3      244.2750   65.4280 -127.0290 C.ar   32  TRP32       0.0012
     12  CZ2      244.0930   64.6750 -129.7460 C.ar   32  TRP32       0.0191
     13  CZ3      245.3600   65.5130 -127.8710 C.ar   32  TRP32       0.0001
     14  CH2      245.2620   65.1440 -129.2130 C.ar   32  TRP32       0.0015
     15  N        244.9860   73.4440 -131.1300 N.3    39  TRP39      -0.1241
     16  CA       246.1710   73.1400 -131.9220 C.3    39  TRP39       0.1605
     17  C        245.8700   73.2040 -133.4100 C.2    39  TRP39       0.2264
     18  O        246.7100   73.6380 -134.2020 O.2    39  TRP39      -0.2867
     19  CB       246.6970   71.7530 -131.5570 C.3    39  TRP39       0.0550
     20  CG       247.2540   71.6890 -130.1680 C.ar   39  TRP39       0.0003
     21  CD1      247.6550   72.7440 -129.3960 C.ar   39  TRP39       0.0946
     22  CD2      247.4710   70.5100 -129.3830 C.ar   39  TRP39       0.0152
     23  NE1      248.1090   72.2910 -128.1740 N.ar   39  TRP39      -0.2442
     24  CE2      248.0040   70.9230 -128.1420 C.ar   39  TRP39       0.0810
     25  CE3      247.2710   69.1440 -129.6120 C.ar   39  TRP39       0.0012
     26  CZ2      248.3410   70.0150 -127.1330 C.ar   39  TRP39       0.0191
     27  CZ3      247.6010   68.2470 -128.6110 C.ar   39  TRP39       0.0001
     28  CH2      248.1320   68.6850 -127.3860 C.ar   39  TRP39       0.0015
     29  N        248.9740   70.6330 -138.6710 N.3    46  PHE46      -0.1241
     30  CA       248.4350   69.7550 -137.6420 C.3    46  PHE46       0.1605
     31  C        246.9450   69.4820 -137.8410 C.2    46  PHE46       0.2264
     32  O        246.4930   68.3490 -137.6810 O.2    46  PHE46      -0.2867
     33  CB       248.6710   70.3180 -136.2360 C.3    46  PHE46       0.0534
     34  CG       248.1400   69.4310 -135.1470 C.ar   46  PHE46      -0.0203
     35  CD1      248.9140   68.3930 -134.6540 C.ar   46  PHE46      -0.0042
     36  CD2      246.8650   69.6130 -134.6370 C.ar   46  PHE46      -0.0042
     37  CE1      248.4280   67.5590 -133.6730 C.ar   46  PHE46      -0.0003
     38  CE2      246.3680   68.7730 -133.6550 C.ar   46  PHE46      -0.0003
     39  CZ       247.1530   67.7440 -133.1730 C.ar   46  PHE46      -0.0000
     40  N        245.4490   65.9300 -138.0060 N.3    50  MET50      -0.1245
     41  CA       244.4620   65.5610 -136.9990 C.3    50  MET50       0.1570
     42  C        243.1420   65.1220 -137.6160 C.2    50  MET50       0.2261
     43  O        242.6020   64.0720 -137.2460 O.2    50  MET50      -0.2867
     44  CB       244.2000   66.7090 -136.0260 C.3    50  MET50       0.0387
     45  CG       243.2420   66.3290 -134.9120 C.3    50  MET50       0.0595
     46  SD       244.0330   65.2200 -133.7370 S.3    50  MET50      -0.1393
     47  CE       243.2390   63.6510 -134.0720 C.3    50  MET50       0.0692
     48  N        243.4850   61.9460 -139.3220 N.3    53  PHE53      -0.1241
     49  CA       243.6350   60.8460 -138.3710 C.3    53  PHE53       0.1605
     50  C        242.2760   60.4270 -137.8030 C.2    53  PHE53       0.2264
     51  O        242.0220   59.2340 -137.6190 O.2    53  PHE53      -0.2867
     52  CB       244.6090   61.1880 -137.2350 C.3    53  PHE53       0.0534
     53  CG       244.8760   60.0310 -136.3080 C.ar   53  PHE53      -0.0203
     54  CD1      245.8360   59.0800 -136.6230 C.ar   53  PHE53      -0.0042
     55  CD2      244.1540   59.8820 -135.1370 C.ar   53  PHE53      -0.0042
     56  CE1      246.0820   58.0050 -135.7760 C.ar   53  PHE53      -0.0003
     57  CE2      244.3920   58.8110 -134.2910 C.ar   53  PHE53      -0.0003
     58  CZ       245.3630   57.8740 -134.6120 C.ar   53  PHE53      -0.0000
     59  N        249.8450   56.6360 -135.9120 N.3    70  ILE70      -0.1245
     60  CA       250.2120   57.7420 -135.0280 C.3    70  ILE70       0.1561
     61  C        251.6060   58.2790 -135.3880 C.2    70  ILE70       0.2260
     62  O        251.7850   59.4870 -135.5790 O.2    70  ILE70      -0.2867
     63  CB       250.0940   57.3370 -133.5430 C.3    70  ILE70       0.0252
     64  CG1      248.6400   57.5020 -133.0940 C.3    70  ILE70       0.0019
     65  CG2      250.9980   58.1980 -132.6650 C.3    70  ILE70       0.0019
     66  CD1      248.1620   56.4540 -132.1190 C.3    70  ILE70       0.0001
     67  N        251.8810   61.9300 -137.0310 N.3    74  PHE74      -0.1241
     68  CA       252.2880   62.9600 -136.0800 C.3    74  PHE74       0.1605
     69  C        253.7750   62.9420 -135.7370 C.2    74  PHE74       0.2264
     70  O        254.2480   63.8220 -135.0210 O.2    74  PHE74      -0.2867
     71  CB       251.4690   62.8400 -134.7930 C.3    74  PHE74       0.0534
     72  CG       249.9770   62.9420 -135.0110 C.ar   74  PHE74      -0.0203
     73  CD1      249.3930   64.1560 -135.3470 C.ar   74  PHE74      -0.0042
     74  CD2      249.1640   61.8270 -134.8760 C.ar   74  PHE74      -0.0042
     75  CE1      248.0200   64.2600 -135.5450 C.ar   74  PHE74      -0.0003
     76  CE2      247.7910   61.9220 -135.0720 C.ar   74  PHE74      -0.0003
     77  CZ       247.2210   63.1420 -135.4080 C.ar   74  PHE74      -0.0000
     78  N        243.8620   56.3920 -126.3400 N.3    84  LEU84      -0.1245
     79  CA       243.7270   57.0000 -127.6570 C.3    84  LEU84       0.1561
     80  C        242.3290   56.7940 -128.2130 C.2    84  LEU84       0.2260
     81  O        241.7410   57.7140 -128.7870 O.2    84  LEU84      -0.2867
     82  CB       244.7660   56.4180 -128.6190 C.3    84  LEU84       0.0270
     83  CG       246.2190   56.5640 -128.1620 C.3    84  LEU84       0.0019
     84  CD1      247.1110   55.5220 -128.8190 C.3    84  LEU84       0.0001
     85  CD2      246.7270   57.9520 -128.4710 C.3    84  LEU84       0.0001
     86  N        239.8470   59.0480 -126.6090 N.3    87  ASN87      -0.1225
     87  CA       239.9990   60.4310 -127.0450 C.3    87  ASN87       0.1785
     88  C        239.2550   60.7150 -128.3380 C.2    87  ASN87       0.2597
     89  O        238.5570   61.7230 -128.4500 O.2    87  ASN87      -0.2718
     90  CB       241.4780   60.8180 -127.1530 C.3    87  ASN87       0.1169
     91  CG       242.1210   61.0310 -125.7930 C.2    87  ASN87       0.2627
     92  OD1      241.4280   61.1510 -124.7840 O.2    87  ASN87      -0.2716
     93  ND2      243.4470   61.0850 -125.7590 N.am   87  ASN87      -0.0877
     94  N        239.3910   59.8180 -129.3100 N.am   88  ILE88      -0.1980
     95  CA       238.6950   59.9950 -130.5780 C.3    88  ILE88       0.1595
     96  C        237.1890   59.8130 -130.3960 C.2    88  ILE88       0.2287
     97  O        236.3940   60.5160 -131.0230 O.2    88  ILE88      -0.2864
     98  CB       239.2340   59.0480 -131.6690 C.3    88  ILE88       0.0276
     99  CG1      240.7540   59.1290 -131.7320 C.3    88  ILE88       0.0022
    100  CG2      238.6870   59.4360 -133.0120 C.3    88  ILE88       0.0022
    101  CD1      241.2680   60.4970 -132.1280 C.3    88  ILE88       0.0001
@<TRIPOS>BOND
     1    48    49    1
     2    29    30    1
     3    49    50    1
     4    49    52    1
     5    40    41    1
     6    31    32    2
     7    31    30    1
     8    50    51    2
     9    30    33    1
    10    42    43    2
    11    42    41    1
    12    52    53    1
    13    67    68    1
    14    41    44    1
    15    54    53   ar
    16    54    56   ar
    17    53    55   ar
    18    33    34    1
    19    68    69    1
    20    68    71    1
    21    44    45    1
    22    59    60    1
    23    56    58   ar
    24    69    70    2
    25    62    61    2
    26    75    77   ar
    27    75    73   ar
    28    77    76   ar
    29    61    60    1
    30    73    72   ar
    31    34    35   ar
    32    34    36   ar
    33    55    57   ar
    34    76    74   ar
    35    60    63    1
    36    72    74   ar
    37    72    71    1
    38    45    46    1
    39    35    37   ar
    40    36    38   ar
    41    58    57   ar
    42    18    17    2
    43    47    46    1
    44    37    39   ar
    45    38    39   ar
    46    63    64    1
    47    63    65    1
    48    17    16    1
    49    64    66    1
    50   100    98    1
    51   101    99    1
    52    16    19    1
    53    16    15    1
    54    99    98    1
    55    98    95    1
    56    19    20    1
    57    97    96    2
    58    95    96    1
    59    95    94    1
    60    20    21   ar
    61    20    22   ar
    62    12    14   ar
    63    12    10   ar
    64    25    22   ar
    65    25    27   ar
    66    21    23   ar
    67    22    24   ar
    68    94    88   am
    69    14    13   ar
    70     9    10   ar
    71     9     7   ar
    72    10     8   ar
    73    84    83    1
    74    81    80    2
    75    82    83    1
    76    82    79    1
    77    27    28   ar
    78    85    83    1
    79    89    88    2
    80    88    87    1
    81    80    79    1
    82    23    24   ar
    83    24    26   ar
    84     7     6   ar
    85    13    11   ar
    86    79    78    1
    87     8    11   ar
    88     8     6   ar
    89    28    26   ar
    90     4     3    2
    91    90    87    1
    92    90    91    1
    93    87    86    1
    94     6     5    1
    95     3     2    1
    96    91    93   am
    97    91    92    2
    98     5     2    1
    99     2     1    1
