@<TRIPOS>MOLECULE
tmp/4nmfB01.pdb
 103 98 0 0 0
SMALL
GASTEIGER

@<TRIPOS>ATOM
      1  N          9.6540   40.1590   62.5620 N.3   126  ASP126     -0.1239
      2  CA         9.3690   39.0780   61.6300 C.3   126  ASP126      0.1674
      3  C          9.4160   37.7280   62.3550 C.2   126  ASP126      0.2266
      4  O         10.2070   37.5280   63.2810 O.2   126  ASP126     -0.2867
      5  CB        10.3770   39.1220   60.4800 C.3   126  ASP126      0.1410
      6  CG        10.3730   37.8710   59.6430 C.2   126  ASP126      0.3668
      7  OD1        9.5460   37.7810   58.7080 O.co2 126  ASP126     -0.2456
      8  OD2       11.2120   36.9820   59.9150 O.co2 126  ASP126     -0.2456
      9  N         10.2660   33.8470   62.2810 N.3   128  LEU128     -0.1245
     10  CA        11.0050   32.8070   61.5600 C.3   128  LEU128      0.1561
     11  C         10.1280   31.5790   61.3890 C.2   128  LEU128      0.2260
     12  O          9.3620   31.2310   62.2870 O.2   128  LEU128     -0.2867
     13  CB        12.2580   32.3990   62.3250 C.3   128  LEU128      0.0270
     14  CG        13.3800   33.4250   62.4390 C.3   128  LEU128      0.0019
     15  CD1       14.3100   33.0380   63.5890 C.3   128  LEU128      0.0001
     16  CD2       14.1400   33.5200   61.1310 C.3   128  LEU128      0.0001
     17  N          5.7640   37.2750   55.4130 N.3   184  LYS184     -0.1245
     18  CA         6.0980   36.6700   54.1100 C.3   184  LYS184      0.1561
     19  C          4.8590   36.0510   53.5030 C.2   184  LYS184      0.2260
     20  O          4.3450   35.0380   54.0540 O.2   184  LYS184     -0.2867
     21  CB         7.1320   35.5730   54.2320 C.3   184  LYS184      0.0271
     22  CG         8.3770   35.9110   55.0070 C.3   184  LYS184      0.0035
     23  CD         9.2280   36.9640   54.3740 C.3   184  LYS184      0.0206
     24  CE        10.5720   37.2440   54.9930 C.3   184  LYS184      0.1093
     25  NZ        11.5020   37.9510   54.1310 N.3   184  LYS184     -0.1314
     26  N         16.9500   39.8480   47.4790 N.3   289  ALA289     -0.1231
     27  CA        17.5910   38.7950   48.2710 C.3   289  ALA289      0.1694
     28  C         17.9010   37.4930   47.5400 C.2   289  ALA289      0.2592
     29  O         18.5600   36.6240   48.1100 O.2   289  ALA289     -0.2718
     30  CB        16.7560   38.4860   49.5170 C.3   289  ALA289      0.0304
     31  N         17.4250   37.3490   46.3040 N.am  290  TYR290     -0.1976
     32  CA        17.4550   36.0580   45.6110 C.3   290  TYR290      0.1639
     33  C         18.2520   36.0950   44.2990 C.2   290  TYR290      0.2290
     34  O         17.9080   35.3730   43.3630 O.2   290  TYR290     -0.2864
     35  CB        16.0160   35.5890   45.2920 C.3   290  TYR290      0.0560
     36  CG        15.0540   35.6280   46.4650 C.ar  290  TYR290     -0.0198
     37  CD1       14.3620   36.7910   46.7860 C.ar  290  TYR290     -0.0009
     38  CD2       14.8310   34.4950   47.2430 C.ar  290  TYR290     -0.0009
     39  CE1       13.4860   36.8320   47.8640 C.ar  290  TYR290      0.0417
     40  CE2       13.9530   34.5210   48.3120 C.ar  290  TYR290      0.0417
     41  CZ        13.2820   35.6860   48.6190 C.ar  290  TYR290      0.1957
     42  OH        12.4060   35.6960   49.6900 O.3   290  TYR290     -0.2866
     43  N         19.1170   45.1070   58.7720 N.3   366  LEU366     -0.1245
     44  CA        18.8440   43.8190   59.3940 C.3   366  LEU366      0.1561
     45  C         19.5100   43.7700   60.7560 C.2   366  LEU366      0.2260
     46  O         20.6610   44.1790   60.9020 O.2   366  LEU366     -0.2867
     47  CB        19.3340   42.6710   58.5090 C.3   366  LEU366      0.0270
     48  CG        18.6510   42.5680   57.1440 C.3   366  LEU366      0.0019
     49  CD1       19.2280   41.4170   56.3190 C.3   366  LEU366      0.0001
     50  CD2       17.1350   42.4250   57.3030 C.3   366  LEU366      0.0001
     51  N         15.1770   45.3680   61.4190 N.3   387  TYR387     -0.1241
     52  CA        14.3700   44.2100   61.0330 C.3   387  TYR387      0.1605
     53  C         14.7810   43.0890   61.9600 C.2   387  TYR387      0.2264
     54  O         15.9300   42.6410   61.9290 O.2   387  TYR387     -0.2867
     55  CB        14.5990   43.8210   59.5610 C.3   387  TYR387      0.0534
     56  CG        13.5740   42.8480   58.9950 C.ar  387  TYR387     -0.0201
     57  CD1       13.6790   41.4790   59.2200 C.ar  387  TYR387     -0.0009
     58  CD2       12.5090   43.2990   58.2270 C.ar  387  TYR387     -0.0009
     59  CE1       12.7400   40.5950   58.7060 C.ar  387  TYR387      0.0417
     60  CE2       11.5620   42.4150   57.7010 C.ar  387  TYR387      0.0417
     61  CZ        11.6870   41.0660   57.9440 C.ar  387  TYR387      0.1957
     62  OH        10.7500   40.1840   57.4350 O.3   387  TYR387     -0.2866
     63  N         14.0340   39.3920   63.3340 N.3   389  PRO389     -0.2116
     64  CA        13.3750   38.0890   63.2800 C.3   389  PRO389      0.1372
     65  C         13.4980   37.3510   64.6170 C.2   389  PRO389      0.2244
     66  O         14.4660   37.5680   65.3760 O.2   389  PRO389     -0.2868
     67  CB        14.1270   37.3720   62.1560 C.3   389  PRO389      0.0268
     68  CG        15.4970   37.9710   62.1800 C.3   389  PRO389      0.0207
     69  CD        15.3690   39.3730   62.7040 C.3   389  PRO389      0.0892
     70  N         18.3760   31.0420   57.7830 N.3   399  TYR399     -0.1241
     71  CA        18.5010   32.4950   57.7330 C.3   399  TYR399      0.1605
     72  C         19.9530   32.9100   57.9230 C.2   399  TYR399      0.2264
     73  O         20.4650   33.7570   57.1900 O.2   399  TYR399     -0.2867
     74  CB        17.6280   33.1230   58.8210 C.3   399  TYR399      0.0534
     75  CG        17.7110   34.6320   58.9100 C.ar  399  TYR399     -0.0201
     76  CD1       17.3390   35.4290   57.8430 C.ar  399  TYR399     -0.0009
     77  CD2       18.1440   35.2590   60.0650 C.ar  399  TYR399     -0.0009
     78  CE1       17.4100   36.8010   57.9160 C.ar  399  TYR399      0.0417
     79  CE2       18.2130   36.6470   60.1490 C.ar  399  TYR399      0.0417
     80  CZ        17.8360   37.4080   59.0710 C.ar  399  TYR399      0.1957
     81  OH        17.8820   38.7860   59.1340 O.3   399  TYR399     -0.2866
     82  N         22.0990   32.4820   54.8050 N.3   402  ARG402     -0.1231
     83  CA        21.8150   33.5060   53.8110 C.3   402  ARG402      0.1694
     84  C         22.4320   34.8450   54.1930 C.2   402  ARG402      0.2591
     85  O         22.8980   35.5800   53.3190 O.2   402  ARG402     -0.2718
     86  CB        20.3090   33.5870   53.5400 C.3   402  ARG402      0.0321
     87  CG        19.8020   32.3060   52.8650 C.3   402  ARG402      0.0489
     88  CD        18.3160   32.3260   52.5570 C.3   402  ARG402      0.2205
     89  NE        17.9730   33.3650   51.5970 N.pl3 402  ARG402     -0.0865
     90  CZ        17.8220   33.1440   50.2970 C.cat 402  ARG402      0.5346
     91  NH1       17.5140   34.1420   49.4850 N.pl3 402  ARG402      0.1354
     92  NH2       17.9740   31.9170   49.8120 N.pl3 402  ARG402      0.1354
     93  N         22.5070   35.1380   55.4920 N.am  403  ARG403     -0.1980
     94  CA        23.2340   36.3310   55.9510 C.3   403  ARG403      0.1597
     95  C         24.7350   36.2390   55.6820 C.2   403  ARG403      0.2287
     96  O         25.3650   37.2260   55.2690 O.2   403  ARG403     -0.2864
     97  CB        23.0090   36.5800   57.4540 C.3   403  ARG403      0.0334
     98  CG        21.5500   36.9250   57.8330 C.3   403  ARG403      0.0492
     99  CD        21.0260   38.1400   57.0800 C.3   403  ARG403      0.2205
    100  NE        20.2600   37.7280   55.9060 N.pl3 403  ARG403     -0.0865
    101  CZ        20.3950   38.2460   54.6920 C.cat 403  ARG403      0.5346
    102  NH1       19.6430   37.7830   53.6990 N.pl3 403  ARG403      0.1354
    103  NH2       21.2770   39.2190   54.4660 N.pl3 403  ARG403      0.1354
@<TRIPOS>BOND
     1    34    33    2
     2    33    32    1
     3    35    32    1
     4    35    36    1
     5    32    31    1
     6    31    28   am
     7    36    37   ar
     8    36    38   ar
     9    37    39   ar
    10    38    40   ar
    11    26    27    1
    12    28    29    2
    13    28    27    1
    14    39    41   ar
    15    27    30    1
    16    40    41   ar
    17    41    42    1
    18    91    90    1
    19    92    90    1
    20    90    89    2
    21    89    88    1
    22    88    87    1
    23    87    86    1
    24    85    84    2
    25    19    20    2
    26    19    18    1
    27    86    83    1
    28   102   101    1
    29    83    84    1
    30    83    82    1
    31    18    21    1
    32    18    17    1
    33    25    24    1
    34    84    93   am
    35    21    22    1
    36    23    24    1
    37    23    22    1
    38   103   101    1
    39   101   100    2
    40    96    95    2
    41    93    94    1
    42    95    94    1
    43   100    99    1
    44    94    97    1
    45    49    48    1
    46    99    98    1
    47    48    50    1
    48    48    47    1
    49    73    72    2
    50    62    61    1
    51    97    98    1
    52    60    61   ar
    53    60    58   ar
    54    71    70    1
    55    71    72    1
    56    71    74    1
    57    76    78   ar
    58    76    75   ar
    59    78    80   ar
    60    61    59   ar
    61    58    56   ar
    62    47    44    1
    63    59    57   ar
    64     7     6   ar
    65    43    44    1
    66    74    75    1
    67    75    77   ar
    68    56    57   ar
    69    56    55    1
    70    80    81    1
    71    80    79   ar
    72    44    45    1
    73    55    52    1
    74     6     8   ar
    75     6     5    1
    76    77    79   ar
    77     5     2    1
    78    45    46    2
    79    52    51    1
    80    52    53    1
    81    16    14    1
    82    11    10    1
    83    11    12    2
    84    10     9    1
    85    10    13    1
    86     2     3    1
    87     2     1    1
    88    54    53    2
    89    67    68    1
    90    67    64    1
    91    68    69    1
    92    13    14    1
    93     3     4    2
    94    14    15    1
    95    69    63    1
    96    64    63    1
    97    64    65    1
    98    65    66    2
