@<TRIPOS>MOLECULE
tmp/4nmhD00.pdb
 158 148 0 0 0
SMALL
GASTEIGER

@<TRIPOS>ATOM
      1  N        -46.6060  -17.9420   36.2390 N.3    96  ILE96      -0.1245
      2  CA       -46.5200  -17.4440   37.6220 C.3    96  ILE96       0.1561
      3  C        -47.5840  -16.3880   37.8970 C.2    96  ILE96       0.2260
      4  O        -48.0820  -15.7390   36.9790 O.2    96  ILE96      -0.2867
      5  CB       -45.1480  -16.7960   37.9500 C.3    96  ILE96       0.0252
      6  CG1      -44.8150  -15.6780   36.9500 C.3    96  ILE96       0.0019
      7  CG2      -44.0500  -17.8520   37.9970 C.3    96  ILE96       0.0019
      8  CD1      -43.5630  -14.9100   37.3020 C.3    96  ILE96       0.0001
      9  N        -46.0840  -10.6440   40.9990 N.3    99  THR99      -0.1218
     10  CA       -45.4140  -10.3040   42.2520 C.3    99  THR99       0.1862
     11  C        -44.7180   -8.9530   42.1100 C.2    99  THR99       0.2287
     12  O        -44.0990   -8.6710   41.0780 O.2    99  THR99      -0.2866
     13  CB       -44.3710  -11.3760   42.6710 C.3    99  THR99       0.1770
     14  OG1      -43.3540  -11.5000   41.6640 O.3    99  THR99      -0.2211
     15  CG2      -45.0420  -12.7300   42.8970 C.3    99  THR99       0.0375
     16  N        -41.8990   -6.1710   43.8290 N.3   101  LEU101     -0.1245
     17  CA       -40.7230   -6.0910   44.6860 C.3   101  LEU101      0.1561
     18  C        -41.0260   -5.1880   45.8700 C.2   101  LEU101      0.2260
     19  O        -41.1640   -3.9770   45.7180 O.2   101  LEU101     -0.2867
     20  CB       -39.5050   -5.5510   43.9220 C.3   101  LEU101      0.0270
     21  CG       -38.7680   -6.4830   42.9530 C.3   101  LEU101      0.0019
     22  CD1      -38.1290   -7.6370   43.6940 C.3   101  LEU101      0.0001
     23  CD2      -39.6850   -6.9950   41.8570 C.3   101  LEU101      0.0001
     24  N        -35.8340  -19.8690   38.9200 N.3   145  SER145     -0.1202
     25  CA       -35.0760  -18.6220   38.9440 C.3   145  SER145      0.2020
     26  C        -33.7770  -18.7750   39.7220 C.2   145  SER145      0.2619
     27  O        -33.5300  -19.8120   40.3350 O.2   145  SER145     -0.2717
     28  CB       -35.9170  -17.5270   39.5960 C.3   145  SER145      0.2103
     29  OG       -35.1710  -16.3360   39.7500 O.3   145  SER145     -0.2182
     30  N        -32.9490  -17.7330   39.6910 N.am  146  LEU146     -0.1965
     31  CA       -31.8260  -17.6100   40.6250 C.3   146  LEU146      0.1728
     32  C        -32.3780  -17.5430   42.0440 C.2   146  LEU146      0.2616
     33  O        -31.7920  -18.0890   42.9760 O.2   146  LEU146     -0.2715
     34  CB       -31.0000  -16.3520   40.3520 C.3   146  LEU146      0.0311
     35  CG       -30.2190  -16.2920   39.0400 C.3   146  LEU146      0.0022
     36  CD1      -29.6290  -14.9080   38.8620 C.3   146  LEU146      0.0001
     37  CD2      -29.1310  -17.3540   38.9980 C.3   146  LEU146      0.0001
     38  N        -33.5200  -16.8760   42.1870 N.am  147  ALA147     -0.1977
     39  CA       -34.2190  -16.7560   43.4680 C.3   147  ALA147      0.1597
     40  C        -34.8290  -18.0740   43.9580 C.2   147  ALA147      0.2287
     41  O        -35.4030  -18.1230   45.0470 O.2   147  ALA147     -0.2864
     42  CB       -35.3010  -15.6860   43.3740 C.3   147  ALA147      0.0319
     43  N        -32.8480  -13.3700   47.6490 N.3   152  TYR152     -0.1228
     44  CA       -32.7620  -11.9280   47.3920 C.3   152  TYR152      0.1721
     45  C        -33.7880  -11.1770   48.2450 C.2   152  TYR152      0.2437
     46  O        -34.8910  -11.6750   48.4670 O.2   152  TYR152     -0.2733
     47  CB       -33.0440  -11.6190   45.9260 C.3   152  TYR152      0.0547
     48  CG       -32.0870  -12.2470   44.9460 C.ar  152  TYR152     -0.0200
     49  CD1      -32.2340  -13.5730   44.5540 C.ar  152  TYR152     -0.0009
     50  CD2      -31.0540  -11.5070   44.3830 C.ar  152  TYR152     -0.0009
     51  CE1      -31.3690  -14.1480   43.6440 C.ar  152  TYR152      0.0417
     52  CE2      -30.1860  -12.0740   43.4710 C.ar  152  TYR152      0.0417
     53  CZ       -30.3440  -13.3910   43.1040 C.ar  152  TYR152      0.1957
     54  OH       -29.4700  -13.9480   42.1930 O.3   152  TYR152     -0.2866
     55  N        -33.4300   -9.9780   48.7360 N.am  153  PRO153     -0.2729
     56  CA       -34.4350   -9.1680   49.4280 C.3   153  PRO153      0.1401
     57  C        -35.6150   -8.7690   48.5330 C.2   153  PRO153      0.2269
     58  O        -35.4740   -8.6880   47.3110 O.2   153  PRO153     -0.2865
     59  CB       -33.6550   -7.9200   49.8680 C.3   153  PRO153      0.0296
     60  CG       -32.2210   -8.2620   49.7340 C.3   153  PRO153      0.0237
     61  CD       -32.1040   -9.3370   48.7190 C.3   153  PRO153      0.0939
     62  N        -38.3720  -10.3700   47.7280 N.3   155  VAL155     -0.1245
     63  CA       -38.9950  -11.4320   46.9130 C.3   155  VAL155      0.1561
     64  C        -39.1890  -12.7240   47.7180 C.2   155  VAL155      0.2260
     65  O        -38.9400  -13.8260   47.2220 O.2   155  VAL155     -0.2867
     66  CB       -38.1760  -11.7450   45.6310 C.3   155  VAL155      0.0252
     67  CG1      -38.3380  -10.6440   44.6020 C.3   155  VAL155      0.0019
     68  CG2      -36.7130  -11.9610   45.9660 C.3   155  VAL155      0.0019
     69  N        -42.1480  -15.2700   46.4340 N.3   158  TYR158     -0.1241
     70  CA       -41.6480  -15.7520   45.1450 C.3   158  TYR158      0.1605
     71  C        -40.5720  -16.8240   45.3250 C.2   158  TYR158      0.2264
     72  O        -40.6260  -17.8810   44.6940 O.2   158  TYR158     -0.2867
     73  CB       -41.0750  -14.5690   44.3680 C.3   158  TYR158      0.0534
     74  CG       -40.5380  -14.8790   42.9840 C.ar  158  TYR158     -0.0201
     75  CD1      -41.3970  -15.1840   41.9310 C.ar  158  TYR158     -0.0009
     76  CD2      -39.1690  -14.8240   42.7180 C.ar  158  TYR158     -0.0009
     77  CE1      -40.9040  -15.4470   40.6520 C.ar  158  TYR158      0.0417
     78  CE2      -38.6690  -15.0820   41.4450 C.ar  158  TYR158      0.0417
     79  CZ       -39.5400  -15.3920   40.4180 C.ar  158  TYR158      0.1957
     80  OH       -39.0460  -15.6480   39.1580 O.3   158  TYR158     -0.2866
     81  N        -33.0440  -19.4450   35.8470 N.3   190  LEU190     -0.1231
     82  CA       -32.9680  -18.2670   34.9810 C.3   190  LEU190      0.1693
     83  C        -32.5840  -17.0050   35.7530 C.2   190  LEU190      0.2593
     84  O        -33.0890  -16.7540   36.8510 O.2   190  LEU190     -0.2718
     85  CB       -34.3170  -18.0220   34.2930 C.3   190  LEU190      0.0284
     86  CG       -34.6670  -18.8360   33.0480 C.3   190  LEU190      0.0019
     87  CD1      -34.5720  -20.3200   33.3140 C.3   190  LEU190      0.0001
     88  CD2      -36.0650  -18.4650   32.5790 C.3   190  LEU190      0.0001
     89  N        -31.6970  -16.2130   35.1590 N.am  191  GLY191     -0.1942
     90  CA       -31.4010  -14.8670   35.6500 C.3   191  GLY191      0.2014
     91  C        -32.4010  -13.8670   35.0960 C.2   191  GLY191      0.2638
     92  O        -33.3470  -14.2470   34.4110 O.2   191  GLY191     -0.2714
     93  N        -32.1840  -12.5870   35.3790 N.am  192  LEU192     -0.1977
     94  CA       -33.0830  -11.5200   34.9160 C.3   192  LEU192      0.1596
     95  C        -33.2500  -11.5520   33.3980 C.2   192  LEU192      0.2287
     96  O        -32.2620  -11.4840   32.6620 O.2   192  LEU192     -0.2864
     97  CB       -32.5450  -10.1490   35.3400 C.3   192  LEU192      0.0297
     98  CG       -33.4500   -8.9350   35.1140 C.3   192  LEU192      0.0022
     99  CD1      -34.6450   -8.9640   36.0480 C.3   192  LEU192      0.0001
    100  CD2      -32.6620   -7.6510   35.3130 C.3   192  LEU192      0.0001
    101  N        -38.2240   -9.4410   29.7600 N.3   195  THR195     -0.1218
    102  CA       -39.6670   -9.4120   29.5310 C.3   195  THR195      0.1862
    103  C        -40.2400   -8.0920   30.0520 C.2   195  THR195      0.2287
    104  O        -39.7340   -7.5140   31.0120 O.2   195  THR195     -0.2866
    105  CB       -40.4080  -10.5880   30.2150 C.3   195  THR195      0.1770
    106  OG1      -40.3020  -10.4680   31.6380 O.3   195  THR195     -0.2211
    107  CG2      -39.8410  -11.9280   29.7690 C.3   195  THR195      0.0375
    108  N        -42.8460   -7.3610   31.7500 N.3   197  THR197     -0.1203
    109  CA       -43.2680   -7.4070   33.1530 C.3   197  THR197      0.1994
    110  C        -42.0930   -7.2510   34.1090 C.2   197  THR197      0.2617
    111  O        -42.1740   -6.5180   35.0940 O.2   197  THR197     -0.2717
    112  CB       -43.9570   -8.7410   33.4900 C.3   197  THR197      0.1784
    113  OG1      -45.0690   -8.9460   32.6090 O.3   197  THR197     -0.2211
    114  CG2      -44.4380   -8.7500   34.9340 C.3   197  THR197      0.0376
    115  N        -41.0090   -7.9620   33.8130 N.am  198  ALA198     -0.1979
    116  CA       -39.8150   -7.9660   34.6600 C.3   198  ALA198      0.1597
    117  C        -39.1380   -6.5990   34.6900 C.2   198  ALA198      0.2287
    118  O        -38.7530   -6.1130   35.7540 O.2   198  ALA198     -0.2864
    119  CB       -38.8410   -9.0190   34.1780 C.3   198  ALA198      0.0319
    120  N        -41.0310   -4.1120   36.6520 N.3   201  GLU201     -0.1231
    121  CA       -40.9340   -4.3640   38.0970 C.3   201  GLU201      0.1699
    122  C        -39.5960   -3.9380   38.7090 C.2   201  GLU201      0.2592
    123  O        -39.5740   -3.2940   39.7560 O.2   201  GLU201     -0.2718
    124  CB       -41.2180   -5.8370   38.4040 C.3   201  GLU201      0.0402
    125  CG       -42.6970   -6.1960   38.3020 C.3   201  GLU201      0.1161
    126  CD       -42.9500   -7.6910   38.3640 C.2   201  GLU201      0.3649
    127  OE1      -42.0890   -8.4140   38.8880 O.co2 201  GLU201     -0.2457
    128  OE2      -44.0980   -8.0910   38.0650 O.co2 201  GLU201     -0.2457
    129  N        -38.4910   -4.2870   38.0540 N.am  202  ILE202     -0.1980
    130  CA       -37.1500   -3.9070   38.5370 C.3   202  ILE202      0.1595
    131  C        -36.8630   -2.4100   38.3740 C.2   202  ILE202      0.2287
    132  O        -35.8840   -1.8980   38.9230 O.2   202  ILE202     -0.2864
    133  CB       -36.0220   -4.7080   37.8400 C.3   202  ILE202      0.0276
    134  CG1      -35.8910   -4.3180   36.3590 C.3   202  ILE202      0.0022
    135  CG2      -36.2600   -6.2050   38.0000 C.3   202  ILE202      0.0022
    136  CD1      -34.7420   -5.0100   35.6400 C.3   202  ILE202      0.0001
    137  N        -33.9850   -2.1530   41.1500 N.3   206  ILE206     -0.1245
    138  CA       -32.8060   -2.9810   40.8740 C.3   206  ILE206      0.1561
    139  C        -32.1020   -2.5150   39.6000 C.2   206  ILE206      0.2260
    140  O        -32.7470   -2.2790   38.5750 O.2   206  ILE206     -0.2867
    141  CB       -33.1920   -4.4780   40.7670 C.3   206  ILE206      0.0252
    142  CG1      -33.5680   -5.0170   42.1520 C.3   206  ILE206      0.0019
    143  CG2      -32.0520   -5.3070   40.1700 C.3   206  ILE206      0.0019
    144  CD1      -34.5980   -6.1250   42.1200 C.3   206  ILE206      0.0001
    145  N        -29.6650   -3.9590   37.1960 N.3   208  ALA208     -0.1231
    146  CA       -28.9930   -5.1570   36.6900 C.3   208  ALA208      0.1694
    147  C        -29.2820   -5.3610   35.2090 C.2   208  ALA208      0.2591
    148  O        -30.3380   -4.9640   34.7110 O.2   208  ALA208     -0.2718
    149  CB       -29.4220   -6.3780   37.4810 C.3   208  ALA208      0.0304
    150  N        -28.3340   -5.9900   34.5180 N.am  209  GLN209     -0.1979
    151  CA       -28.4560   -6.2740   33.0860 C.3   209  GLN209      0.1601
    152  C        -29.3300   -7.5020   32.8250 C.2   209  GLN209      0.2287
    153  O        -29.1290   -8.5550   33.4270 O.2   209  GLN209     -0.2864
    154  CB       -27.0830   -6.5370   32.4680 C.3   209  GLN209      0.0394
    155  CG       -26.1820   -5.3310   32.3430 C.3   209  GLN209      0.0908
    156  CD       -24.9070   -5.6640   31.5870 C.2   209  GLN209      0.2608
    157  OE1      -24.2810   -6.6970   31.8320 O.2   209  GLN209     -0.2717
    158  NE2      -24.5210   -4.7960   30.6580 N.am  209  GLN209     -0.0878
@<TRIPOS>BOND
     1   102   101    1
     2   102   103    1
     3   102   105    1
     4   107   105    1
     5   103   104    2
     6   105   106    1
     7   158   156   am
     8   156   157    2
     9   156   155    1
    10   108   109    1
    11   155   154    1
    12   154   151    1
    13    88    86    1
    14   113   112    1
    15    96    95    2
    16   152   151    1
    17   152   153    2
    18    86    87    1
    19    86    85    1
    20   151   150    1
    21   109   112    1
    22   109   110    1
    23    95    94    1
    24   112   114    1
    25   115   110   am
    26   115   116    1
    27   110   111    2
    28   119   116    1
    29    85    82    1
    30    92    91    2
    31   150   147   am
    32   116   117    1
    33   117   118    2
    34   148   147    2
    35    94    97    1
    36    94    93    1
    37    82    83    1
    38    82    81    1
    39    91    93   am
    40    91    90    1
    41    98   100    1
    42    98    97    1
    43    98    99    1
    44    89    90    1
    45    89    83   am
    46   147   146    1
    47   136   134    1
    48    83    84    2
    49     1     2    1
    50   134   133    1
    51   120   121    1
    52   146   145    1
    53   146   149    1
    54     6     8    1
    55     6     5    1
    56     4     3    2
    57     2     3    1
    58     2     5    1
    59   133   135    1
    60   133   130    1
    61     5     7    1
    62   129   130    1
    63   129   122   am
    64   128   126   ar
    65   121   124    1
    66   121   122    1
    67   125   126    1
    68   125   124    1
    69   126   127   ar
    70   131   130    1
    71   131   132    2
    72   140   139    2
    73   122   123    2
    74    36    35    1
    75    24    25    1
    76    25    28    1
    77    25    26    1
    78    37    35    1
    79    35    34    1
    80    80    79    1
    81    28    29    1
    82   139   138    1
    83    30    26   am
    84    30    31    1
    85    26    27    2
    86   143   141    1
    87    34    31    1
    88    79    77   ar
    89    79    78   ar
    90    31    32    1
    91    77    75   ar
    92   141   138    1
    93   141   142    1
    94   138   137    1
    95     9    10    1
    96    12    11    2
    97    78    76   ar
    98    14    13    1
    99    23    21    1
   100    75    74   ar
   101    32    38   am
   102    32    33    2
   103    11    10    1
   104   144   142    1
   105    38    39    1
   106    54    53    1
   107    10    13    1
   108    13    15    1
   109    76    74   ar
   110    21    22    1
   111    21    20    1
   112    74    73    1
   113    53    52   ar
   114    53    51   ar
   115    42    39    1
   116    39    40    1
   117    52    50   ar
   118    51    49   ar
   119    16    17    1
   120    20    17    1
   121    40    41    2
   122    73    70    1
   123    50    48   ar
   124    49    48   ar
   125    67    66    1
   126    17    18    1
   127    72    71    2
   128    48    47    1
   129    70    71    1
   130    70    69    1
   131    66    68    1
   132    66    63    1
   133    19    18    2
   134    47    44    1
   135    63    64    1
   136    63    62    1
   137    65    64    2
   138    58    57    2
   139    44    43    1
   140    44    45    1
   141    45    46    2
   142    45    55   am
   143    57    56    1
   144    61    55    1
   145    61    60    1
   146    55    56    1
   147    56    59    1
   148    60    59    1
