@<TRIPOS>MOLECULE
tmp/4nmhA00.pdb
 149 139 0 0 0
SMALL
GASTEIGER

@<TRIPOS>ATOM
      1  N        -14.4840  -22.0770   98.0940 N.3    97  ILE97      -0.1245
      2  CA       -13.1100  -22.5800   98.2310 C.3    97  ILE97       0.1561
      3  C        -12.8050  -23.6340   97.1740 C.2    97  ILE97       0.2260
      4  O        -13.7110  -24.2810   96.6490 O.2    97  ILE97      -0.2867
      5  CB       -12.8470  -23.2410   99.6130 C.3    97  ILE97       0.0252
      6  CG1      -13.8850  -24.3390   99.8980 C.3    97  ILE97       0.0019
      7  CG2      -12.8270  -22.1940  100.7210 C.3    97  ILE97       0.0019
      8  CD1      -13.5760  -25.1810  101.1140 C.3    97  ILE97       0.0001
      9  N         -9.7420  -29.3700   98.7690 N.3   100  THR100     -0.1218
     10  CA        -8.5080  -29.7180   99.4770 C.3   100  THR100      0.1862
     11  C         -8.6590  -31.0740  100.1550 C.2   100  THR100      0.2287
     12  O         -9.7060  -31.3770  100.7330 O.2   100  THR100     -0.2866
     13  CB        -8.1040  -28.6620  100.5440 C.3   100  THR100      0.1770
     14  OG1       -9.1830  -28.4570  101.4690 O.3   100  THR100     -0.2211
     15  CG2       -7.7230  -27.3380   99.8870 C.3   100  THR100      0.0375
     16  N         -7.0210  -33.8380  103.0120 N.3   102  LEU102     -0.1245
     17  CA        -6.2000  -33.9180  104.2150 C.3   102  LEU102      0.1561
     18  C         -5.0110  -34.8280  103.9610 C.2   102  LEU102      0.2260
     19  O         -5.1630  -36.0410  103.8320 O.2   102  LEU102     -0.2867
     20  CB        -7.0010  -34.4390  105.4090 C.3   102  LEU102      0.0270
     21  CG        -7.8260  -33.4050  106.1710 C.3   102  LEU102      0.0019
     22  CD1       -8.8350  -32.7220  105.2620 C.3   102  LEU102      0.0001
     23  CD2       -8.5210  -34.0780  107.3310 C.3   102  LEU102      0.0001
     24  N        -12.1100  -20.1390  108.9210 N.3   146  SER146     -0.1202
     25  CA       -12.0780  -21.3960  109.6620 C.3   146  SER146      0.2020
     26  C        -11.3640  -21.2300  111.0000 C.2   146  SER146      0.2619
     27  O        -10.7730  -20.1860  111.2730 O.2   146  SER146     -0.2717
     28  CB       -11.3480  -22.4460  108.8180 C.3   146  SER146      0.2103
     29  OG       -11.0170  -23.6030  109.5650 O.3   146  SER146     -0.2182
     30  N        -11.4280  -22.2680  111.8330 N.am  147  LEU147     -0.1965
     31  CA       -10.5360  -22.3890  112.9920 C.3   147  LEU147      0.1728
     32  C         -9.0960  -22.4700  112.4940 C.2   147  LEU147      0.2616
     33  O         -8.1840  -21.9220  113.1110 O.2   147  LEU147     -0.2715
     34  CB       -10.8610  -23.6360  113.8200 C.3   147  LEU147      0.0311
     35  CG       -12.2290  -23.6980  114.5040 C.3   147  LEU147      0.0022
     36  CD1      -12.4290  -25.0550  115.1540 C.3   147  LEU147      0.0001
     37  CD2      -12.3890  -22.5860  115.5300 C.3   147  LEU147      0.0001
     38  N         -8.9140  -23.1420  111.3570 N.am  148  ALA148     -0.1977
     39  CA        -7.6070  -23.2570  110.6950 C.3   148  ALA148      0.1597
     40  C         -7.0990  -21.9410  110.0850 C.2   148  ALA148      0.2287
     41  O         -5.9970  -21.9010  109.5390 O.2   148  ALA148     -0.2864
     42  CB        -7.6580  -24.3360  109.6290 C.3   148  ALA148      0.0319
     43  N         -3.4820  -26.6190  112.1810 N.3   153  TYR153     -0.1228
     44  CA        -3.7430  -28.0640  112.2430 C.3   153  TYR153      0.1721
     45  C         -2.8610  -28.8230  111.2450 C.2   153  TYR153      0.2442
     46  O         -2.6060  -28.3310  110.1450 O.2   153  TYR153     -0.2733
     47  CB        -5.2000  -28.3620  111.9080 C.3   153  TYR153      0.0547
     48  CG        -6.2020  -27.8290  112.8980 C.ar  153  TYR153     -0.0200
     49  CD1       -6.6560  -26.5160  112.8200 C.ar  153  TYR153     -0.0009
     50  CD2       -6.7180  -28.6430  113.8950 C.ar  153  TYR153     -0.0009
     51  CE1       -7.5930  -26.0230  113.7190 C.ar  153  TYR153      0.0417
     52  CE2       -7.6510  -28.1620  114.8000 C.ar  153  TYR153      0.0417
     53  CZ        -8.0870  -26.8510  114.7090 C.ar  153  TYR153      0.1957
     54  OH        -9.0170  -26.3760  115.6100 O.3   153  TYR153     -0.2866
     55  N         -2.3860  -30.0230  111.6230 N.am  154  PRO154     -0.2653
     56  CA        -1.6650  -30.8520  110.6520 C.3   154  PRO154      0.1628
     57  C         -2.5210  -31.2570  109.4460 C.2   154  PRO154      0.2315
     58  O         -3.7430  -31.3420  109.5530 O.2   154  PRO154     -0.2861
     59  CB        -1.2550  -32.1000  111.4520 C.2   154  PRO154     -0.0016
     60  CG        -1.7010  -31.9030  112.8340 C.2   154  PRO154     -0.0072
     61  CD        -2.4570  -30.6320  112.9630 C.3   154  PRO154      0.1203
     62  N         -3.2160  -29.6460  106.6660 N.3   156  VAL156     -0.1245
     63  CA        -4.0360  -28.5870  106.0520 C.3   156  VAL156      0.1561
     64  C         -3.2270  -27.2890  105.8600 C.2   156  VAL156      0.2260
     65  O         -3.7310  -26.1840  106.0890 O.2   156  VAL156     -0.2867
     66  CB        -5.3200  -28.2970  106.8940 C.3   156  VAL156      0.0252
     67  CG1       -6.5100  -28.0920  105.9840 C.3   156  VAL156      0.0019
     68  CG2       -5.6140  -29.4280  107.8520 C.3   156  VAL156      0.0019
     69  N         -4.4110  -24.7260  102.8350 N.3   159  TYR159     -0.1241
     70  CA        -5.7160  -24.2420  103.2930 C.3   159  TYR159      0.1605
     71  C         -5.5700  -23.1760  104.3850 C.2   159  TYR159      0.2264
     72  O         -6.1960  -22.1200  104.3170 O.2   159  TYR159     -0.2867
     73  CB        -6.5320  -25.4240  103.8130 C.3   159  TYR159      0.0534
     74  CG        -7.9040  -25.0930  104.3680 C.ar  159  TYR159     -0.0201
     75  CD1       -8.9630  -24.7660  103.5230 C.ar  159  TYR159     -0.0009
     76  CD2       -8.1510  -25.1470  105.7390 C.ar  159  TYR159     -0.0009
     77  CE1      -10.2310  -24.4840  104.0350 C.ar  159  TYR159      0.0417
     78  CE2       -9.4100  -24.8690  106.2570 C.ar  159  TYR159      0.0417
     79  CZ       -10.4450  -24.5410  105.4040 C.ar  159  TYR159      0.1957
     80  OH       -11.6910  -24.2700  105.9240 O.3   159  TYR159     -0.2866
     81  N        -15.2670  -20.5590  111.6320 N.3   191  LEU191     -0.1231
     82  CA       -16.1340  -21.7360  111.6790 C.3   191  LEU191      0.1693
     83  C        -15.3740  -22.9980  112.0910 C.2   191  LEU191      0.2593
     84  O        -14.2610  -23.2530  111.6180 O.2   191  LEU191     -0.2718
     85  CB       -16.7830  -21.9680  110.3060 C.3   191  LEU191      0.0284
     86  CG       -18.0380  -21.1700  109.9360 C.3   191  LEU191      0.0019
     87  CD1      -17.7850  -19.6770  109.9520 C.3   191  LEU191      0.0001
     88  CD2      -18.5370  -21.6090  108.5690 C.3   191  LEU191      0.0001
     89  N        -15.9930  -23.7860  112.9660 N.am  192  GLY192     -0.1942
     90  CA       -15.5130  -25.1320  113.2840 C.3   192  GLY192      0.2014
     91  C        -16.0440  -26.1350  112.2750 C.2   192  GLY192      0.2638
     92  O        -16.7170  -25.7540  111.3200 O.2   192  GLY192     -0.2714
     93  N        -15.7580  -27.4180  112.4920 N.am  193  LEU193     -0.1977
     94  CA       -16.1870  -28.4740  111.5650 C.3   193  LEU193      0.1596
     95  C        -17.7040  -28.4580  111.3690 C.2   193  LEU193      0.2287
     96  O        -18.4610  -28.5310  112.3370 O.2   193  LEU193     -0.2864
     97  CB       -15.7370  -29.8530  112.0590 C.3   193  LEU193      0.0297
     98  CG       -15.9590  -31.0480  111.1200 C.3   193  LEU193      0.0022
     99  CD1      -15.1420  -30.9140  109.8480 C.3   193  LEU193      0.0001
    100  CD2      -15.6100  -32.3470  111.8270 C.3   193  LEU193      0.0001
    101  N        -21.2040  -30.5790  106.3030 N.3   196  THR196     -0.1218
    102  CA       -21.4140  -30.6000  104.8540 C.3   196  THR196      0.1862
    103  C        -20.8540  -31.9030  104.2830 C.2   196  THR196      0.2287
    104  O        -19.8940  -32.4610  104.8170 O.2   196  THR196     -0.2866
    105  CB       -20.7660  -29.3980  104.1500 C.3   196  THR196      0.1770
    106  OG1      -19.3390  -29.5050  104.2260 O.3   196  THR196     -0.2211
    107  CG2      -21.2320  -28.0870  104.7770 C.3   196  THR196      0.0375
    108  N        -19.0770  -32.6750  101.7390 N.3   198  THR198     -0.1203
    109  CA       -17.6650  -32.6200  101.3460 C.3   198  THR198      0.1994
    110  C        -16.7340  -32.7520  102.5500 C.2   198  THR198      0.2617
    111  O        -15.7380  -33.4760  102.5040 O.2   198  THR198     -0.2717
    112  CB       -17.3290  -31.3030  100.6290 C.3   198  THR198      0.1784
    113  OG1      -18.2830  -31.0660   99.5840 O.3   198  THR198     -0.2211
    114  CG2      -15.9280  -31.3560  100.0340 C.3   198  THR198      0.0376
    115  N        -17.0670  -32.0410  103.6220 N.am  199  ALA199     -0.1979
    116  CA       -16.2580  -32.0400  104.8420 C.3   199  ALA199      0.1597
    117  C        -16.2420  -33.4120  105.5060 C.2   199  ALA199      0.2287
    118  O        -15.1870  -33.9060  105.9000 O.2   199  ALA199     -0.2864
    119  CB       -16.7810  -31.0010  105.8160 C.3   199  ALA199      0.0319
    120  N        -14.2330  -35.8930  103.6970 N.3   202  GLU202     -0.1231
    121  CA       -12.7950  -35.6290  103.8520 C.3   202  GLU202      0.1699
    122  C        -12.2300  -36.0800  105.2000 C.2   202  GLU202      0.2592
    123  O        -11.1920  -36.7370  105.2510 O.2   202  GLU202     -0.2718
    124  CB       -12.4930  -34.1390  103.6470 C.3   202  GLU202      0.0402
    125  CG       -12.2240  -33.7550  102.2000 C.3   202  GLU202      0.1161
    126  CD       -10.9250  -34.3390  101.6740 C.2   202  GLU202      0.3649
    127  OE1      -10.0640  -34.7740  102.4840 O.co2 202  GLU202     -0.2457
    128  OE2      -10.7790  -34.4410  100.4340 O.co2 202  GLU202     -0.2457
    129  N        -12.9070  -35.7190  106.2860 N.am  203  ILE203     -0.1980
    130  CA       -12.4530  -36.0980  107.6320 C.3   203  ILE203      0.1595
    131  C        -12.6130  -37.5940  107.9080 C.2   203  ILE203      0.2287
    132  O        -12.0910  -38.1010  108.9030 O.2   203  ILE203     -0.2864
    133  CB       -13.1820  -35.3070  108.7510 C.3   203  ILE203      0.0276
    134  CG1      -14.6860  -35.6090  108.7650 C.3   203  ILE203      0.0022
    135  CG2      -12.9260  -33.8120  108.5980 C.3   203  ILE203      0.0022
    136  CD1      -15.3410  -35.3420  110.0960 C.3   203  ILE203      0.0001
    137  N         -9.9390  -37.8430  110.8660 N.3   207  ILE207     -0.1245
    138  CA       -10.2590  -37.0230  112.0380 C.3   207  ILE207      0.1561
    139  C        -11.5430  -37.4940  112.7120 C.2   207  ILE207      0.2260
    140  O        -12.5510  -37.7290  112.0410 O.2   207  ILE207     -0.2867
    141  CB       -10.4100  -35.5440  111.6500 C.3   207  ILE207      0.0252
    142  CG1       -9.0530  -34.9740  111.2460 C.3   207  ILE207      0.0019
    143  CG2      -11.0010  -34.7340  112.8030 C.3   207  ILE207      0.0019
    144  CD1       -9.1610  -33.7240  110.4380 C.3   207  ILE207      0.0001
    145  N        -14.0030  -36.0350  115.0500 N.3   209  ALA209     -0.1245
    146  CA       -14.5270  -34.8320  115.6950 C.3   209  ALA209      0.1562
    147  C        -16.0030  -34.6420  115.3750 C.2   209  ALA209      0.2260
    148  O        -16.4750  -35.0480  114.3130 O.2   209  ALA209     -0.2867
    149  CB       -13.7320  -33.6140  115.2550 C.3   209  ALA209      0.0290
@<TRIPOS>BOND
     1     4     3    2
     2     3     2    1
     3     1     2    1
     4     2     5    1
     5     9    10    1
     6    10    11    1
     7    10    13    1
     8   113   112    1
     9     5     6    1
    10     5     7    1
    11    15    13    1
    12     6     8    1
    13   114   112    1
    14    11    12    2
    15   128   126   ar
    16    13    14    1
    17   112   109    1
    18   109   108    1
    19   109   110    1
    20   126   125    1
    21   126   127   ar
    22   125   124    1
    23   111   110    2
    24   110   115   am
    25    69    70    1
    26    16    17    1
    27    70    73    1
    28    70    71    1
    29    75    77   ar
    30    75    74   ar
    31   115   116    1
    32   124   121    1
    33   120   121    1
    34    73    74    1
    35    19    18    2
    36   121   122    1
    37    18    17    1
    38    77    79   ar
    39   105   106    1
    40   105   107    1
    41   105   102    1
    42    17    20    1
    43   103   104    2
    44   103   102    1
    45    72    71    2
    46    74    76   ar
    47   116   117    1
    48   116   119    1
    49   102   101    1
    50   122   123    2
    51   122   129   am
    52    22    21    1
    53    79    80    1
    54    79    78   ar
    55    20    21    1
    56   117   118    2
    57    76    78   ar
    58    64    63    1
    59    64    65    2
    60    67    66    1
    61    63    62    1
    62    63    66    1
    63    21    23    1
    64   129   130    1
    65    66    68    1
    66   130   131    1
    67   130   133    1
    68   131   132    2
    69    88    86    1
    70   135   133    1
    71   133   134    1
    72   134   136    1
    73    28    29    1
    74    28    25    1
    75    24    25    1
    76    57    58    2
    77    57    56    1
    78    41    40    2
    79    42    39    1
    80    25    26    1
    81    99    98    1
    82    86    87    1
    83    86    85    1
    84    40    39    1
    85    46    45    2
    86    85    82    1
    87   144   142    1
    88    56    59    1
    89    56    55    1
    90    39    38    1
    91   137   138    1
    92    26    27    2
    93    26    30   am
    94    98   100    1
    95    98    97    1
    96    45    55   am
    97    45    44    1
    98   142   141    1
    99    92    91    2
   100    38    32   am
   101    95    94    1
   102    95    96    2
   103    59    60    2
   104    94    97    1
   105    94    93    1
   106    84    83    2
   107    55    61    1
   108    81    82    1
   109   141   138    1
   110   141   143    1
   111    82    83    1
   112    30    31    1
   113    47    44    1
   114    47    48    1
   115   138   139    1
   116   140   139    2
   117    83    89   am
   118    43    44    1
   119    91    93   am
   120    91    90    1
   121    32    31    1
   122    32    33    2
   123    49    48   ar
   124    49    51   ar
   125    60    61    1
   126    48    50   ar
   127    89    90    1
   128    31    34    1
   129    51    53   ar
   130    34    35    1
   131    50    52   ar
   132   148   147    2
   133    35    36    1
   134    35    37    1
   135    53    52   ar
   136    53    54    1
   137   145   146    1
   138   149   146    1
   139   147   146    1
