@<TRIPOS>MOLECULE
tmp/4nmjD00.pdb
 160 158 0 0 0
SMALL
GASTEIGER

@<TRIPOS>ATOM
      1  N         43.2370   57.4970   66.1810 N.3   143  ILE143     -0.1231
      2  CA        43.6500   57.5740   67.5770 C.3   143  ILE143      0.1692
      3  C         43.4750   56.1900   68.1780 C.2   143  ILE143      0.2593
      4  O         42.3690   55.6440   68.1770 O.2   143  ILE143     -0.2718
      5  CB        42.7960   58.6030   68.3340 C.3   143  ILE143      0.0266
      6  CG1       42.9810   59.9910   67.7130 C.3   143  ILE143      0.0019
      7  CG2       43.1470   58.5970   69.8270 C.3   143  ILE143      0.0020
      8  CD1       42.0950   61.0790   68.3140 C.3   143  ILE143      0.0001
      9  N         44.5740   55.6250   68.6730 N.am  144  THR144     -0.1940
     10  CA        44.6760   54.1990   68.9550 C.3   144  THR144      0.2013
     11  C         45.0770   53.9030   70.4180 C.2   144  THR144      0.2484
     12  O         45.5330   54.8080   71.1300 O.2   144  THR144     -0.2729
     13  CB        45.6860   53.5700   67.9760 C.3   144  THR144      0.1807
     14  OG1       46.9070   54.3190   68.0040 O.3   144  THR144     -0.2208
     15  CG2       45.1260   53.5960   66.5420 C.3   144  THR144      0.0379
     16  N         44.8970   52.6410   70.8710 N.am  145  PRO145     -0.2715
     17  CA        45.2400   52.2480   72.2500 C.3   145  PRO145      0.1536
     18  C         46.5680   51.5080   72.3570 C.2   145  PRO145      0.2598
     19  O         47.2700   51.3250   71.3570 O.2   145  PRO145     -0.2715
     20  CB        44.1250   51.2700   72.6000 C.3   145  PRO145      0.0310
     21  CG        43.9230   50.5300   71.2960 C.3   145  PRO145      0.0237
     22  CD        44.1410   51.5670   70.1890 C.3   145  PRO145      0.0939
     23  N         46.8840   51.0440   73.5680 N.am  146  TRP146     -0.1974
     24  CA        48.1980   50.4660   73.8600 C.3   146  TRP146      0.1640
     25  C         48.2850   48.9440   73.8180 C.2   146  TRP146      0.2290
     26  O         49.3900   48.3950   73.8890 O.2   146  TRP146     -0.2864
     27  CB        48.6790   50.9410   75.2450 C.3   146  TRP146      0.0576
     28  CG        47.6520   50.7390   76.3120 C.ar  146  TRP146      0.0006
     29  CD1       46.7530   51.6620   76.7650 C.ar  146  TRP146      0.0946
     30  CD2       47.3950   49.5330   77.0400 C.ar  146  TRP146      0.0152
     31  NE1       45.9550   51.1080   77.7330 N.ar  146  TRP146     -0.2442
     32  CE2       46.3320   49.8070   77.9270 C.ar  146  TRP146      0.0810
     33  CE3       47.9610   48.2570   77.0340 C.ar  146  TRP146      0.0012
     34  CZ2       45.8250   48.8460   78.8010 C.ar  146  TRP146      0.0191
     35  CZ3       47.4500   47.2990   77.8990 C.ar  146  TRP146      0.0001
     36  CH2       46.3940   47.6000   78.7710 C.ar  146  TRP146      0.0015
     37  N         47.6820   59.5710   65.9120 N.3   170  LYS170     -0.1231
     38  CA        48.1640   59.8130   67.2830 C.3   170  LYS170      0.1678
     39  C         48.0680   58.5350   68.1090 C.2   170  LYS170      0.2434
     40  O         46.9870   58.1590   68.5590 O.2   170  LYS170     -0.2733
     41  CB        47.3680   60.9210   67.9850 C.3   170  LYS170      0.0284
     42  CG        47.9550   61.3160   69.3620 C.3   170  LYS170      0.0035
     43  CD        46.8760   61.5670   70.3970 C.3   170  LYS170      0.0206
     44  CE        46.5650   60.3050   71.1900 C.3   170  LYS170      0.1093
     45  NZ        47.5890   60.0290   72.2450 N.3   170  LYS170     -0.1314
     46  N         49.2030   57.8590   68.3140 N.am  171  PRO171     -0.2718
     47  CA        49.2160   56.5640   68.9900 C.3   171  PRO171      0.1535
     48  C         49.0690   56.7290   70.5060 C.2   171  PRO171      0.2598
     49  O         49.1440   57.8530   70.9980 O.2   171  PRO171     -0.2715
     50  CB        50.5970   56.0130   68.6380 C.3   171  PRO171      0.0310
     51  CG        51.4500   57.2310   68.5060 C.3   171  PRO171      0.0237
     52  CD        50.5560   58.3160   67.9520 C.3   171  PRO171      0.0939
     53  N         48.8390   55.6350   71.2260 N.am  172  ALA172     -0.1964
     54  CA        48.6930   55.7160   72.6840 C.3   172  ALA172      0.1728
     55  C         49.9970   56.1750   73.3180 C.2   172  ALA172      0.2616
     56  O         51.0750   55.8110   72.8540 O.2   172  ALA172     -0.2715
     57  CB        48.2710   54.3830   73.2650 C.3   172  ALA172      0.0334
     58  N         49.8880   56.9530   74.3920 N.am  173  SER173     -0.1950
     59  CA        51.0620   57.4810   75.0810 C.3   173  SER173      0.1924
     60  C         51.9930   56.3810   75.5950 C.2   173  SER173      0.2314
     61  O         53.2070   56.5870   75.6930 O.2   173  SER173     -0.2863
     62  CB        50.6420   58.4220   76.2090 C.3   173  SER173      0.2116
     63  OG        50.0840   59.6150   75.6880 O.3   173  SER173     -0.2180
     64  N         46.6530   62.6880   74.5900 N.3   203  GLY203     -0.1210
     65  CA        45.3060   62.7390   74.0560 C.3   203  GLY203      0.1940
     66  C         44.5440   64.0270   74.3020 C.2   203  GLY203      0.2453
     67  O         43.9760   64.5910   73.3640 O.2   203  GLY203     -0.2732
     68  N         44.5120   64.4990   75.5610 N.am  204  PRO204     -0.2728
     69  CA        43.7740   65.7290   75.8730 C.3   204  PRO204      0.1401
     70  C         44.2630   66.9760   75.1310 C.2   204  PRO204      0.2269
     71  O         43.5520   67.9790   75.1190 O.2   204  PRO204     -0.2865
     72  CB        43.9880   65.8820   77.3820 C.3   204  PRO204      0.0296
     73  CG        44.1210   64.4780   77.8650 C.3   204  PRO204      0.0237
     74  CD        44.8860   63.7640   76.7860 C.3   204  PRO204      0.0939
     75  N         45.2230   64.8290   70.7070 N.3   207  GLY207     -0.1210
     76  CA        43.9840   64.1590   70.3680 C.3   207  GLY207      0.1956
     77  C         42.8120   65.1090   70.2380 C.2   207  GLY207      0.2611
     78  O         42.0420   64.9960   69.2860 O.2   207  GLY207     -0.2717
     79  N         42.6600   66.0470   71.1750 N.am  208  GLU208     -0.1979
     80  CA        41.5010   66.9390   71.1140 C.3   208  GLU208      0.1602
     81  C         41.5810   67.9380   69.9630 C.2   208  GLU208      0.2287
     82  O         40.5500   68.3770   69.4440 O.2   208  GLU208     -0.2864
     83  CB        41.2260   67.6760   72.4340 C.3   208  GLU208      0.0415
     84  CG        39.7420   68.0600   72.5430 C.3   208  GLU208      0.1163
     85  CD        39.4430   69.1500   73.5500 C.2   208  GLU208      0.3649
     86  OE1       39.3480   70.3260   73.1360 O.co2 208  GLU208     -0.2457
     87  OE2       39.2720   68.8260   74.7460 O.co2 208  GLU208     -0.2457
     88  N         40.3550   66.0190   66.9820 N.3   211  VAL211     -0.1245
     89  CA        38.9190   65.7820   67.0660 C.3   211  VAL211      0.1561
     90  C         38.0900   67.0390   66.8130 C.2   211  VAL211      0.2260
     91  O         36.9640   66.9570   66.3140 O.2   211  VAL211     -0.2867
     92  CB        38.5680   65.1360   68.4270 C.3   211  VAL211      0.0252
     93  CG1       37.0660   65.0340   68.6380 C.3   211  VAL211      0.0019
     94  CG2       39.1900   63.7710   68.5060 C.3   211  VAL211      0.0019
     95  N         38.5100   55.8030   66.2170 N.3   221  PHE221     -0.1227
     96  CA        39.0460   55.7820   67.5740 C.3   221  PHE221      0.1736
     97  C         38.8430   54.4140   68.2070 C.2   221  PHE221      0.2596
     98  O         37.7640   53.8150   68.0950 O.2   221  PHE221     -0.2718
     99  CB        38.3680   56.8750   68.4210 C.3   221  PHE221      0.0547
    100  CG        38.6420   56.7620   69.9050 C.ar  221  PHE221     -0.0202
    101  CD1       39.7960   57.3030   70.4540 C.ar  221  PHE221     -0.0042
    102  CD2       37.7430   56.1120   70.7510 C.ar  221  PHE221     -0.0042
    103  CE1       40.0530   57.2050   71.8300 C.ar  221  PHE221     -0.0003
    104  CE2       37.9980   55.9980   72.1240 C.ar  221  PHE221     -0.0003
    105  CZ        39.1530   56.5440   72.6600 C.ar  221  PHE221     -0.0000
    106  N         39.8850   53.9180   68.8620 N.am  222  THR222     -0.1939
    107  CA        39.7680   52.7220   69.6880 C.3   222  THR222      0.2028
    108  C         40.3170   53.0200   71.0830 C.2   222  THR222      0.2643
    109  O         41.4770   53.4120   71.2350 O.2   222  THR222     -0.2714
    110  CB        40.4910   51.5370   69.0590 C.3   222  THR222      0.1808
    111  OG1       39.8620   51.2220   67.8090 O.3   222  THR222     -0.2208
    112  CG2       40.3780   50.3310   69.9410 C.3   222  THR222      0.0379
    113  N         39.4650   52.8640   72.0910 N.am  223  GLY223     -0.1939
    114  CA        39.8090   53.2390   73.4540 C.3   223  GLY223      0.2014
    115  C         38.6530   52.9920   74.4080 C.2   223  GLY223      0.2638
    116  O         37.7440   52.2240   74.1020 O.2   223  GLY223     -0.2714
    117  N         38.6720   53.6440   75.5650 N.am  224  GLU224     -0.1977
    118  CA        37.6280   53.4250   76.5670 C.3   224  GLU224      0.1602
    119  C         36.3240   54.1180   76.1760 C.2   224  GLU224      0.2287
    120  O         36.3480   55.1490   75.5020 O.2   224  GLU224     -0.2864
    121  CB        38.1090   53.9030   77.9420 C.3   224  GLU224      0.0415
    122  CG        39.2230   53.0250   78.5380 C.3   224  GLU224      0.1163
    123  CD        39.7900   53.5680   79.8510 C.2   224  GLU224      0.3649
    124  OE1       39.3060   54.6230   80.3240 O.co2 224  GLU224     -0.2457
    125  OE2       40.7290   52.9370   80.3980 O.co2 224  GLU224     -0.2457
    126  N         36.0740   57.8620   77.0230 N.3   227  THR227     -0.1218
    127  CA        36.8230   58.6750   76.0750 C.3   227  THR227      0.1862
    128  C         36.0480   58.7960   74.7530 C.2   227  THR227      0.2287
    129  O         35.9100   59.8850   74.1940 O.2   227  THR227     -0.2866
    130  CB        38.2050   58.0710   75.8060 C.3   227  THR227      0.1770
    131  OG1       38.8270   57.7070   77.0460 O.3   227  THR227     -0.2211
    132  CG2       39.0900   59.0650   75.0710 C.3   227  THR227      0.0375
    133  N         33.1230   61.1810   74.8530 N.3   230  GLU230     -0.1231
    134  CA        33.6700   62.5310   74.8460 C.3   230  GLU230      0.1699
    135  C         34.0710   62.9590   73.4280 C.2   230  GLU230      0.2592
    136  O         33.7190   64.0520   72.9610 O.2   230  GLU230     -0.2718
    137  CB        34.8860   62.5410   75.7640 C.3   230  GLU230      0.0402
    138  CG        35.5920   63.8590   75.9480 C.3   230  GLU230      0.1161
    139  CD        36.6750   63.7450   77.0050 C.2   230  GLU230      0.3649
    140  OE1       37.7910   64.2610   76.7800 O.co2 230  GLU230     -0.2457
    141  OE2       36.4040   63.1210   78.0570 O.co2 230  GLU230     -0.2457
    142  N         34.8130   62.0920   72.7470 N.am  231  ILE231     -0.1980
    143  CA        35.2180   62.3720   71.3700 C.3   231  ILE231      0.1595
    144  C         34.0030   62.5790   70.4750 C.2   231  ILE231      0.2287
    145  O         33.9460   63.5370   69.6930 O.2   231  ILE231     -0.2864
    146  CB        36.1370   61.2720   70.8170 C.3   231  ILE231      0.0276
    147  CG1       37.4880   61.3350   71.5320 C.3   231  ILE231      0.0022
    148  CG2       36.3210   61.4080   69.2960 C.3   231  ILE231      0.0022
    149  CD1       38.4870   60.3290   71.0450 C.3   231  ILE231      0.0001
    150  N         39.6870   45.0380   82.0100 N.3   376  PHE376     -0.1241
    151  CA        40.7390   44.9710   81.0020 C.3   376  PHE376      0.1605
    152  C         42.0320   44.4260   81.6090 C.2   376  PHE376      0.2264
    153  O         43.0710   45.0930   81.6110 O.2   376  PHE376     -0.2867
    154  CB        40.9520   46.3570   80.3870 C.3   376  PHE376      0.0534
    155  CG        41.4840   46.3360   78.9700 C.ar  376  PHE376     -0.0203
    156  CD1       40.7010   45.8500   77.9180 C.ar  376  PHE376     -0.0042
    157  CD2       42.7510   46.8340   78.6870 C.ar  376  PHE376     -0.0042
    158  CE1       41.1880   45.8460   76.6070 C.ar  376  PHE376     -0.0003
    159  CE2       43.2460   46.8440   77.3800 C.ar  376  PHE376     -0.0003
    160  CZ        42.4570   46.3570   76.3350 C.ar  376  PHE376     -0.0000
@<TRIPOS>BOND
     1    37    38    1
     2     1     2    1
     3    95    96    1
     4    91    90    2
     5    15    13    1
     6    90    89    1
     7    88    89    1
     8    89    92    1
     9    38    41    1
    10    38    39    1
    11    96    97    1
    12    96    99    1
    13     2     3    1
    14     2     5    1
    15     6     8    1
    16     6     5    1
    17   111   110    1
    18    52    46    1
    19    52    51    1
    20    13    14    1
    21    13    10    1
    22    41    42    1
    23    98    97    2
    24    39    46   am
    25    39    40    2
    26     4     3    2
    27     3     9   am
    28    97   106   am
    29    46    47    1
    30     5     7    1
    31    99   100    1
    32    92    94    1
    33    92    93    1
    34    51    50    1
    35    50    47    1
    36     9    10    1
    37   106   107    1
    38    10    11    1
    39    47    48    1
    40   110   107    1
    41   110   112    1
    42    78    77    2
    43   148   146    1
    44    42    43    1
    45    82    81    2
    46   107   108    1
    47   145   144    2
    48   100   101   ar
    49   100   102   ar
    50    81    80    1
    51    22    16    1
    52    22    21    1
    53    77    76    1
    54    77    79   am
    55    76    75    1
    56    43    44    1
    57    11    16   am
    58    11    12    2
    59   101   103   ar
    60   144   143    1
    61    48    49    2
    62    48    53   am
    63   102   104   ar
    64   146   143    1
    65   146   147    1
    66    16    17    1
    67   149   147    1
    68   108   109    2
    69   108   113   am
    70    80    79    1
    71    80    83    1
    72    44    45    1
    73    53    54    1
    74    21    20    1
    75    19    18    2
    76   143   142    1
    77   103   105   ar
    78   113   114    1
    79   104   105   ar
    80    17    18    1
    81    17    20    1
    82    18    23   am
    83    83    84    1
    84    84    85    1
    85    54    57    1
    86    54    55    1
    87   142   135   am
    88    56    55    2
    89   136   135    2
    90    86    85   ar
    91    55    58   am
    92    67    66    2
    93   135   134    1
    94   114   115    1
    95    85    87   ar
    96    23    24    1
    97    25    24    1
    98    25    26    2
    99    24    27    1
   100    65    66    1
   101    65    64    1
   102   116   115    2
   103   129   128    2
   104    66    68   am
   105    58    59    1
   106   115   117   am
   107   128   127    1
   108   134   133    1
   109   134   137    1
   110   132   130    1
   111    59    60    1
   112    59    62    1
   113    71    70    2
   114    70    69    1
   115    27    28    1
   116   120   119    2
   117    68    69    1
   118    68    74    1
   119   117   118    1
   120    60    61    2
   121    63    62    1
   122   137   138    1
   123   130   127    1
   124   130   131    1
   125    69    72    1
   126   138   139    1
   127   127   126    1
   128   119   118    1
   129    28    29   ar
   130    28    30   ar
   131   160   158   ar
   132   160   159   ar
   133   118   121    1
   134   158   156   ar
   135    29    31   ar
   136   140   139   ar
   137    74    73    1
   138   139   141   ar
   139    33    30   ar
   140    33    35   ar
   141    30    32   ar
   142   159   157   ar
   143    72    73    1
   144    31    32   ar
   145    35    36   ar
   146   156   155   ar
   147    32    34   ar
   148   121   122    1
   149   122   123    1
   150   157   155   ar
   151    36    34   ar
   152   155   154    1
   153   123   124   ar
   154   123   125   ar
   155   154   151    1
   156   151   152    1
   157   151   150    1
   158   152   153    2
