@<TRIPOS>MOLECULE
tmp/4nmlA00.pdb
 94 87 0 0 0
SMALL
GASTEIGER

@<TRIPOS>ATOM
      1  N         17.3700   45.8840   -7.2660 N.3     3  GLN3       -0.1245
      2  CA        16.9410   46.2190   -5.9090 C.3     3  GLN3        0.1566
      3  C         17.7020   47.4350   -5.3710 C.2     3  GLN3        0.2260
      4  O         17.1190   48.3070   -4.7340 O.2     3  GLN3       -0.2867
      5  CB        17.0470   45.0300   -4.9470 C.3     3  GLN3        0.0367
      6  CG        16.2900   45.3010   -3.6550 C.3     3  GLN3        0.0905
      7  CD        16.2950   44.1430   -2.6820 C.2     3  GLN3        0.2608
      8  OE1       16.9970   43.1610   -2.8740 O.2     3  GLN3       -0.2717
      9  NE2       15.5100   44.2660   -1.6150 N.am    3  GLN3       -0.0878
     10  N         16.3810   50.9700   -3.9530 N.3     7  LYS7       -0.1245
     11  CA        16.7640   51.5500   -2.6720 C.3     7  LYS7        0.1561
     12  C         17.3720   52.9590   -2.8850 C.2     7  LYS7        0.2260
     13  O         17.0580   53.8910   -2.1690 O.2     7  LYS7       -0.2867
     14  CB        17.7390   50.6400   -1.9320 C.3     7  LYS7        0.0271
     15  CG        17.1840   49.3130   -1.3740 C.3     7  LYS7        0.0035
     16  CD        18.3790   48.5700   -0.7790 C.3     7  LYS7        0.0206
     17  CE        18.2710   47.0680   -0.6220 C.3     7  LYS7        0.1093
     18  NZ        17.4820   46.7550    0.5760 N.3     7  LYS7       -0.1314
     19  N         19.2690   53.4250    9.6450 N.3    28  THR28      -0.1203
     20  CA        20.2920   52.4440    9.5950 C.3    28  THR28       0.1994
     21  C         19.8900   51.3780    8.5910 C.2    28  THR28       0.2618
     22  O         18.7550   50.9440    8.5590 O.2    28  THR28      -0.2717
     23  CB        20.4540   51.8340   11.0180 C.3    28  THR28       0.1784
     24  OG1       20.9910   52.8170   11.9190 O.3    28  THR28      -0.2211
     25  CG2       21.3800   50.6310   11.0310 C.3    28  THR28       0.0376
     26  N         20.8350   50.9660    7.7620 N.am   29  GLY29      -0.1942
     27  CA        20.6200   49.9310    6.7800 C.3    29  GLY29       0.2014
     28  C         21.0070   50.3290    5.3790 C.2    29  GLY29       0.2640
     29  O         21.4230   51.4650    5.1360 O.2    29  GLY29      -0.2714
     30  N         20.8140   49.4030    4.4420 N.am   30  THR30      -0.1936
     31  CA        21.2410   49.6340    3.0720 C.3    30  THR30       0.2028
     32  C         20.4160   50.7130    2.3660 C.2    30  THR30       0.2643
     33  O         20.8900   51.3230    1.4190 O.2    30  THR30      -0.2714
     34  CB        21.3210   48.3170    2.2690 C.3    30  THR30       0.1808
     35  OG1       20.0700   47.6320    2.3270 O.3    30  THR30      -0.2208
     36  CG2       22.3810   47.3890    2.8770 C.3    30  THR30       0.0379
     37  N         19.2030   50.9760    2.8220 N.am   31  THR31      -0.1936
     38  CA        18.3970   52.0270    2.1940 C.3    31  THR31       0.2028
     39  C         18.7770   53.3550    2.8100 C.2    31  THR31       0.2642
     40  O         19.0440   54.3090    2.0820 O.2    31  THR31      -0.2714
     41  CB        16.8830   51.7730    2.3100 C.3    31  THR31       0.1808
     42  OG1       16.5900   50.5050    1.7430 O.3    31  THR31      -0.2208
     43  CG2       16.1130   52.8120    1.5460 C.3    31  THR31       0.0379
     44  N         18.8200   53.4170    4.1460 N.am   32  ALA32      -0.1977
     45  CA        19.2790   54.6180    4.8630 C.3    32  ALA32       0.1597
     46  C         20.6570   55.0380    4.3730 C.2    32  ALA32       0.2287
     47  O         20.9680   56.2200    4.3640 O.2    32  ALA32      -0.2864
     48  CB        19.3130   54.3770    6.3550 C.3    32  ALA32       0.0319
     49  N         14.5970   52.9570    6.9570 N.3    85  GLY85      -0.1210
     50  CA        13.9860   51.9180    6.1760 C.3    85  GLY85       0.1956
     51  C         13.1300   51.0500    7.0720 C.2    85  GLY85       0.2612
     52  O         12.8840   51.3860    8.2370 O.2    85  GLY85      -0.2717
     53  N         12.7110   49.9190    6.5190 N.am   86  ALA86      -0.1965
     54  CA        11.9220   48.9430    7.2230 C.3    86  ALA86       0.1728
     55  C         12.1400   47.5840    6.6320 C.2    86  ALA86       0.2616
     56  O         12.5050   47.4640    5.4740 O.2    86  ALA86      -0.2715
     57  CB        10.4540   49.2860    7.1310 C.3    86  ALA86       0.0334
     58  N         11.8750   46.5510    7.4170 N.am   87  ASP87      -0.1971
     59  CA        12.0550   45.1840    6.9570 C.3    87  ASP87       0.1709
     60  C         10.7340   44.6420    6.4330 C.2    87  ASP87       0.2293
     61  O         10.7320   43.8490    5.4990 O.2    87  ASP87      -0.2864
     62  CB        12.6340   44.3180    8.0740 C.3    87  ASP87       0.1436
     63  CG        13.9690   44.8770    8.6350 C.2    87  ASP87       0.3671
     64  OD1       14.8740   45.2770    7.8470 O.co2  87  ASP87      -0.2456
     65  OD2       14.1140   44.9200    9.8870 O.co2  87  ASP87      -0.2456
     66  N         16.1560   44.1810   11.7100 N.3   100  ARG100     -0.1231
     67  CA        17.0170   43.1380   11.1050 C.3   100  ARG100      0.1694
     68  C         18.4720   43.5170   10.9150 C.2   100  ARG100      0.2592
     69  O         19.2800   42.6390   10.6800 O.2   100  ARG100     -0.2718
     70  CB        16.4220   42.5750    9.8390 C.3   100  ARG100      0.0321
     71  CG        15.2220   41.7310   10.1880 C.3   100  ARG100      0.0489
     72  CD        14.4860   41.2430    8.9720 C.3   100  ARG100      0.2205
     73  NE        13.1540   40.7630    9.3210 N.pl3 100  ARG100     -0.0865
     74  CZ        12.1990   40.5300    8.4220 C.cat 100  ARG100      0.5346
     75  NH1       12.4510   40.7470    7.1350 N.pl3 100  ARG100      0.1354
     76  NH2       10.9980   40.0950    8.8000 N.pl3 100  ARG100      0.1354
     77  N         18.8020   44.8080   11.0260 N.am  101  GLY101     -0.1957
     78  CA        20.1900   45.2780   11.0030 C.3   101  GLY101      0.1869
     79  C         20.6880   45.5620   12.4270 C.2   101  GLY101      0.2309
     80  O         21.7710   46.0940   12.6040 O.2   101  GLY101     -0.2863
     81  N         11.4730   54.6580    4.0180 N.3   119  ALA119     -0.1245
     82  CA        11.8390   54.5450    2.6150 C.3   119  ALA119      0.1562
     83  C         12.2190   53.0980    2.3970 C.2   119  ALA119      0.2260
     84  O         13.0950   52.5290    3.0950 O.2   119  ALA119     -0.2867
     85  CB        13.0020   55.4490    2.2930 C.3   119  ALA119      0.0290
     86  N          9.4940   45.1250    0.5370 N.3   124  LYS124     -0.1245
     87  CA         9.2140   45.2770    1.9490 C.3   124  LYS124      0.1561
     88  C          7.7050   45.2830    2.2440 C.2   124  LYS124      0.2260
     89  O          7.3070   45.1950    3.3930 O.2   124  LYS124     -0.2867
     90  CB         9.8550   46.5470    2.5240 C.3   124  LYS124      0.0271
     91  CG        11.3650   46.7240    2.3600 C.3   124  LYS124      0.0035
     92  CD        12.1610   45.4290    2.4580 C.3   124  LYS124      0.0206
     93  CE        13.6150   45.6330    2.8880 C.3   124  LYS124      0.1093
     94  NZ        14.2360   46.9130    2.4340 N.3   124  LYS124     -0.1314
@<TRIPOS>BOND
     1     1     2    1
     2     2     3    1
     3     2     5    1
     4     3     4    2
     5     5     6    1
     6    10    11    1
     7     6     7    1
     8    12    11    1
     9    12    13    2
    10     8     7    2
    11     7     9   am
    12    11    14    1
    13    14    15    1
    14    15    16    1
    15    16    17    1
    16    17    18    1
    17    86    87    1
    18    33    32    2
    19    43    41    1
    20    42    41    1
    21    87    88    1
    22    87    90    1
    23    40    39    2
    24    38    41    1
    25    38    39    1
    26    38    37    1
    27    88    89    2
    28    34    35    1
    29    34    36    1
    30    34    31    1
    31    85    82    1
    32    91    92    1
    33    91    90    1
    34    32    37   am
    35    32    31    1
    36    83    82    1
    37    83    84    2
    38    94    93    1
    39    92    93    1
    40    82    81    1
    41    39    44   am
    42    31    30    1
    43    44    45    1
    44    47    46    2
    45    46    45    1
    46    30    28   am
    47    45    48    1
    48    29    28    2
    49    28    27    1
    50    56    55    2
    51    61    60    2
    52    50    49    1
    53    50    51    1
    54    60    59    1
    55    53    51   am
    56    53    54    1
    57    55    54    1
    58    55    58   am
    59    27    26    1
    60    59    58    1
    61    59    62    1
    62    51    52    2
    63    57    54    1
    64    75    74    1
    65    26    21   am
    66    64    63   ar
    67    62    63    1
    68    74    76    1
    69    74    73    2
    70    22    21    2
    71    21    20    1
    72    63    65   ar
    73    72    73    1
    74    72    71    1
    75    20    19    1
    76    20    23    1
    77    70    71    1
    78    70    67    1
    79    69    68    2
    80    68    77   am
    81    68    67    1
    82    78    77    1
    83    78    79    1
    84    23    25    1
    85    23    24    1
    86    67    66    1
    87    79    80    2
