@<TRIPOS>MOLECULE
tmp/4nmmA00.pdb
 184 179 0 0 0
SMALL
GASTEIGER

@<TRIPOS>ATOM
      1  N         51.2150   42.8410   17.4920 N.3    11  GLY11      -0.1225
      2  CA        49.9340   42.5420   18.1210 C.3    11  GLY11       0.1811
      3  C         50.0540   41.4290   19.1510 C.2    11  GLY11       0.2280
      4  O         51.0020   40.6290   19.1260 O.2    11  GLY11      -0.2866
      5  N         49.5640   38.0060   21.3950 N.3    13  CYS13      -0.1221
      6  CA        49.5650   36.5800   21.0090 C.3    13  CYS13       0.1808
      7  C         48.1690   36.1130   20.6870 C.2    13  CYS13       0.2602
      8  O         47.2370   36.3980   21.4260 O.2    13  CYS13      -0.2717
      9  CB        50.1320   35.6550   22.1070 C.3    13  CYS13       0.0970
     10  SG        50.2600   33.8980   21.5920 S.3    13  CYS13      -0.0800
     11  N         48.0320   35.3770   19.5810 N.am   14  GLY14      -0.1942
     12  CA        46.7580   34.7720   19.1520 C.3    14  GLY14       0.2014
     13  C         45.8150   35.6230   18.2970 C.2    14  GLY14       0.2639
     14  O         44.7380   35.1400   17.9180 O.2    14  GLY14      -0.2714
     15  N         46.1990   36.8710   17.9850 N.am   15  VAL15      -0.1963
     16  CA        45.3360   37.7490   17.1990 C.3    15  VAL15       0.1727
     17  C         45.2350   37.3130   15.7220 C.2    15  VAL15       0.2617
     18  O         44.2970   37.6590   15.0240 O.2    15  VAL15      -0.2715
     19  CB        45.7480   39.2490   17.2440 C.3    15  VAL15       0.0290
     20  CG1       45.6460   39.7890   18.6630 C.3    15  VAL15       0.0023
     21  CG2       47.0920   39.4700   16.6810 C.3    15  VAL15       0.0023
     22  N         46.2370   36.6100   15.2530 N.am   16  GLY16      -0.1940
     23  CA        46.2740   36.0630   13.8950 C.3    16  GLY16       0.2014
     24  C         47.3730   36.6550   13.0290 C.2    16  GLY16       0.2639
     25  O         47.2220   36.7200   11.8110 O.2    16  GLY16      -0.2714
     26  N         48.4460   37.1170   13.6490 N.am   17  LYS17      -0.1963
     27  CA        49.5410   37.7520   12.9240 C.3    17  LYS17       0.1728
     28  C         50.1380   36.8060   11.8690 C.2    17  LYS17       0.2617
     29  O         50.3610   37.2010   10.7140 O.2    17  LYS17      -0.2715
     30  CB        50.6270   38.2100   13.8900 C.3    17  LYS17       0.0311
     31  CG        50.1910   39.3260   14.8490 C.3    17  LYS17       0.0038
     32  CD        51.3640   39.7210   15.7510 C.3    17  LYS17       0.0206
     33  CE        51.8560   38.5790   16.6530 C.3    17  LYS17       0.1093
     34  NZ        50.8570   38.1320   17.6300 N.3    17  LYS17      -0.1314
     35  N         50.2670   35.5350   12.2630 N.am   18  SER18      -0.1936
     36  CA        50.8630   34.4960   11.4440 C.3    18  SER18       0.2055
     37  C         49.9170   34.0830   10.3900 C.2    18  SER18       0.2642
     38  O         50.2920   33.9590    9.2420 O.2    18  SER18      -0.2714
     39  CB        51.1810   33.2410   12.2870 C.3    18  SER18       0.2130
     40  OG        52.2550   33.4740   13.1470 O.3    18  SER18      -0.2179
     41  N         48.6900   33.8420   10.7950 N.am   19  ALA19      -0.1977
     42  CA        47.6380   33.5220    9.8680 C.3    19  ALA19       0.1597
     43  C         47.4580   34.5310    8.7690 C.2    19  ALA19       0.2287
     44  O         47.2440   34.1650    7.6130 O.2    19  ALA19      -0.2864
     45  CB        46.3230   33.3140   10.6140 C.3    19  ALA19       0.0319
     46  N         44.8470   29.2620    4.6790 N.3    29  PHE29      -0.1227
     47  CA        44.5760   29.4990    6.0640 C.3    29  PHE29       0.1736
     48  C         45.1230   28.3920    6.9570 C.2    29  PHE29       0.2595
     49  O         44.8490   27.1900    6.7530 O.2    29  PHE29      -0.2718
     50  CB        43.0790   29.6950    6.2980 C.3    29  PHE29       0.0547
     51  CG        42.7220   29.9130    7.7620 C.ar   29  PHE29      -0.0202
     52  CD1       43.1900   31.0130    8.4530 C.ar   29  PHE29      -0.0042
     53  CD2       41.9160   29.0160    8.4270 C.ar   29  PHE29      -0.0042
     54  CE1       42.8810   31.2170    9.8020 C.ar   29  PHE29      -0.0003
     55  CE2       41.5650   29.2140    9.7710 C.ar   29  PHE29      -0.0003
     56  CZ        42.0570   30.3160   10.4700 C.ar   29  PHE29      -0.0000
     57  N         45.8600   28.7980    7.9860 N.am   30  VAL30      -0.1966
     58  CA        46.4330   27.8470    8.9370 C.3    30  VAL30       0.1727
     59  C         45.6510   27.8260   10.2640 C.2    30  VAL30       0.2616
     60  O         45.5340   28.8560   10.9500 O.2    30  VAL30      -0.2715
     61  CB        47.9080   28.1610    9.1870 C.3    30  VAL30       0.0290
     62  CG1       48.4900   27.1770   10.1920 C.3    30  VAL30       0.0023
     63  CG2       48.6940   28.0670    7.8790 C.3    30  VAL30       0.0023
     64  N         45.0830   26.6600   10.5740 N.am   31  ASP31      -0.1957
     65  CA        44.3520   26.3950   11.8310 C.3    31  ASP31       0.1840
     66  C         45.2380   26.5980   13.0620 C.2    31  ASP31       0.2622
     67  O         44.8030   27.1580   14.0830 O.2    31  ASP31      -0.2715
     68  CB        43.8310   24.9380   11.8630 C.3    31  ASP31       0.1450
     69  CG        42.9520   24.5860   10.6490 C.2    31  ASP31       0.3671
     70  OD1       42.0080   25.3540   10.3360 O.co2  31  ASP31      -0.2456
     71  OD2       43.1990   23.5370   10.0110 O.co2  31  ASP31      -0.2456
     72  N         46.4700   26.1000   12.9680 N.am   32  GLU32      -0.1963
     73  CA        47.3930   26.0710   14.0980 C.3    32  GLU32       0.1733
     74  C         48.7660   26.4460   13.6070 C.2    32  GLU32       0.2616
     75  O         49.3230   25.7920   12.7190 O.2    32  GLU32      -0.2715
     76  CB        47.4500   24.6730   14.7380 C.3    32  GLU32       0.0429
     77  CG        46.0840   24.1150   15.1530 C.3    32  GLU32       0.1163
     78  CD        46.1870   22.8620   16.0100 C.2    32  GLU32       0.3649
     79  OE1       47.0690   22.0330   15.7010 O.co2  32  GLU32      -0.2457
     80  OE2       45.3830   22.7000   16.9690 O.co2  32  GLU32      -0.2457
     81  N         49.2850   27.5220   14.1770 N.am   33  TYR33      -0.1960
     82  CA        50.6800   27.9300   13.9830 C.3    33  TYR33       0.1771
     83  C         51.3590   28.1850   15.3200 C.2    33  TYR33       0.2620
     84  O         50.8750   28.9880   16.1370 O.2    33  TYR33      -0.2715
     85  CB        50.7090   29.2230   13.1940 C.3    33  TYR33       0.0574
     86  CG        52.0770   29.5920   12.6930 C.ar   33  TYR33      -0.0198
     87  CD1       52.6380   28.9140   11.6190 C.ar   33  TYR33      -0.0009
     88  CD2       52.8110   30.6160   13.2820 C.ar   33  TYR33      -0.0009
     89  CE1       53.8950   29.2460   11.1460 C.ar   33  TYR33       0.0417
     90  CE2       54.0640   30.9570   12.8070 C.ar   33  TYR33       0.0417
     91  CZ        54.5990   30.2750   11.7350 C.ar   33  TYR33       0.1957
     92  OH        55.8540   30.6200   11.2340 O.3    33  TYR33      -0.2866
     93  N         52.4800   27.5050   15.5600 N.am   34  ASP34      -0.1958
     94  CA        53.1800   27.6170   16.8490 C.3    34  ASP34       0.1825
     95  C         53.2840   29.0970   17.2360 C.2    34  ASP34       0.2464
     96  O         53.9060   29.9070   16.4890 O.2    34  ASP34      -0.2730
     97  CB        54.5630   27.0080   16.7350 C.3    34  ASP34       0.1450
     98  CG        55.2850   26.9210   18.0480 C.2    34  ASP34       0.3671
     99  OD1       55.0280   27.7200   19.0100 O.co2  34  ASP34      -0.2456
    100  OD2       56.1350   26.0100   18.1100 O.co2  34  ASP34      -0.2456
    101  N         52.6830   29.4500   18.3820 N.am   35  PRO35      -0.2727
    102  CA        52.6980   30.8110   18.8940 C.3    35  PRO35       0.1402
    103  C         54.0760   31.4080   19.2380 C.2    35  PRO35       0.2269
    104  O         54.1930   32.6330   19.4170 O.2    35  PRO35      -0.2865
    105  CB        51.8300   30.7220   20.1630 C.3    35  PRO35       0.0296
    106  CG        51.8180   29.2790   20.5410 C.3    35  PRO35       0.0237
    107  CD        51.8600   28.5580   19.2170 C.3    35  PRO35       0.0939
    108  N         56.8600   31.0460   17.3300 N.3    37  ILE37      -0.1245
    109  CA        57.7500   31.1390   16.1790 C.3    37  ILE37       0.1561
    110  C         57.6720   32.5680   15.6560 C.2    37  ILE37       0.2260
    111  O         56.6070   33.1510   15.5680 O.2    37  ILE37      -0.2867
    112  CB        57.4490   30.0950   15.0510 C.3    37  ILE37       0.0252
    113  CG1       57.5610   28.6700   15.6270 C.3    37  ILE37       0.0019
    114  CG2       58.4290   30.2790   13.8720 C.3    37  ILE37       0.0019
    115  CD1       57.3830   27.5600   14.6180 C.3    37  ILE37       0.0001
    116  N         55.9830   38.8330   14.0400 N.3    59  THR59      -0.1203
    117  CA        56.5690   38.8810   15.3630 C.3    59  THR59       0.1994
    118  C         55.8610   37.9420   16.3210 C.2    59  THR59       0.2618
    119  O         54.6920   37.5740   16.1420 O.2    59  THR59      -0.2717
    120  CB        56.4990   40.3000   16.0050 C.3    59  THR59       0.1784
    121  OG1       55.1200   40.6370   16.2880 O.3    59  THR59      -0.2211
    122  CG2       57.1750   41.3530   15.0800 C.3    59  THR59       0.0376
    123  N         56.5660   37.6300   17.4030 N.am   60  ALA60      -0.1965
    124  CA        56.0070   36.7490   18.4240 C.3    60  ALA60       0.1728
    125  C         56.1920   37.2870   19.8060 C.2    60  ALA60       0.2616
    126  O         56.1090   36.5310   20.7370 O.2    60  ALA60      -0.2715
    127  CB        56.5760   35.3310   18.3200 C.3    60  ALA60       0.0334
    128  N         56.3900   38.5990   19.9160 N.am   61  GLY61      -0.1955
    129  CA        56.4970   39.2880   21.1730 C.3    61  GLY61       0.1869
    130  C         57.9260   39.3220   21.7110 C.2    61  GLY61       0.2309
    131  O         58.8170   39.9760   21.1410 O.2    61  GLY61      -0.2863
    132  N         41.3510   41.7890   13.1530 N.3   117  ASN117     -0.1225
    133  CA        41.3150   40.4790   12.5080 C.3   117  ASN117      0.1785
    134  C         40.2070   39.6020   13.0300 C.2   117  ASN117      0.2597
    135  O         39.6060   39.8950   14.0310 O.2   117  ASN117     -0.2718
    136  CB        42.7000   39.8010   12.6300 C.3   117  ASN117      0.1169
    137  CG        42.7890   38.5100   11.7750 C.2   117  ASN117      0.2627
    138  OD1       42.3030   38.4720   10.6260 O.2   117  ASN117     -0.2716
    139  ND2       43.3820   37.4610   12.3360 N.am  117  ASN117     -0.0877
    140  N         39.9500   38.4910   12.3290 N.am  118  LYS118     -0.1980
    141  CA        38.9180   37.5020   12.6900 C.3   118  LYS118      0.1596
    142  C         37.5070   38.0220   12.4710 C.2   118  LYS118      0.2287
    143  O         36.5770   37.6400   13.1760 O.2   118  LYS118     -0.2864
    144  CB        39.0900   36.9860   14.1360 C.3   118  LYS118      0.0298
    145  CG        40.4800   36.4540   14.4270 C.3   118  LYS118      0.0038
    146  CD        40.5550   35.7100   15.7440 C.3   118  LYS118      0.0206
    147  CE        41.9590   35.2220   16.0360 C.3   118  LYS118      0.1093
    148  NZ        42.0540   34.4810   17.3220 N.3   118  LYS118     -0.1314
    149  N         35.4700   37.3510   10.4450 N.3   120  ASP120     -0.1225
    150  CA        34.5520   36.2760   10.0130 C.3   120  ASP120      0.1805
    151  C         33.7320   35.6980   11.1650 C.2   120  ASP120      0.2597
    152  O         32.7240   35.0630   10.9600 O.2   120  ASP120     -0.2718
    153  CB        35.3110   35.1210    9.3850 C.3   120  ASP120      0.1424
    154  CG        36.3780   34.5930   10.2880 C.2   120  ASP120      0.3668
    155  OD1       37.4310   35.2910   10.4050 O.co2 120  ASP120     -0.2456
    156  OD2       36.1810   33.5030   10.8990 O.co2 120  ASP120     -0.2456
    157  N         34.1860   35.9150   12.3850 N.am  121  LEU121     -0.1979
    158  CA        33.4770   35.3980   13.5420 C.3   121  LEU121      0.1596
    159  C         32.3460   36.3020   13.9340 C.2   121  LEU121      0.2287
    160  O         32.4850   37.5220   13.9220 O.2   121  LEU121     -0.2864
    161  CB        34.4430   35.2030   14.7060 C.3   121  LEU121      0.0297
    162  CG        35.5050   34.1490   14.4400 C.3   121  LEU121      0.0022
    163  CD1       36.4890   34.0420   15.5910 C.3   121  LEU121      0.0001
    164  CD2       34.8410   32.8220   14.1790 C.3   121  LEU121      0.0001
    165  N         39.9500   39.0610    7.7600 N.3   146  SER146     -0.1202
    166  CA        39.8020   37.6570    8.1630 C.3   146  SER146      0.2020
    167  C         40.8710   36.8840    7.4230 C.2   146  SER146      0.2619
    168  O         40.8570   36.8120    6.1870 O.2   146  SER146     -0.2717
    169  CB        38.4650   37.1170    7.7690 C.3   146  SER146      0.2103
    170  OG        38.4300   35.6780    7.9740 O.3   146  SER146     -0.2182
    171  N         41.8000   36.3140    8.1680 N.am  147  ALA147     -0.1965
    172  CA        42.8570   35.4790    7.5900 C.3   147  ALA147      0.1728
    173  C         42.2600   34.1860    7.0840 C.2   147  ALA147      0.2616
    174  O         42.8730   33.4820    6.2850 O.2   147  ALA147     -0.2715
    175  CB        43.9520   35.1930    8.6450 C.3   147  ALA147      0.0334
    176  N         41.0590   33.8780    7.5530 N.am  148  LYS148     -0.1977
    177  CA        40.3700   32.6110    7.2000 C.3   148  LYS148      0.1596
    178  C         39.7130   32.7230    5.8300 C.2   148  LYS148      0.2287
    179  O         39.9360   31.9040    4.9640 O.2   148  LYS148     -0.2864
    180  CB        39.3390   32.2570    8.2910 C.3   148  LYS148      0.0298
    181  CG        38.5850   30.9480    8.0350 C.3   148  LYS148      0.0038
    182  CD        37.7710   30.5710    9.2420 C.3   148  LYS148      0.0206
    183  CE        37.1520   29.1950    9.0690 C.3   148  LYS148      0.1093
    184  NZ        36.3060   28.8310   10.2540 N.3   148  LYS148     -0.1314
@<TRIPOS>BOND
     1    46    47    1
     2   179   178    2
     3   178   177    1
     4    47    50    1
     5    47    48    1
     6   168   167    2
     7   174   173    2
     8    50    51    1
     9    49    48    2
    10    48    57   am
    11   173   176   am
    12   173   172    1
    13   177   176    1
    14   177   180    1
    15   167   166    1
    16   167   171   am
    17   172   171    1
    18   172   175    1
    19    44    43    2
    20   165   166    1
    21    51    53   ar
    22    51    52   ar
    23   169   170    1
    24   169   166    1
    25    63    61    1
    26    57    58    1
    27   181   180    1
    28   181   182    1
    29    53    55   ar
    30    52    54   ar
    31    43    42    1
    32    58    61    1
    33    58    59    1
    34   183   182    1
    35   183   184    1
    36    61    62    1
    37    38    37    2
    38   153   150    1
    39   153   154    1
    40    55    56   ar
    41    54    56   ar
    42    42    45    1
    43    42    41    1
    44    71    69   ar
    45   150   149    1
    46   150   151    1
    47    59    64   am
    48    59    60    2
    49   154   155   ar
    50   154   156   ar
    51    70    69   ar
    52    37    41   am
    53    37    36    1
    54    64    65    1
    55   138   137    2
    56    69    68    1
    57    29    28    2
    58   152   151    2
    59    89    87   ar
    60    89    91   ar
    61   151   157   am
    62    92    91    1
    63    36    35    1
    64    36    39    1
    65    87    86   ar
    66    91    90   ar
    67   137   139   am
    68   137   136    1
    69    25    24    2
    70    65    68    1
    71    65    66    1
    72    28    35   am
    73    28    27    1
    74    39    40    1
    75   140   141    1
    76   140   134   am
    77   157   158    1
    78   142   141    1
    79   142   143    2
    80   133   136    1
    81   133   134    1
    82   133   132    1
    83   141   144    1
    84    86    85    1
    85    86    88   ar
    86    75    74    2
    87    90    88   ar
    88    27    26    1
    89    27    30    1
    90    72    66   am
    91    72    73    1
    92    24    26   am
    93    24    23    1
    94   134   135    2
    95    66    67    2
    96    85    82    1
    97   158   159    1
    98   158   161    1
    99    74    73    1
   100    74    81   am
   101   114   112    1
   102    30    31    1
   103    23    22    1
   104   160   159    2
   105    82    81    1
   106    82    83    1
   107   116   117    1
   108    73    76    1
   109   144   145    1
   110   164   162    1
   111   145   146    1
   112   162   161    1
   113   162   163    1
   114   115   113    1
   115    76    77    1
   116    31    32    1
   117    18    17    2
   118   112   113    1
   119   112   109    1
   120   122   120    1
   121    77    78    1
   122    22    17   am
   123    83    93   am
   124    83    84    2
   125   117   120    1
   126   117   118    1
   127    93    94    1
   128   111   110    2
   129   110   109    1
   130    79    78   ar
   131    17    16    1
   132   146   147    1
   133    32    33    1
   134   120   121    1
   135    78    80   ar
   136   147   148    1
   137   119   118    2
   138   109   108    1
   139   118   123   am
   140    96    95    2
   141    33    34    1
   142    21    19    1
   143    97    94    1
   144    97    98    1
   145    94    95    1
   146    16    19    1
   147    16    15    1
   148    95   101   am
   149    19    20    1
   150   123   124    1
   151     1     2    1
   152    14    13    2
   153    15    13   am
   154    98   100   ar
   155    98    99   ar
   156     2     3    1
   157    13    12    1
   158   127   124    1
   159   101   102    1
   160   101   107    1
   161   124   125    1
   162   102   103    1
   163   102   105    1
   164     4     3    2
   165    12    11    1
   166   107   106    1
   167   103   104    2
   168    11     7   am
   169   125   128   am
   170   125   126    2
   171   128   129    1
   172   105   106    1
   173     7     6    1
   174     7     8    2
   175     6     5    1
   176     6     9    1
   177   131   130    2
   178   129   130    1
   179    10     9    1
