@<TRIPOS>MOLECULE
tmp/4nmnA00.pdb
 181 174 0 0 0
SMALL
GASTEIGER

@<TRIPOS>ATOM
      1  N          4.7120    5.0710  -26.3040 N.3   195  ARG195     -0.1231
      2  CA         5.3390    3.8400  -25.8360 C.3   195  ARG195      0.1679
      3  C          6.7630    3.7170  -26.3700 C.2   195  ARG195      0.2434
      4  O          7.1000    4.3380  -27.3770 O.2   195  ARG195     -0.2733
      5  CB         4.5110    2.6220  -26.2510 C.3   195  ARG195      0.0321
      6  CG         3.2150    2.4740  -25.4860 C.3   195  ARG195      0.0489
      7  CD         3.1110    1.0660  -24.9350 C.3   195  ARG195      0.2205
      8  NE         4.1560    0.8200  -23.9440 N.pl3 195  ARG195     -0.0865
      9  CZ         4.4680   -0.3770  -23.4590 C.cat 195  ARG195      0.5346
     10  NH1        5.4350   -0.4940  -22.5600 N.pl3 195  ARG195      0.1354
     11  NH2        3.8200   -1.4560  -23.8730 N.pl3 195  ARG195      0.1354
     12  N          7.6110    2.9310  -25.6840 N.am  196  PRO196     -0.2718
     13  CA         8.9930    2.7180  -26.1320 C.3   196  PRO196      0.1535
     14  C          9.0600    2.2000  -27.5660 C.2   196  PRO196      0.2599
     15  O          8.3670    1.2400  -27.9090 O.2   196  PRO196     -0.2715
     16  CB         9.5290    1.6470  -25.1710 C.3   196  PRO196      0.0310
     17  CG         8.3940    1.2820  -24.2590 C.3   196  PRO196      0.0237
     18  CD         7.3710    2.3570  -24.3510 C.3   196  PRO196      0.0939
     19  N          9.8930    2.8330  -28.3860 N.am  197  GLY197     -0.1941
     20  CA        10.0770    2.4320  -29.7700 C.3   197  GLY197      0.2014
     21  C          9.0500    3.0140  -30.7250 C.2   197  GLY197      0.2639
     22  O          8.9300    2.5680  -31.8650 O.2   197  GLY197     -0.2714
     23  N          8.3120    4.0170  -30.2650 N.am  198  MET198     -0.1963
     24  CA         7.3130    4.6690  -31.1030 C.3   198  MET198      0.1736
     25  C          7.8930    5.8640  -31.8550 C.2   198  MET198      0.2617
     26  O          7.1960    6.5170  -32.6310 O.2   198  MET198     -0.2715
     27  CB         6.1030    5.0970  -30.2720 C.3   198  MET198      0.0427
     28  CG         4.7910    4.9710  -31.0140 C.3   198  MET198      0.0599
     29  SD         4.5350    3.2950  -31.6320 S.3   198  MET198     -0.1393
     30  CE         4.4550    2.3800  -30.0940 C.3   198  MET198      0.0692
     31  N          9.1730    6.1360  -31.6270 N.am  199  GLY199     -0.1940
     32  CA         9.8730    7.2070  -32.3170 C.3   199  GLY199      0.2014
     33  C          9.7050    8.6200  -31.7840 C.2   199  GLY199      0.2639
     34  O          9.6580    9.5730  -32.5630 O.2   199  GLY199     -0.2714
     35  N          9.6260    8.7730  -30.4650 N.am  200  LYS200     -0.1963
     36  CA         9.5600   10.1150  -29.8890 C.3   200  LYS200      0.1728
     37  C         10.9350   10.7800  -29.7890 C.2   200  LYS200      0.2617
     38  O         11.0540   11.9940  -29.9620 O.2   200  LYS200     -0.2715
     39  CB         8.8240   10.1290  -28.5430 C.3   200  LYS200      0.0311
     40  CG         9.3080    9.1210  -27.5270 C.3   200  LYS200      0.0038
     41  CD         8.4550    9.1710  -26.2690 C.3   200  LYS200      0.0206
     42  CE         8.9020    8.1280  -25.2570 C.3   200  LYS200      0.1093
     43  NZ         8.7260    6.7380  -25.7660 N.3   200  LYS200     -0.1314
     44  N         11.9660    9.9830  -29.5280 N.am  201  THR201     -0.1937
     45  CA        13.3330   10.4920  -29.5080 C.3   201  THR201      0.2028
     46  C         13.7020   11.0060  -30.8960 C.2   201  THR201      0.2642
     47  O         14.3470   12.0450  -31.0390 O.2   201  THR201     -0.2714
     48  CB        14.3380    9.4060  -29.0810 C.3   201  THR201      0.1808
     49  OG1       14.0770    9.0140  -27.7280 O.3   201  THR201     -0.2208
     50  CG2       15.7620    9.9280  -29.1880 C.3   201  THR201      0.0379
     51  N         13.2800   10.2630  -31.9140 N.am  202  ALA202     -0.1977
     52  CA        13.4900   10.6390  -33.3060 C.3   202  ALA202      0.1597
     53  C         12.6780   11.8780  -33.6860 C.2   202  ALA202      0.2287
     54  O         13.1610   12.7490  -34.4130 O.2   202  ALA202     -0.2864
     55  CB        13.1410    9.4770  -34.2170 C.3   202  ALA202      0.0319
     56  N         18.4530    9.7360  -21.8390 N.3   225  GLU225     -0.1231
     57  CA        18.3510    8.3770  -22.3610 C.3   225  GLU225      0.1699
     58  C         19.5980    7.9610  -23.1330 C.2   225  GLU225      0.2592
     59  O         20.3060    7.0350  -22.7390 O.2   225  GLU225     -0.2718
     60  CB        17.1110    8.2410  -23.2540 C.3   225  GLU225      0.0402
     61  CG        16.7300    6.8060  -23.6050 C.3   225  GLU225      0.1161
     62  CD        15.6130    6.7290  -24.6350 C.2   225  GLU225      0.3649
     63  OE1       14.7730    7.6520  -24.6790 O.co2 225  GLU225     -0.2457
     64  OE2       15.5750    5.7430  -25.4010 O.co2 225  GLU225     -0.2457
     65  N         19.8600    8.6510  -24.2360 N.am  226  MET226     -0.1979
     66  CA        20.9610    8.2860  -25.1140 C.3   226  MET226      0.1605
     67  C         22.0900    9.3090  -25.0910 C.2   226  MET226      0.2287
     68  O         21.8640   10.4950  -24.8550 O.2   226  MET226     -0.2864
     69  CB        20.4450    8.0910  -26.5380 C.3   226  MET226      0.0413
     70  CG        19.2160    7.2030  -26.6090 C.3   226  MET226      0.0598
     71  SD        18.5470    7.0770  -28.2700 S.3   226  MET226     -0.1393
     72  CE        19.9720    6.4470  -29.1520 C.3   226  MET226      0.0692
     73  N         22.6110    9.2110  -35.0560 N.3   234  ARG234     -0.1245
     74  CA        21.2630    9.0100  -35.5730 C.3   234  ARG234      0.1563
     75  C         20.8220   10.1550  -36.4820 C.2   234  ARG234      0.2260
     76  O         20.2450    9.9340  -37.5460 O.2   234  ARG234     -0.2867
     77  CB        20.2650    8.8240  -34.4250 C.3   234  ARG234      0.0307
     78  CG        18.8160    8.6920  -34.8770 C.3   234  ARG234      0.0489
     79  CD        17.8560    8.5980  -33.6960 C.3   234  ARG234      0.2205
     80  NE        18.0430    7.3780  -32.9160 N.pl3 234  ARG234     -0.0865
     81  CZ        17.2140    6.9720  -31.9590 C.cat 234  ARG234      0.5346
     82  NH1       17.4590    5.8470  -31.3010 N.pl3 234  ARG234      0.1354
     83  NH2       16.1370    7.6880  -31.6650 N.pl3 234  ARG234      0.1354
     84  N         20.9380    3.6030  -40.4150 N.3   244  LEU244     -0.1231
     85  CA        21.6270    3.6560  -39.1330 C.3   244  LEU244      0.1693
     86  C         22.3120    2.3440  -38.7620 C.2   244  LEU244      0.2592
     87  O         23.3960    2.3490  -38.1780 O.2   244  LEU244     -0.2718
     88  CB        20.6470    4.0700  -38.0330 C.3   244  LEU244      0.0284
     89  CG        21.2240    4.3780  -36.6510 C.3   244  LEU244      0.0019
     90  CD1       22.3410    5.4020  -36.7490 C.3   244  LEU244      0.0001
     91  CD2       20.1240    4.8750  -35.7260 C.3   244  LEU244      0.0001
     92  N         21.6970    1.2320  -39.1430 N.am  245  PHE245     -0.1976
     93  CA        22.2360   -0.0770  -38.8030 C.3   245  PHE245      0.1639
     94  C         23.5380   -0.3850  -39.4970 C.2   245  PHE245      0.2290
     95  O         24.3710   -1.1100  -38.9770 O.2   245  PHE245     -0.2864
     96  CB        21.2130   -1.2060  -39.0060 C.3   245  PHE245      0.0560
     97  CG        20.7440   -1.4060  -40.4320 C.ar  245  PHE245     -0.0200
     98  CD1       19.7250   -0.6370  -40.9630 C.ar  245  PHE245     -0.0042
     99  CD2       21.2660   -2.4220  -41.2120 C.ar  245  PHE245     -0.0042
    100  CE1       19.2790   -0.8420  -42.2550 C.ar  245  PHE245     -0.0003
    101  CE2       20.8220   -2.6290  -42.5040 C.ar  245  PHE245     -0.0003
    102  CZ        19.8260   -1.8390  -43.0250 C.ar  245  PHE245     -0.0000
    103  N         26.3230    1.8210  -37.6620 N.3   248  ARG248     -0.1245
    104  CA        26.7370    1.2520  -36.3900 C.3   248  ARG248      0.1563
    105  C         27.4860   -0.0530  -36.5610 C.2   248  ARG248      0.2260
    106  O         28.3520   -0.3770  -35.7680 O.2   248  ARG248     -0.2867
    107  CB        25.5360    1.0390  -35.4650 C.3   248  ARG248      0.0307
    108  CG        24.6880    2.2810  -35.2330 C.3   248  ARG248      0.0489
    109  CD        24.1870    2.4140  -33.7950 C.3   248  ARG248      0.2205
    110  NE        23.9590    3.8210  -33.4400 N.pl3 248  ARG248     -0.0865
    111  CZ        22.9430    4.2770  -32.7090 C.cat 248  ARG248      0.5346
    112  NH1       22.8400    5.5700  -32.4620 N.pl3 248  ARG248      0.1354
    113  NH2       22.0330    3.4510  -32.2230 N.pl3 248  ARG248      0.1354
    114  N          7.1770    8.3900  -21.3450 N.3   345  GLN345     -0.1245
    115  CA         6.9360    7.0160  -21.7680 C.3   345  GLN345      0.1566
    116  C          5.6320    6.4600  -21.1960 C.2   345  GLN345      0.2260
    117  O          5.2370    6.7940  -20.0790 O.2   345  GLN345     -0.2867
    118  CB         8.1130    6.1240  -21.3780 C.3   345  GLN345      0.0367
    119  CG         9.4230    6.5190  -22.0360 C.3   345  GLN345      0.0905
    120  CD        10.0210    5.4030  -22.8720 C.2   345  GLN345      0.2608
    121  OE1        9.6340    4.2410  -22.7480 O.2   345  GLN345     -0.2717
    122  NE2       10.9730    5.7530  -23.7310 N.am  345  GLN345     -0.0878
    123  N          2.2160    4.0530  -33.9690 N.3   381  ARG381     -0.1245
    124  CA         2.5610    3.1780  -35.1070 C.3   381  ARG381      0.1563
    125  C          1.8710    1.7740  -35.1790 C.2   381  ARG381      0.2260
    126  O          2.3230    0.7300  -34.6030 O.2   381  ARG381     -0.2867
    127  CB         4.0790    3.0250  -35.2100 C.3   381  ARG381      0.0307
    128  CG         4.7890    4.2580  -35.7420 C.3   381  ARG381      0.0489
    129  CD         6.2570    4.2630  -35.3560 C.3   381  ARG381      0.2205
    130  NE         7.0260    3.3030  -36.1360 N.pl3 381  ARG381     -0.0865
    131  CZ         7.6610    2.2580  -35.6200 C.cat 381  ARG381      0.5346
    132  NH1        8.3390    1.4360  -36.4060 N.pl3 381  ARG381      0.1354
    133  NH2        7.6200    2.0340  -34.3200 N.pl3 381  ARG381      0.1354
    134  N          3.8340   -0.8310  -36.0250 N.3   384  TYR384     -0.1241
    135  CA         4.7450   -1.3740  -35.0390 C.3   384  TYR384      0.1605
    136  C          4.2240   -2.7400  -34.6680 C.2   384  TYR384      0.2264
    137  O          4.9840   -3.6700  -34.4280 O.2   384  TYR384     -0.2867
    138  CB         4.8070   -0.5060  -33.7850 C.3   384  TYR384      0.0534
    139  CG         5.7900   -1.0050  -32.7440 C.ar  384  TYR384     -0.0201
    140  CD1        6.6380   -2.0640  -33.0170 C.ar  384  TYR384     -0.0009
    141  CD2        5.8750   -0.4150  -31.4950 C.ar  384  TYR384     -0.0009
    142  CE1        7.5370   -2.5260  -32.0800 C.ar  384  TYR384      0.0417
    143  CE2        6.7740   -0.8760  -30.5510 C.ar  384  TYR384      0.0417
    144  CZ         7.6030   -1.9320  -30.8560 C.ar  384  TYR384      0.1957
    145  OH         8.5090   -2.4070  -29.9460 O.3   384  TYR384     -0.2866
    146  N          6.8580    8.0950  -41.7500 N.3   414  PHE414     -0.1241
    147  CA         7.9990    7.7070  -40.9290 C.3   414  PHE414      0.1605
    148  C          8.8110    6.5960  -41.5820 C.2   414  PHE414      0.2264
    149  O          8.2850    5.5240  -41.8770 O.2   414  PHE414     -0.2867
    150  CB         7.5500    7.2660  -39.5360 C.3   414  PHE414      0.0534
    151  CG         8.6720    6.7540  -38.6780 C.ar  414  PHE414     -0.0203
    152  CD1        9.6140    7.6230  -38.1550 C.ar  414  PHE414     -0.0042
    153  CD2        8.7870    5.4010  -38.3980 C.ar  414  PHE414     -0.0042
    154  CE1       10.6490    7.1560  -37.3690 C.ar  414  PHE414     -0.0003
    155  CE2        9.8200    4.9270  -37.6100 C.ar  414  PHE414     -0.0003
    156  CZ        10.7520    5.8060  -37.0950 C.ar  414  PHE414     -0.0000
    157  N         11.5170    3.9020  -41.0650 N.3   416  LYS416     -0.1231
    158  CA        12.1750    3.1320  -40.0070 C.3   416  LYS416      0.1693
    159  C         13.6900    3.0690  -40.2330 C.2   416  LYS416      0.2591
    160  O         14.4660    3.1700  -39.2830 O.2   416  LYS416     -0.2718
    161  CB        11.5640    1.7290  -39.8770 C.3   416  LYS416      0.0285
    162  CG        11.3660    0.9940  -41.1890 C.3   416  LYS416      0.0035
    163  CD        10.5230   -0.2550  -40.9850 C.3   416  LYS416      0.0206
    164  CE        10.4230   -1.0720  -42.2620 C.3   416  LYS416      0.1093
    165  NZ        11.7610   -1.5150  -42.7400 N.3   416  LYS416     -0.1314
    166  N         14.0950    2.8880  -41.4850 N.am  417  GLU417     -0.1979
    167  CA        15.5070    2.7510  -41.8230 C.3   417  GLU417      0.1602
    168  C         16.3420    3.9090  -41.2850 C.2   417  GLU417      0.2287
    169  O         17.2170    3.7180  -40.4400 O.2   417  GLU417     -0.2864
    170  CB        15.6830    2.6420  -43.3390 C.3   417  GLU417      0.0415
    171  CG        15.1880    1.3310  -43.9280 C.3   417  GLU417      0.1163
    172  CD        15.4600    0.1460  -43.0220 C.2   417  GLU417      0.3649
    173  OE1       16.5490    0.0980  -42.4130 O.co2 417  GLU417     -0.2457
    174  OE2       14.5850   -0.7400  -42.9190 O.co2 417  GLU417     -0.2457
    175  N         15.2730    6.3900  -39.5460 N.3   419  THR419     -0.1218
    176  CA        14.6620    6.9300  -38.3410 C.3   419  THR419      0.1862
    177  C         14.3210    8.4000  -38.5490 C.2   419  THR419      0.2287
    178  O         14.6840    9.2530  -37.7380 O.2   419  THR419     -0.2866
    179  CB        15.5920    6.7820  -37.1220 C.3   419  THR419      0.1770
    180  OG1       16.8010    7.5160  -37.3480 O.3   419  THR419     -0.2211
    181  CG2       15.9290    5.3180  -36.8850 C.3   419  THR419      0.0375
@<TRIPOS>BOND
     1   171   170    1
     2   171   172    1
     3   170   167    1
     4   102   101   ar
     5   102   100   ar
     6   172   174   ar
     7   172   173   ar
     8   165   164    1
     9   101    99   ar
    10   164   163    1
    11   100    98   ar
    12   149   148    2
    13   167   166    1
    14   167   168    1
    15   146   147    1
    16   148   147    1
    17   166   159   am
    18   168   169    2
    19    99    97   ar
    20   162   163    1
    21   162   161    1
    22   157   158    1
    23    98    97   ar
    24   147   150    1
    25    97    96    1
    26    84    85    1
    27   159   158    1
    28   159   160    2
    29   158   161    1
    30   175   176    1
    31   150   151    1
    32    94    95    2
    33    94    93    1
    34    92    93    1
    35    92    86   am
    36    85    86    1
    37    85    88    1
    38    96    93    1
    39    86    87    2
    40   151   153   ar
    41   151   152   ar
    42   177   176    1
    43   177   178    2
    44   153   155   ar
    45   176   179    1
    46   152   154   ar
    47    88    89    1
    48   103   104    1
    49   155   156   ar
    50    76    75    2
    51   154   156   ar
    52   180   179    1
    53   179   181    1
    54    90    89    1
    55    89    91    1
    56   105   104    1
    57   105   106    2
    58    75    74    1
    59   132   131    1
    60   104   107    1
    61   130   131    2
    62   130   129    1
    63   134   135    1
    64   128   129    1
    65   128   127    1
    66   131   133    1
    67    74    73    1
    68    74    77    1
    69   107   108    1
    70   108   109    1
    71   127   124    1
    72   125   124    1
    73   125   126    2
    74   124   123    1
    75   135   136    1
    76   135   138    1
    77    78    77    1
    78    78    79    1
    79   136   137    2
    80    54    53    2
    81    55    52    1
    82   109   110    1
    83   138   139    1
    84    79    80    1
    85    53    52    1
    86   110   111    2
    87    52    51    1
    88   140   139   ar
    89   140   142   ar
    90    80    81    2
    91   139   141   ar
    92   111   112    1
    93   111   113    1
    94    26    25    2
    95    34    33    2
    96    32    33    1
    97    32    31    1
    98   142   144   ar
    99    81    83    1
   100    81    82    1
   101    51    46   am
   102    22    21    2
   103    25    31   am
   104    25    24    1
   105    33    35   am
   106    29    28    1
   107    29    30    1
   108   141   143   ar
   109    24    27    1
   110    24    23    1
   111    47    46    2
   112    28    27    1
   113    46    45    1
   114   144   143   ar
   115   144   145    1
   116    21    23   am
   117    21    20    1
   118    35    36    1
   119    38    37    2
   120    36    37    1
   121    36    39    1
   122    37    44   am
   123    20    19    1
   124    44    45    1
   125    45    48    1
   126    50    48    1
   127    72    71    1
   128    48    49    1
   129    39    40    1
   130    19    14   am
   131    71    70    1
   132    15    14    2
   133    14    13    1
   134    40    41    1
   135     4     3    2
   136    70    69    1
   137    69    66    1
   138     3     2    1
   139     3    12   am
   140     1     2    1
   141    41    42    1
   142     5     2    1
   143     5     6    1
   144    13    12    1
   145    13    16    1
   146    43    42    1
   147    12    18    1
   148     6     7    1
   149    64    62   ar
   150    16    17    1
   151    66    67    1
   152    66    65    1
   153    67    68    2
   154     7     8    1
   155    63    62   ar
   156    62    61    1
   157    18    17    1
   158    65    58   am
   159     8     9    2
   160    11     9    1
   161   122   120   am
   162    61    60    1
   163     9    10    1
   164    60    57    1
   165    58    59    2
   166    58    57    1
   167   120   121    2
   168   120   119    1
   169    57    56    1
   170   119   118    1
   171   115   118    1
   172   115   114    1
   173   115   116    1
   174   116   117    2
