@<TRIPOS>MOLECULE
tmp/4nmrB00.pdb
 148 141 0 0 0
SMALL
GASTEIGER

@<TRIPOS>ATOM
      1  N         -1.3770   22.7980   50.6380 N.3    15  GLY15      -0.1210
      2  CA        -0.4190   23.1440   49.6040 C.3    15  GLY15       0.1956
      3  C         -0.3680   22.0630   48.5380 C.2    15  GLY15       0.2612
      4  O         -1.2280   21.1790   48.5020 O.2    15  GLY15      -0.2717
      5  N          0.6350   22.1420   47.6660 N.am   16  LEU16      -0.1965
      6  CA         0.8970   21.0960   46.6800 C.3    16  LEU16       0.1728
      7  C          1.6580   19.9090   47.2870 C.2    16  LEU16       0.2617
      8  O          1.4790   18.7670   46.8670 O.2    16  LEU16      -0.2715
      9  CB         1.7010   21.6630   45.5030 C.3    16  LEU16       0.0311
     10  CG         0.9700   22.6340   44.5720 C.3    16  LEU16       0.0022
     11  CD1        1.9380   23.2570   43.5790 C.3    16  LEU16       0.0001
     12  CD2       -0.1670   21.9310   43.8450 C.3    16  LEU16       0.0001
     13  N          2.5160   20.1820   48.2670 N.am   17  GLY17      -0.1940
     14  CA         3.3380   19.1410   48.8650 C.3    17  GLY17       0.2014
     15  C          4.5910   18.8390   48.0590 C.2    17  GLY17       0.2639
     16  O          4.9850   17.6820   47.9180 O.2    17  GLY17      -0.2714
     17  N          5.2190   19.8830   47.5270 N.am   18  ILE18      -0.1963
     18  CA         6.4340   19.7190   46.7470 C.3    18  ILE18       0.1727
     19  C          7.4850   20.7280   47.1750 C.2    18  ILE18       0.2617
     20  O          7.1620   21.8810   47.4580 O.2    18  ILE18      -0.2715
     21  CB         6.1820   19.9240   45.2360 C.3    18  ILE18       0.0290
     22  CG1        5.1920   18.8900   44.7110 C.3    18  ILE18       0.0022
     23  CG2        7.4900   19.8200   44.4610 C.3    18  ILE18       0.0023
     24  CD1        5.7590   17.5270   44.6860 C.3    18  ILE18       0.0001
     25  N          8.7330   20.2790   47.2500 N.am   19  SER19      -0.1936
     26  CA         9.8740   21.1890   47.3010 C.3    19  SER19       0.2055
     27  C         10.5020   21.2470   45.9110 C.2    19  SER19       0.2643
     28  O         10.6070   20.2270   45.2200 O.2    19  SER19      -0.2714
     29  CB        10.9190   20.7330   48.3250 C.3    19  SER19       0.2130
     30  OG        10.4240   20.7830   49.6610 O.3    19  SER19      -0.2179
     31  N         10.9020   22.4400   45.4840 N.am   20  ILE20      -0.1963
     32  CA        11.5720   22.5560   44.1960 C.3    20  ILE20       0.1727
     33  C         12.8750   23.3420   44.2680 C.2    20  ILE20       0.2617
     34  O         13.0410   24.2440   45.0960 O.2    20  ILE20      -0.2715
     35  CB        10.6620   23.1700   43.0940 C.3    20  ILE20       0.0290
     36  CG1       10.2320   24.5850   43.4660 C.3    20  ILE20       0.0022
     37  CG2        9.4470   22.2800   42.8130 C.3    20  ILE20       0.0023
     38  CD1        9.7770   25.4010   42.2700 C.3    20  ILE20       0.0001
     39  N         13.7970   22.9700   43.3880 N.am   21  THR21      -0.1937
     40  CA        15.0430   23.6830   43.2000 C.3    21  THR21       0.2028
     41  C         15.1500   24.0340   41.7200 C.2    21  THR21       0.2642
     42  O         14.2940   23.6370   40.9240 O.2    21  THR21      -0.2714
     43  CB        16.2500   22.8070   43.6060 C.3    21  THR21       0.1808
     44  OG1       16.2980   21.6330   42.7820 O.3    21  THR21      -0.2208
     45  CG2       16.1430   22.3910   45.0680 C.3    21  THR21       0.0379
     46  N         16.1800   24.7910   41.3560 N.am   22  GLY22      -0.1954
     47  CA        16.4760   25.0320   39.9530 C.3    22  GLY22       0.1869
     48  C         15.8480   26.2850   39.3790 C.2    22  GLY22       0.2309
     49  O         15.3390   27.1380   40.1080 O.2    22  GLY22      -0.2863
     50  N         18.0030   30.9290   36.0480 N.3    25  GLU25      -0.1231
     51  CA        19.2070   31.6400   36.4820 C.3    25  GLU25       0.1699
     52  C         20.2970   30.6720   36.9200 C.2    25  GLU25       0.2592
     53  O         21.4550   31.0630   37.0840 O.2    25  GLU25      -0.2718
     54  CB        18.8980   32.6480   37.6000 C.3    25  GLU25       0.0402
     55  CG        18.5300   32.0290   38.9480 C.3    25  GLU25       0.1161
     56  CD        17.0290   31.8650   39.1390 C.2    25  GLU25       0.3649
     57  OE1       16.3700   31.2770   38.2560 O.co2  25  GLU25      -0.2457
     58  OE2       16.5110   32.3310   40.1750 O.co2  25  GLU25      -0.2457
     59  N         19.9150   29.4120   37.1070 N.am   26  HIS26      -0.1976
     60  CA        20.8490   28.3670   37.5210 C.3    26  HIS26       0.1656
     61  C         21.1870   27.3900   36.3950 C.2    26  HIS26       0.2291
     62  O         21.8820   26.3960   36.6240 O.2    26  HIS26      -0.2864
     63  CB        20.2820   27.5870   38.7070 C.3    26  HIS26       0.0771
     64  CG        19.9380   28.4440   39.8840 C.ar   26  HIS26       0.0820
     65  ND1       20.8950   29.0750   40.6500 N.ar   26  HIS26      -0.2267
     66  CD2       18.7420   28.7760   40.4260 C.ar   26  HIS26       0.1154
     67  CE1       20.3030   29.7610   41.6120 C.ar   26  HIS26       0.1986
     68  NE2       18.9970   29.5960   41.4980 N.ar   26  HIS26      -0.2212
     69  N         19.4490   25.2150   34.9080 N.3    28  VAL28      -0.1245
     70  CA        18.8380   23.8870   35.0580 C.3    28  VAL28       0.1561
     71  C         17.3110   23.9930   35.1800 C.2    28  VAL28       0.2260
     72  O         16.7820   25.0490   35.5170 O.2    28  VAL28      -0.2867
     73  CB        19.4060   23.1220   36.2890 C.3    28  VAL28       0.0252
     74  CG1       20.8720   22.7760   36.0870 C.3    28  VAL28       0.0019
     75  CG2       19.2190   23.9230   37.5620 C.3    28  VAL28       0.0019
     76  N         12.9460   21.6260   39.3690 N.3    31  LEU31      -0.1245
     77  CA        13.1110   20.2240   39.7100 C.3    31  LEU31       0.1561
     78  C         12.4680   19.9130   41.0420 C.2    31  LEU31       0.2260
     79  O         12.6420   20.6710   42.0010 O.2    31  LEU31      -0.2867
     80  CB        14.5980   19.9110   39.8150 C.3    31  LEU31       0.0270
     81  CG        14.9550   18.4300   39.8010 C.3    31  LEU31       0.0019
     82  CD1       14.7790   17.8940   38.3880 C.3    31  LEU31       0.0001
     83  CD2       16.3850   18.2370   40.2890 C.3    31  LEU31       0.0001
     84  N         12.4710   18.3590   44.4210 N.3    33  SER33      -0.1202
     85  CA        13.5120   17.9150   45.3500 C.3    33  SER33       0.2020
     86  C         12.9370   17.1560   46.5460 C.2    33  SER33       0.2618
     87  O         13.6650   16.4420   47.2390 O.2    33  SER33      -0.2717
     88  CB        14.3540   19.1020   45.8240 C.3    33  SER33       0.2103
     89  OG        13.5500   20.0700   46.4790 O.3    33  SER33      -0.2182
     90  N         11.6370   17.3100   46.7890 N.am   34  GLU34      -0.1979
     91  CA        10.9770   16.5580   47.8510 C.3    34  GLU34       0.1602
     92  C          9.4860   16.3780   47.5720 C.2    34  GLU34       0.2287
     93  O          8.8180   17.2980   47.0900 O.2    34  GLU34      -0.2864
     94  CB        11.1860   17.2370   49.2110 C.3    34  GLU34       0.0415
     95  CG        10.4240   16.5660   50.3440 C.3    34  GLU34       0.1163
     96  CD        10.7990   17.1050   51.7120 C.2    34  GLU34       0.3649
     97  OE1       11.7680   17.8900   51.8040 O.co2  34  GLU34      -0.2457
     98  OE2       10.1250   16.7290   52.6960 O.co2  34  GLU34      -0.2457
     99  N          6.1680   15.6190   49.7050 N.3    36  HIS36      -0.1241
    100  CA         5.7810   15.6680   51.1130 C.3    36  HIS36       0.1621
    101  C          4.6570   14.6730   51.3890 C.2    36  HIS36       0.2264
    102  O          3.6120   14.7050   50.7340 O.2    36  HIS36      -0.2867
    103  CB         5.3910   17.0970   51.5000 C.3    36  HIS36       0.0745
    104  CG         6.5100   18.0790   51.3420 C.ar   36  HIS36       0.0817
    105  ND1        7.1500   18.6560   52.4170 N.ar   36  HIS36      -0.2268
    106  CD2        7.1260   18.5560   50.2360 C.ar   36  HIS36       0.1154
    107  CE1        8.1040   19.4590   51.9800 C.ar   36  HIS36       0.1986
    108  NE2        8.1110   19.4160   50.6600 N.ar   36  HIS36      -0.2212
    109  N          0.3810   14.7830   51.1030 N.3    39  GLN39      -0.1245
    110  CA        -0.0860   15.9670   50.3850 C.3    39  GLN39       0.1566
    111  C         -0.4430   15.6440   48.9180 C.2    39  GLN39       0.2260
    112  O         -0.1910   14.5310   48.4430 O.2    39  GLN39      -0.2867
    113  CB         0.9360   17.0970   50.5280 C.3    39  GLN39       0.0367
    114  CG         1.1870   17.4620   51.9920 C.3    39  GLN39       0.0905
    115  CD         1.9230   18.7820   52.1690 C.2    39  GLN39       0.2608
    116  OE1        1.6010   19.7840   51.5290 O.2    39  GLN39      -0.2717
    117  NE2        2.9160   18.7850   53.0460 N.am   39  GLN39      -0.0878
    118  N         13.5850   30.8370   39.0640 N.3    66  HIS66      -0.1241
    119  CA        13.0560   30.1110   40.2190 C.3    66  HIS66       0.1621
    120  C         11.8350   30.7800   40.8450 C.2    66  HIS66       0.2264
    121  O         10.7700   30.1610   40.9730 O.2    66  HIS66      -0.2867
    122  CB        14.1640   29.9540   41.2650 C.3    66  HIS66       0.0745
    123  CG        13.7730   29.1250   42.4470 C.ar   66  HIS66       0.0817
    124  ND1       13.9650   27.7600   42.4910 N.ar   66  HIS66      -0.2268
    125  CD2       13.2220   29.4670   43.6360 C.ar   66  HIS66       0.1154
    126  CE1       13.5410   27.2980   43.6560 C.ar   66  HIS66       0.1986
    127  NE2       13.0810   28.3120   44.3670 N.ar   66  HIS66      -0.2212
    128  N          7.9570   29.4770   41.0630 N.3    70  VAL70      -0.1245
    129  CA         7.3500   29.1860   42.3500 C.3    70  VAL70       0.1561
    130  C          6.0490   29.9610   42.4880 C.2    70  VAL70       0.2260
    131  O          5.0530   29.4260   42.9680 O.2    70  VAL70      -0.2867
    132  CB         8.2790   29.5340   43.5130 C.3    70  VAL70       0.0252
    133  CG1        7.5210   29.4660   44.8220 C.3    70  VAL70       0.0019
    134  CG2        9.4600   28.5830   43.5310 C.3    70  VAL70       0.0019
    135  N          3.3910   28.2760   40.3360 N.3    73  LEU73      -0.1231
    136  CA         2.9860   27.0470   41.0080 C.3    73  LEU73       0.1693
    137  C          2.0850   27.3180   42.2200 C.2    73  LEU73       0.2592
    138  O          1.0770   26.6330   42.4180 O.2    73  LEU73      -0.2718
    139  CB         4.2230   26.2380   41.4060 C.3    73  LEU73       0.0284
    140  CG         4.9390   25.6220   40.2120 C.3    73  LEU73       0.0019
    141  CD1        6.3470   25.1860   40.5860 C.3    73  LEU73       0.0001
    142  CD2        4.1420   24.4420   39.6450 C.3    73  LEU73       0.0001
    143  N          2.4260   28.3390   43.0040 N.am   74  SER74      -0.1952
    144  CA         1.6990   28.6540   44.2300 C.3    74  SER74       0.1924
    145  C          0.2880   29.2110   43.9940 C.2    74  SER74       0.2314
    146  O         -0.5380   29.2190   44.9030 O.2    74  SER74      -0.2863
    147  CB         2.5160   29.6250   45.0790 C.3    74  SER74       0.2116
    148  OG         2.4420   30.9430   44.5600 O.3    74  SER74      -0.2180
@<TRIPOS>BOND
     1    69    70    1
     2    70    71    1
     3    70    73    1
     4    71    72    2
     5    50    51    1
     6    74    73    1
     7    73    75    1
     8    61    62    2
     9    61    60    1
    10    51    52    1
    11    51    54    1
    12    52    53    2
    13    52    59   am
    14    59    60    1
    15    60    63    1
    16    54    55    1
    17    57    56   ar
    18    82    81    1
    19    63    64    1
    20    55    56    1
    21   118   119    1
    22    56    58   ar
    23    76    77    1
    24    48    47    1
    25    48    49    2
    26   142   140    1
    27    77    80    1
    28    77    78    1
    29    81    80    1
    30    81    83    1
    31    64    66   ar
    32    64    65   ar
    33    47    46    1
    34   140   141    1
    35   140   139    1
    36   119   120    1
    37   119   122    1
    38   135   136    1
    39    66    68   ar
    40    65    67   ar
    41   120   121    2
    42    42    41    2
    43   136   139    1
    44   136   137    1
    45    78    79    2
    46   128   129    1
    47   122   123    1
    48    46    41   am
    49    68    67   ar
    50    41    40    1
    51   137   138    2
    52   137   143   am
    53    38    36    1
    54   129   130    1
    55   129   132    1
    56   123   124   ar
    57   123   125   ar
    58   130   131    2
    59   124   126   ar
    60    44    43    1
    61    37    35    1
    62   143   144    1
    63    35    36    1
    64    35    32    1
    65    40    39    1
    66    40    43    1
    67    39    33   am
    68   132   134    1
    69   132   133    1
    70    11    10    1
    71    43    45    1
    72   125   127   ar
    73   126   127   ar
    74    12    10    1
    75   145   144    1
    76   145   146    2
    77    32    33    1
    78    32    31    1
    79   144   147    1
    80    33    34    2
    81    84    85    1
    82    23    21    1
    83   148   147    1
    84    10     9    1
    85    24    22    1
    86    22    21    1
    87    28    27    2
    88    21    18    1
    89    85    88    1
    90    85    86    1
    91    31    27   am
    92     9     6    1
    93    88    89    1
    94    27    26    1
    95    86    90   am
    96    86    87    2
    97     6     7    1
    98     6     5    1
    99    18    19    1
   100    18    17    1
   101    90    91    1
   102     8     7    2
   103    93    92    2
   104    19    25   am
   105    19    20    2
   106    25    26    1
   107     7    13   am
   108    26    29    1
   109    17    15   am
   110    92    91    1
   111     5     3   am
   112    91    94    1
   113    16    15    2
   114    15    14    1
   115    13    14    1
   116    29    30    1
   117   112   111    2
   118     4     3    2
   119     3     2    1
   120   111   110    1
   121    94    95    1
   122     2     1    1
   123    99   100    1
   124   106   108   ar
   125   106   104   ar
   126    95    96    1
   127   110   113    1
   128   110   109    1
   129   113   114    1
   130   108   107   ar
   131   102   101    2
   132   100   101    1
   133   100   103    1
   134   104   103    1
   135   104   105   ar
   136   116   115    2
   137    96    97   ar
   138    96    98   ar
   139   107   105   ar
   140   114   115    1
   141   115   117   am
