@<TRIPOS>MOLECULE
tmp/4nmrA00.pdb
 138 131 0 0 0
SMALL
GASTEIGER

@<TRIPOS>ATOM
      1  N          3.3280   13.1400   26.5260 N.3    15  GLY15      -0.1210
      2  CA         3.8300   14.1320   25.5870 C.3    15  GLY15       0.1956
      3  C          3.8500   13.5670   24.1770 C.2    15  GLY15       0.2612
      4  O          3.3560   12.4560   23.9350 O.2    15  GLY15      -0.2717
      5  N          4.4300   14.3220   23.2480 N.am   16  LEU16      -0.1965
      6  CA         4.4300   13.9430   21.8350 C.3    16  LEU16       0.1728
      7  C          5.4800   12.8820   21.5100 C.2    16  LEU16       0.2617
      8  O          5.2790   12.0720   20.6040 O.2    16  LEU16      -0.2715
      9  CB         4.6700   15.1660   20.9510 C.3    16  LEU16       0.0311
     10  CG         3.5770   16.2310   20.9790 C.3    16  LEU16       0.0022
     11  CD1        4.1310   17.5640   20.5370 C.3    16  LEU16       0.0001
     12  CD2        2.3570   15.8400   20.1410 C.3    16  LEU16       0.0001
     13  N          6.6160   12.9240   22.2010 N.am   17  GLY17      -0.1940
     14  CA         7.6850   11.9720   21.9340 C.3    17  GLY17       0.2014
     15  C          8.6120   12.4320   20.8180 C.2    17  GLY17       0.2639
     16  O          9.0390   11.6400   19.9750 O.2    17  GLY17      -0.2714
     17  N          8.9210   13.7260   20.8210 N.am   18  ILE18      -0.1963
     18  CA         9.7770   14.3350   19.8010 C.3    18  ILE18       0.1727
     19  C         10.7950   15.2230   20.4930 C.2    18  ILE18       0.2617
     20  O         10.4910   15.7930   21.5410 O.2    18  ILE18      -0.2715
     21  CB         8.9490   15.2420   18.8710 C.3    18  ILE18       0.0290
     22  CG1        7.7790   14.4600   18.2680 C.3    18  ILE18       0.0022
     23  CG2        9.8310   15.8480   17.7920 C.3    18  ILE18       0.0023
     24  CD1        6.7340   15.3220   17.5680 C.3    18  ILE18       0.0001
     25  N         12.0050   15.3130   19.9320 N.am   19  SER19      -0.1936
     26  CA        12.9310   16.4030   20.2590 C.3    19  SER19       0.2055
     27  C         13.0190   17.3600   19.0750 C.2    19  SER19       0.2643
     28  O         13.0470   16.9210   17.9140 O.2    19  SER19      -0.2714
     29  CB        14.3240   15.8620   20.5840 C.3    19  SER19       0.2130
     30  OG        14.2650   14.9380   21.6580 O.3    19  SER19      -0.2179
     31  N         13.0420   18.6660   19.3580 N.am   20  ILE20      -0.1963
     32  CA        13.1650   19.6620   18.2970 C.3    20  ILE20       0.1727
     33  C         14.3360   20.6230   18.5160 C.2    20  ILE20       0.2617
     34  O         14.7340   20.8940   19.6550 O.2    20  ILE20      -0.2715
     35  CB        11.8670   20.4990   18.1120 C.3    20  ILE20       0.0290
     36  CG1       11.4550   21.1850   19.4200 C.3    20  ILE20       0.0022
     37  CG2       10.7200   19.6250   17.5930 C.3    20  ILE20       0.0023
     38  CD1       10.4010   22.2760   19.2200 C.3    20  ILE20       0.0001
     39  N         14.8610   21.1300   17.4020 N.am   21  THR21      -0.1937
     40  CA        15.8420   22.2080   17.4040 C.3    21  THR21       0.2028
     41  C         15.3430   23.3290   16.4860 C.2    21  THR21       0.2642
     42  O         14.2980   23.2020   15.8470 O.2    21  THR21      -0.2714
     43  CB        17.2320   21.7370   16.9160 C.3    21  THR21       0.1808
     44  OG1       17.1560   21.3230   15.5410 O.3    21  THR21      -0.2208
     45  CG2       17.7410   20.6000   17.7550 C.3    21  THR21       0.0379
     46  N         16.0810   24.4310   16.4430 N.am   22  GLY22      -0.1954
     47  CA        15.7910   25.5110   15.5110 C.3    22  GLY22       0.1869
     48  C         14.7440   26.5270   15.9360 C.2    22  GLY22       0.2309
     49  O         14.3930   26.6360   17.1120 O.2    22  GLY22      -0.2863
     50  N         17.2990   31.2560   15.2410 N.3    26  HIS26      -0.1241
     51  CA        18.3920   30.4670   14.6650 C.3    26  HIS26       0.1621
     52  C         18.4070   30.5390   13.1340 C.2    26  HIS26       0.2264
     53  O         19.2890   29.9750   12.4850 O.2    26  HIS26      -0.2867
     54  CB        18.3050   29.0100   15.1380 C.3    26  HIS26       0.0745
     55  CG        18.4660   28.8560   16.6170 C.ar   26  HIS26       0.0817
     56  ND1       19.6680   29.0780   17.2580 N.ar   26  HIS26      -0.2268
     57  CD2       17.5800   28.5260   17.5860 C.ar   26  HIS26       0.1154
     58  CE1       19.5150   28.8830   18.5550 C.ar   26  HIS26       0.1986
     59  NE2       18.2570   28.5480   18.7810 N.ar   26  HIS26      -0.2212
     60  N         16.5210   29.1130   11.0590 N.3    28  VAL28      -0.1245
     61  CA        16.1430   27.8340   10.4730 C.3    28  VAL28       0.1561
     62  C         14.7700   27.4290   11.0220 C.2    28  VAL28       0.2260
     63  O         14.3260   27.9610   12.0440 O.2    28  VAL28      -0.2867
     64  CB        17.1960   26.7590   10.7820 C.3    28  VAL28       0.0252
     65  CG1       18.5180   27.1240   10.1150 C.3    28  VAL28       0.0019
     66  CG2       17.3890   26.6160   12.2830 C.3    28  VAL28       0.0019
     67  N         12.8600   22.0100   13.6570 N.3    31  LEU31      -0.1245
     68  CA        13.2560   20.7420   13.0440 C.3    31  LEU31       0.1561
     69  C         13.1470   19.5960   14.0380 C.2    31  LEU31       0.2260
     70  O         13.4610   19.7510   15.2200 O.2    31  LEU31      -0.2867
     71  CB        14.7100   20.8080   12.5620 C.3    31  LEU31       0.0270
     72  CG        15.0470   21.7180   11.3750 C.3    31  LEU31       0.0019
     73  CD1       16.5450   21.7250   11.1210 C.3    31  LEU31       0.0001
     74  CD2       14.3010   21.2670   10.1300 C.3    31  LEU31       0.0001
     75  N         14.6580   16.5840   15.6420 N.3    33  SER33      -0.1202
     76  CA        15.9970   16.0210   15.8030 C.3    33  SER33       0.2020
     77  C         15.9800   14.5960   16.3470 C.2    33  SER33       0.2618
     78  O         16.9520   13.8620   16.1770 O.2    33  SER33      -0.2717
     79  CB        16.8710   16.9270   16.6720 C.3    33  SER33       0.2103
     80  OG        16.4340   16.9540   18.0170 O.3    33  SER33      -0.2182
     81  N         14.8830   14.2090   16.9950 N.am   34  GLU34      -0.1979
     82  CA        14.7150   12.8540   17.5180 C.3    34  GLU34       0.1602
     83  C         13.2360   12.4760   17.4790 C.2    34  GLU34       0.2287
     84  O         12.3600   13.3200   17.7420 O.2    34  GLU34      -0.2864
     85  CB        15.2040   12.7380   18.9680 C.3    34  GLU34       0.0415
     86  CG        16.6950   12.9780   19.1780 C.3    34  GLU34       0.1163
     87  CD        17.1580   12.5490   20.5590 C.2    34  GLU34       0.3649
     88  OE1       18.1580   13.1070   21.0520 O.co2  34  GLU34      -0.2457
     89  OE2       16.5220   11.6480   21.1480 O.co2  34  GLU34      -0.2457
     90  N         11.1930    9.6480   19.4920 N.3    36  HIS36      -0.1241
     91  CA        11.4440    8.7560   20.6190 C.3    36  HIS36       0.1621
     92  C         10.7130    7.4200   20.4680 C.2    36  HIS36       0.2264
     93  O          9.4870    7.3800   20.3490 O.2    36  HIS36      -0.2867
     94  CB        11.0500    9.4360   21.9320 C.3    36  HIS36       0.0745
     95  CG        11.6280   10.8090   22.1080 C.ar   36  HIS36       0.0817
     96  ND1       11.1210   11.7140   23.0160 N.ar   36  HIS36      -0.2268
     97  CD2       12.6710   11.4270   21.5050 C.ar   36  HIS36       0.1154
     98  CE1       11.8210   12.8340   22.9580 C.ar   36  HIS36       0.1986
     99  NE2       12.7700   12.6850   22.0530 N.ar   36  HIS36      -0.2212
    100  N          8.8880   21.2970   10.9660 N.3    53  ILE53      -0.1245
    101  CA         7.4830   21.4320   11.3420 C.3    53  ILE53       0.1561
    102  C          7.0320   22.8290   10.9540 C.2    53  ILE53       0.2260
    103  O          7.4970   23.8210   11.5290 O.2    53  ILE53      -0.2867
    104  CB         7.2510   21.2070   12.8580 C.3    53  ILE53       0.0252
    105  CG1        7.7660   19.8280   13.2870 C.3    53  ILE53       0.0019
    106  CG2        5.7700   21.3700   13.2090 C.3    53  ILE53       0.0019
    107  CD1        7.6900   19.5840   14.8040 C.3    53  ILE53       0.0001
    108  N         12.0420   29.5670   19.1350 N.3    66  HIS66      -0.1241
    109  CA        12.1110   28.2300   19.7130 C.3    66  HIS66       0.1621
    110  C         11.1850   28.0340   20.9090 C.2    66  HIS66       0.2264
    111  O         10.3720   27.1150   20.9290 O.2    66  HIS66      -0.2867
    112  CB        13.5500   27.8880   20.1020 C.3    66  HIS66       0.0745
    113  CG        13.7290   26.4650   20.5300 C.ar   66  HIS66       0.0817
    114  ND1       14.0150   25.4490   19.6450 N.ar   66  HIS66      -0.2268
    115  CD2       13.6310   25.8860   21.7490 C.ar   66  HIS66       0.1154
    116  CE1       14.1000   24.3060   20.3030 C.ar   66  HIS66       0.1986
    117  NE2       13.8640   24.5430   21.5810 N.ar   66  HIS66      -0.2212
    118  N          7.8450   25.6520   21.3680 N.3    70  VAL70      -0.1245
    119  CA         7.7100   24.6190   22.3920 C.3    70  VAL70       0.1561
    120  C          6.3730   24.7850   23.1240 C.2    70  VAL70       0.2260
    121  O          5.6610   23.8100   23.3620 O.2    70  VAL70      -0.2867
    122  CB         8.8940   24.6330   23.3860 C.3    70  VAL70       0.0252
    123  CG1        8.6300   23.7170   24.5760 C.3    70  VAL70       0.0019
    124  CG2       10.1760   24.2460   22.6750 C.3    70  VAL70       0.0019
    125  N          3.4580   23.8220   20.6590 N.3    73  LEU73      -0.1231
    126  CA         3.4270   22.3750   20.4300 C.3    73  LEU73       0.1693
    127  C          2.9810   21.5910   21.6620 C.2    73  LEU73       0.2592
    128  O          2.1710   20.6620   21.5520 O.2    73  LEU73      -0.2718
    129  CB         4.7990   21.8750   19.9580 C.3    73  LEU73       0.0284
    130  CG         5.1380   22.2910   18.5300 C.3    73  LEU73       0.0019
    131  CD1        6.6440   22.3200   18.3480 C.3    73  LEU73       0.0001
    132  CD2        4.4590   21.3280   17.5630 C.3    73  LEU73       0.0001
    133  N          3.4780   21.9880   22.8310 N.am   74  SER74      -0.1952
    134  CA         3.1750   21.2880   24.0750 C.3    74  SER74       0.1924
    135  C          1.7410   21.5260   24.5640 C.2    74  SER74       0.2314
    136  O          1.2160   20.7610   25.3780 O.2    74  SER74      -0.2863
    137  CB         4.1870   21.6590   25.1630 C.3    74  SER74       0.2116
    138  OG         3.9980   22.9900   25.6150 O.3    74  SER74      -0.2180
@<TRIPOS>BOND
     1    65    64    1
     2    74    72    1
     3    61    64    1
     4    61    62    1
     5    61    60    1
     6    64    66    1
     7   102   101    1
     8   102   103    2
     9   100   101    1
    10    62    63    2
    11    73    72    1
    12   101   104    1
    13    72    71    1
    14    53    52    2
    15    71    68    1
    16   104   106    1
    17   104   105    1
    18    68    67    1
    19    68    69    1
    20    52    51    1
    21   105   107    1
    22    69    70    2
    23    51    54    1
    24    51    50    1
    25    54    55    1
    26    47    48    1
    27    47    46    1
    28    44    43    1
    29    75    76    1
    30    76    77    1
    31    76    79    1
    32    42    41    2
    33    48    49    2
    34    78    77    2
    35    77    81   am
    36    46    41   am
    37    41    40    1
    38    55    56   ar
    39    55    57   ar
    40    79    80    1
    41    43    40    1
    42    43    45    1
    43    81    82    1
    44    56    58   ar
    45    39    40    1
    46    39    33   am
    47    83    82    1
    48    83    84    2
    49    82    85    1
    50   132   130    1
    51    24    22    1
    52    57    59   ar
    53    37    35    1
    54    23    21    1
    55    28    27    2
    56    35    32    1
    57    35    36    1
    58    22    21    1
    59    32    33    1
    60    32    31    1
    61   131   130    1
    62    33    34    2
    63   130   129    1
    64    58    59   ar
    65    21    18    1
    66    85    86    1
    67    27    31   am
    68    27    26    1
    69   108   109    1
    70    86    87    1
    71    38    36    1
    72    90    91    1
    73   114   116   ar
    74   114   113   ar
    75   109   112    1
    76   109   110    1
    77    18    19    1
    78    18    17    1
    79    25    26    1
    80    25    19   am
    81   129   126    1
    82    16    15    2
    83   112   113    1
    84    12    10    1
    85    26    29    1
    86   116   117   ar
    87    93    92    2
    88   126   125    1
    89   126   127    1
    90    92    91    1
    91    19    20    2
    92   113   115   ar
    93    11    10    1
    94    87    88   ar
    95    87    89   ar
    96    29    30    1
    97     8     7    2
    98    91    94    1
    99    15    17   am
   100    15    14    1
   101   110   111    2
   102     9    10    1
   103     9     6    1
   104   118   119    1
   105    97    99   ar
   106    97    95   ar
   107     7     6    1
   108     7    13   am
   109   128   127    2
   110   117   115   ar
   111   127   133   am
   112     6     5    1
   113    94    95    1
   114    14    13    1
   115    99    98   ar
   116    95    96   ar
   117   119   120    1
   118   119   122    1
   119   124   122    1
   120   133   134    1
   121    98    96   ar
   122   120   121    2
   123     5     3   am
   124   122   123    1
   125     4     3    2
   126   134   135    1
   127   134   137    1
   128     3     2    1
   129   135   136    2
   130   137   138    1
   131     2     1    1
