@<TRIPOS>MOLECULE
tmp/4nmsA00.pdb
 147 140 0 0 0
SMALL
GASTEIGER

@<TRIPOS>ATOM
      1  N          2.8240   13.3570   25.1930 N.3    15  GLY15      -0.1210
      2  CA         3.0760   14.4810   24.3150 C.3    15  GLY15       0.1956
      3  C          2.8290   14.0310   22.8820 C.2    15  GLY15       0.2612
      4  O          2.2870   12.9410   22.6430 O.2    15  GLY15      -0.2717
      5  N          3.2170   14.8720   21.9310 N.am   16  LEU16      -0.1965
      6  CA         3.0520   14.5660   20.5150 C.3    16  LEU16       0.1728
      7  C          4.0710   13.5260   20.0400 C.2    16  LEU16       0.2617
      8  O          3.7950   12.7650   19.1200 O.2    16  LEU16      -0.2715
      9  CB         3.1790   15.8520   19.6780 C.3    16  LEU16       0.0311
     10  CG         2.0320   16.8570   19.8330 C.3    16  LEU16       0.0022
     11  CD1        2.4280   18.2220   19.2590 C.3    16  LEU16       0.0001
     12  CD2        0.7810   16.3190   19.1410 C.3    16  LEU16       0.0001
     13  N          5.2480   13.5020   20.6550 N.am   17  GLY17      -0.1940
     14  CA         6.2890   12.5840   20.2170 C.3    17  GLY17       0.2014
     15  C          7.0940   13.1560   19.0580 C.2    17  GLY17       0.2639
     16  O          7.5380   12.4290   18.1620 O.2    17  GLY17      -0.2714
     17  N          7.2780   14.4750   19.0860 N.am   18  ILE18      -0.1963
     18  CA         7.9690   15.2110   18.0290 C.3    18  ILE18       0.1727
     19  C          9.0310   16.1030   18.6390 C.2    18  ILE18       0.2617
     20  O          8.8030   16.6590   19.7080 O.2    18  ILE18      -0.2715
     21  CB         6.9730   16.1540   17.3110 C.3    18  ILE18       0.0290
     22  CG1        5.8750   15.3410   16.6400 C.3    18  ILE18       0.0022
     23  CG2        7.6720   16.9760   16.2650 C.3    18  ILE18       0.0023
     24  CD1        6.4330   14.3220   15.7300 C.3    18  ILE18       0.0001
     25  N         10.1860   16.2400   17.9840 N.am   19  SER19      -0.1936
     26  CA        11.0580   17.3870   18.2640 C.3    19  SER19       0.2055
     27  C         10.9300   18.3530   17.1040 C.2    19  SER19       0.2643
     28  O         10.9630   17.9370   15.9410 O.2    19  SER19      -0.2714
     29  CB        12.5210   16.9740   18.4530 C.3    19  SER19       0.2130
     30  OG        12.6490   16.0560   19.5230 O.3    19  SER19      -0.2179
     31  N         10.7490   19.6350   17.4200 N.am   20  ILE20      -0.1963
     32  CA        10.6820   20.6630   16.3920 C.3    20  ILE20       0.1727
     33  C         11.8340   21.6460   16.5280 C.2    20  ILE20       0.2617
     34  O         12.3260   21.9180   17.6310 O.2    20  ILE20      -0.2715
     35  CB         9.3530   21.4410   16.4320 C.3    20  ILE20       0.0290
     36  CG1        9.1290   22.0300   17.8270 C.3    20  ILE20       0.0022
     37  CG2        8.1900   20.5360   16.0160 C.3    20  ILE20       0.0023
     38  CD1        8.0490   23.1410   17.8690 C.3    20  ILE20       0.0001
     39  N         12.2720   22.1620   15.3890 N.am   21  THR21      -0.1937
     40  CA        13.2860   23.1980   15.3680 C.3    21  THR21       0.2028
     41  C         12.8220   24.2940   14.4130 C.2    21  THR21       0.2642
     42  O         11.7680   24.1720   13.7950 O.2    21  THR21      -0.2714
     43  CB        14.6580   22.6160   14.9330 C.3    21  THR21       0.1808
     44  OG1       15.6830   23.6000   15.1180 O.3    21  THR21      -0.2208
     45  CG2       14.6310   22.1610   13.4710 C.3    21  THR21       0.0379
     46  N         13.5790   25.3800   14.3100 N.am   22  GLY22      -0.1954
     47  CA        13.2190   26.4490   13.3930 C.3    22  GLY22       0.1869
     48  C         12.2480   27.4500   13.9940 C.2    22  GLY22       0.2309
     49  O         12.1030   27.5270   15.2120 O.2    22  GLY22      -0.2863
     50  N         11.5520   33.5800   13.7110 N.3    25  GLU25      -0.1231
     51  CA        12.6650   34.4320   14.1310 C.3    25  GLU25       0.1699
     52  C         13.9840   33.9640   13.5220 C.2    25  GLU25       0.2592
     53  O         14.9810   34.6930   13.5300 O.2    25  GLU25      -0.2718
     54  CB        12.7630   34.5270   15.6640 C.3    25  GLU25       0.0402
     55  CG        13.3010   33.2920   16.3750 C.3    25  GLU25       0.1161
     56  CD        12.2050   32.3050   16.7870 C.2    25  GLU25       0.3649
     57  OE1       12.2710   31.7700   17.9180 O.co2  25  GLU25      -0.2457
     58  OE2       11.2980   32.0380   15.9760 O.co2  25  GLU25      -0.2457
     59  N         13.9770   32.7500   12.9800 N.am   26  HIS26      -0.1976
     60  CA        15.1460   32.1850   12.3220 C.3    26  HIS26       0.1656
     61  C         15.0040   32.1310   10.8090 C.2    26  HIS26       0.2291
     62  O         15.9080   31.6660   10.1120 O.2    26  HIS26      -0.2864
     63  CB        15.4350   30.7940   12.8800 C.3    26  HIS26       0.0771
     64  CG        15.5760   30.7800   14.3650 C.ar   26  HIS26       0.0820
     65  ND1       16.6120   31.4130   15.0170 N.ar   26  HIS26      -0.2267
     66  CD2       14.7850   30.2560   15.3310 C.ar   26  HIS26       0.1154
     67  CE1       16.4680   31.2560   16.3200 C.ar   26  HIS26       0.1986
     68  NE2       15.3680   30.5570   16.5370 N.ar   26  HIS26      -0.2212
     69  N         12.9090   30.3280    9.0880 N.3    28  VAL28      -0.1245
     70  CA        12.6090   28.9940    8.5850 C.3    28  VAL28       0.1561
     71  C         11.3070   28.4850    9.2020 C.2    28  VAL28       0.2260
     72  O         10.8770   28.9800   10.2400 O.2    28  VAL28      -0.2867
     73  CB        13.7660   28.0040    8.8500 C.3    28  VAL28       0.0252
     74  CG1       15.0240   28.4340    8.0890 C.3    28  VAL28       0.0019
     75  CG2       14.0540   27.8850   10.3370 C.3    28  VAL28       0.0019
     76  N         10.0630   23.0070   11.7800 N.3    31  LEU31      -0.1245
     77  CA        10.4860   21.7670   11.1430 C.3    31  LEU31       0.1561
     78  C         10.5410   20.6200   12.1380 C.2    31  LEU31       0.2260
     79  O         11.0010   20.7890   13.2690 O.2    31  LEU31      -0.2867
     80  CB        11.8820   21.9490   10.5540 C.3    31  LEU31       0.0270
     81  CG        11.9700   22.9260    9.3890 C.3    31  LEU31       0.0019
     82  CD1       13.4060   23.3870    9.1780 C.3    31  LEU31       0.0001
     83  CD2       11.4170   22.2880    8.1230 C.3    31  LEU31       0.0001
     84  N         12.3600   17.7160   13.5470 N.3    33  SER33      -0.1202
     85  CA        13.7360   17.2190   13.5510 C.3    33  SER33       0.2020
     86  C         13.8570   15.8090   14.1120 C.2    33  SER33       0.2618
     87  O         14.8610   15.1320   13.8710 O.2    33  SER33      -0.2717
     88  CB        14.6560   18.1710   14.3270 C.3    33  SER33       0.2103
     89  OG        14.2830   18.2310   15.6940 O.3    33  SER33      -0.2182
     90  N         12.8520   15.3700   14.8770 N.am   34  GLU34      -0.1979
     91  CA        12.8180   14.0050   15.4100 C.3    34  GLU34       0.1602
     92  C         11.3820   13.5060   15.4760 C.2    34  GLU34       0.2287
     93  O         10.4600   14.2770   15.7550 O.2    34  GLU34      -0.2864
     94  CB        13.4140   13.9230   16.8260 C.3    34  GLU34       0.0415
     95  CG        14.8150   14.4550   16.9630 C.3    34  GLU34       0.1163
     96  CD        15.3980   14.1810   18.3370 C.2    34  GLU34       0.3649
     97  OE1       14.8500   14.7000   19.3400 O.co2  34  GLU34      -0.2457
     98  OE2       16.3990   13.4360   18.4130 O.co2  34  GLU34      -0.2457
     99  N          9.8010   10.5820   17.7470 N.3    36  HIS36      -0.1241
    100  CA        10.2210    9.7090   18.8450 C.3    36  HIS36       0.1621
    101  C          9.5310    8.3570   18.7620 C.2    36  HIS36       0.2264
    102  O          8.3120    8.2770   18.6310 O.2    36  HIS36      -0.2867
    103  CB        10.0260   10.4180   20.1780 C.3    36  HIS36       0.0745
    104  CG        10.7970   11.6970   20.2570 C.ar   36  HIS36       0.0817
    105  ND1       10.1950   12.9340   20.1990 N.ar   36  HIS36      -0.2268
    106  CD2       12.1300   11.9280   20.3180 C.ar   36  HIS36       0.1154
    107  CE1       11.1200   13.8740   20.2530 C.ar   36  HIS36       0.1986
    108  NE2       12.3040   13.2910   20.3250 N.ar   36  HIS36      -0.2212
    109  N          5.7910   21.8750    9.5560 N.3    53  ILE53      -0.1245
    110  CA         4.4140   21.9160   10.0240 C.3    53  ILE53       0.1561
    111  C          3.7920   23.2520    9.6220 C.2    53  ILE53       0.2260
    112  O          4.1640   24.3060   10.1400 O.2    53  ILE53      -0.2867
    113  CB         4.3090   21.7310   11.5540 C.3    53  ILE53       0.0252
    114  CG1        5.0310   20.4530   11.9870 C.3    53  ILE53       0.0019
    115  CG2        2.8270   21.6850   11.9560 C.3    53  ILE53       0.0019
    116  CD1        4.9590   20.1830   13.4960 C.3    53  ILE53       0.0001
    117  N          9.3660   30.1310   17.2770 N.3    66  HIS66      -0.1241
    118  CA         9.5570   28.8110   17.8660 C.3    66  HIS66       0.1621
    119  C          8.6820   28.5480   19.0930 C.2    66  HIS66       0.2264
    120  O          7.9690   27.5490   19.1490 O.2    66  HIS66      -0.2867
    121  CB        11.0300   28.5840   18.2180 C.3    66  HIS66       0.0745
    122  CG        11.3180   27.2030   18.7150 C.ar   66  HIS66       0.0817
    123  ND1       11.6140   26.1520   17.8710 N.ar   66  HIS66      -0.2268
    124  CD2       11.3450   26.6970   19.9720 C.ar   66  HIS66       0.1154
    125  CE1       11.8130   25.0590   18.5890 C.ar   66  HIS66       0.1986
    126  NE2       11.6510   25.3620   19.8640 N.ar   66  HIS66      -0.2212
    127  N          5.4250   26.0850   20.0370 N.3    70  VAL70      -0.1245
    128  CA         5.4030   25.1330   21.1450 C.3    70  VAL70       0.1561
    129  C          4.1000   25.2610   21.9280 C.2    70  VAL70       0.2260
    130  O          3.4220   24.2710   22.1810 O.2    70  VAL70      -0.2867
    131  CB         6.6060   25.3280   22.0850 C.3    70  VAL70       0.0252
    132  CG1        6.4080   24.5490   23.3690 C.3    70  VAL70       0.0019
    133  CG2        7.9130   24.9420   21.3760 C.3    70  VAL70       0.0019
    134  N          1.1400   24.0640   19.6590 N.3    73  LEU73      -0.1231
    135  CA         1.1590   22.6180   19.4580 C.3    73  LEU73       0.1693
    136  C          0.8250   21.8160   20.7300 C.2    73  LEU73       0.2592
    137  O          0.0280   20.8630   20.6990 O.2    73  LEU73      -0.2718
    138  CB         2.5140   22.2000   18.8700 C.3    73  LEU73       0.0284
    139  CG         2.6480   22.5470   17.3800 C.3    73  LEU73       0.0019
    140  CD1        4.1070   22.5990   16.9580 C.3    73  LEU73       0.0001
    141  CD2        1.8790   21.5430   16.5220 C.3    73  LEU73       0.0001
    142  N          1.4260   22.2030   21.8530 N.am   74  SER74      -0.1952
    143  CA         1.2020   21.4800   23.1080 C.3    74  SER74       0.1924
    144  C         -0.2160   21.6420   23.6670 C.2    74  SER74       0.2314
    145  O         -0.6450   20.8420   24.4960 O.2    74  SER74      -0.2863
    146  CB         2.2530   21.8720   24.1550 C.3    74  SER74       0.2116
    147  OG         3.5450   21.4930   23.7170 O.3    74  SER74      -0.2180
@<TRIPOS>BOND
     1    74    73    1
     2    83    81    1
     3    70    73    1
     4    70    69    1
     5    70    71    1
     6    73    75    1
     7    82    81    1
     8    71    72    2
     9    81    80    1
    10   109   110    1
    11   111   110    1
    12   111   112    2
    13   110   113    1
    14    62    61    2
    15    80    77    1
    16    61    60    1
    17    77    76    1
    18    77    78    1
    19   113   115    1
    20   113   114    1
    21   114   116    1
    22    78    79    2
    23    60    63    1
    24    60    59    1
    25    63    64    1
    26    59    52   am
    27    47    48    1
    28    47    46    1
    29    45    43    1
    30    52    53    2
    31    52    51    1
    32    84    85    1
    33    85    86    1
    34    85    88    1
    35    50    51    1
    36    42    41    2
    37    87    86    2
    38    48    49    2
    39    86    90   am
    40    51    54    1
    41    46    41   am
    42    88    89    1
    43    64    65   ar
    44    64    66   ar
    45    41    40    1
    46    90    91    1
    47    43    44    1
    48    43    40    1
    49    65    67   ar
    50    66    68   ar
    51    40    39    1
    52    39    33   am
    53    91    92    1
    54    91    94    1
    55    92    93    2
    56    54    55    1
    57    24    22    1
    58    28    27    2
    59    58    56   ar
    60    37    35    1
    61    23    21    1
    62    67    68   ar
    63    55    56    1
    64    32    35    1
    65    32    33    1
    66    32    31    1
    67    35    36    1
    68   141   139    1
    69    33    34    2
    70    22    21    1
    71    56    57   ar
    72    94    95    1
    73   140   139    1
    74    95    96    1
    75    27    31   am
    76    27    26    1
    77   117   118    1
    78    21    18    1
    79   139   138    1
    80    99   100    1
    81    36    38    1
    82   118   121    1
    83   118   119    1
    84   123   125   ar
    85   123   122   ar
    86    25    26    1
    87    25    19   am
    88    18    19    1
    89    18    17    1
    90    16    15    2
    91   121   122    1
    92    26    29    1
    93    96    98   ar
    94    96    97   ar
    95    29    30    1
    96   125   126   ar
    97   102   101    2
    98    19    20    2
    99   122   124   ar
   100   101   100    1
   101   100   103    1
   102   138   135    1
   103    15    17   am
   104    15    14    1
   105   119   120    2
   106     8     7    2
   107    12    10    1
   108    11    10    1
   109   135   134    1
   110   135   136    1
   111     9    10    1
   112     9     6    1
   113   126   124   ar
   114   127   128    1
   115     7     6    1
   116     7    13   am
   117   103   104    1
   118   105   107   ar
   119   105   104   ar
   120    14    13    1
   121   107   108   ar
   122   104   106   ar
   123   106   108   ar
   124     6     5    1
   125   137   136    2
   126   136   142   am
   127   128   129    1
   128   128   131    1
   129   133   131    1
   130   142   143    1
   131   129   130    2
   132     5     3   am
   133   131   132    1
   134     4     3    2
   135     3     2    1
   136   143   144    1
   137   143   146    1
   138   144   145    2
   139   147   146    1
   140     2     1    1
