@<TRIPOS>MOLECULE
tmp/4nmsB00.pdb
 147 140 0 0 0
SMALL
GASTEIGER

@<TRIPOS>ATOM
      1  N          2.6950   22.8880   49.9960 N.3    15  GLY15      -0.1210
      2  CA         3.6130   23.0980   48.8930 C.3    15  GLY15       0.1956
      3  C          3.4910   21.9070   47.9510 C.2    15  GLY15       0.2612
      4  O          2.7710   20.9510   48.2510 O.2    15  GLY15      -0.2717
      5  N          4.1750   21.9610   46.8130 N.am   16  LEU16      -0.1965
      6  CA         4.1630   20.8490   45.8590 C.3    16  LEU16       0.1728
      7  C          5.0020   19.6830   46.3630 C.2    16  LEU16       0.2617
      8  O          4.7340   18.5260   46.0450 O.2    16  LEU16      -0.2715
      9  CB         4.6850   21.3050   44.4920 C.3    16  LEU16       0.0311
     10  CG         3.8750   22.3750   43.7470 C.3    16  LEU16       0.0022
     11  CD1        4.7260   23.0680   42.6760 C.3    16  LEU16       0.0001
     12  CD2        2.6140   21.7740   43.1310 C.3    16  LEU16       0.0001
     13  N          6.0330   19.9980   47.1410 N.am   17  GLY17      -0.1940
     14  CA         6.9060   18.9820   47.6940 C.3    17  GLY17       0.2014
     15  C          7.9930   18.5940   46.7130 C.2    17  GLY17       0.2639
     16  O          8.2770   17.4190   46.5150 O.2    17  GLY17      -0.2714
     17  N          8.6120   19.5930   46.0930 N.am   18  ILE18      -0.1963
     18  CA         9.6380   19.3330   45.0940 C.3    18  ILE18       0.1727
     19  C         10.7920   20.2980   45.3340 C.2    18  ILE18       0.2617
     20  O         10.5680   21.4590   45.6610 O.2    18  ILE18      -0.2715
     21  CB         9.1140   19.5740   43.6610 C.3    18  ILE18       0.0290
     22  CG1        7.8140   18.8040   43.4030 C.3    18  ILE18       0.0022
     23  CG2       10.1530   19.1720   42.6300 C.3    18  ILE18       0.0023
     24  CD1        7.1010   19.2550   42.1130 C.3    18  ILE18       0.0001
     25  N         12.0200   19.8090   45.2080 N.am   19  SER19      -0.1936
     26  CA        13.1580   20.7060   45.1030 C.3    19  SER19       0.2055
     27  C         13.5660   20.7690   43.6420 C.2    19  SER19       0.2643
     28  O         13.5650   19.7530   42.9480 O.2    19  SER19      -0.2714
     29  CB        14.3350   20.2350   45.9550 C.3    19  SER19       0.2130
     30  OG        14.0020   20.2420   47.3340 O.3    19  SER19      -0.2179
     31  N         13.9000   21.9650   43.1650 N.am   20  ILE20      -0.1963
     32  CA        14.3210   22.0970   41.7750 C.3    20  ILE20       0.1727
     33  C         15.6310   22.8500   41.6240 C.2    20  ILE20       0.2617
     34  O         16.0290   23.6230   42.4930 O.2    20  ILE20      -0.2715
     35  CB        13.2430   22.7240   40.8530 C.3    20  ILE20       0.0290
     36  CG1       12.9910   24.1770   41.2170 C.3    20  ILE20       0.0022
     37  CG2       11.9450   21.9000   40.8350 C.3    20  ILE20       0.0023
     38  CD1       12.8710   25.0480   39.9930 C.3    20  ILE20       0.0001
     39  N         16.3050   22.5890   40.5130 N.am   21  THR21      -0.1937
     40  CA        17.5630   23.2500   40.2070 C.3    21  THR21       0.2028
     41  C         17.6010   23.4570   38.6970 C.2    21  THR21       0.2642
     42  O         16.6080   23.2040   38.0160 O.2    21  THR21      -0.2714
     43  CB        18.7690   22.4000   40.6900 C.3    21  THR21       0.1808
     44  OG1       19.9780   23.1590   40.5550 O.3    21  THR21      -0.2208
     45  CG2       18.8830   21.1070   39.8810 C.3    21  THR21       0.0379
     46  N         18.7270   23.9140   38.1580 N.am   22  GLY22      -0.1954
     47  CA        18.8130   24.1400   36.7210 C.3    22  GLY22       0.1869
     48  C         18.0960   25.4030   36.2740 C.2    22  GLY22       0.2309
     49  O         17.7900   26.2680   37.0960 O.2    22  GLY22      -0.2863
     50  N         19.7590   29.9860   32.7540 N.3    25  GLU25      -0.1231
     51  CA        21.0450   30.6470   32.9950 C.3    25  GLU25       0.1699
     52  C         22.1790   29.6410   33.1740 C.2    25  GLU25       0.2592
     53  O         23.3570   29.9990   33.1180 O.2    25  GLU25      -0.2718
     54  CB        20.9830   31.5910   34.2000 C.3    25  GLU25       0.0402
     55  CG        20.8170   30.8980   35.5450 C.3    25  GLU25       0.1161
     56  CD        19.3750   30.8660   35.9990 C.2    25  GLU25       0.3649
     57  OE1       19.1020   31.2940   37.1320 O.co2  25  GLU25      -0.2457
     58  OE2       18.5040   30.4200   35.2230 O.co2  25  GLU25      -0.2457
     59  N         21.8150   28.3820   33.3730 N.am   26  HIS26      -0.1976
     60  CA        22.7950   27.3090   33.5100 C.3    26  HIS26       0.1656
     61  C         22.8390   26.4040   32.2800 C.2    26  HIS26       0.2291
     62  O         23.5650   25.4070   32.2580 O.2    26  HIS26      -0.2864
     63  CB        22.5290   26.5010   34.7790 C.3    26  HIS26       0.0771
     64  CG        22.4830   27.3420   36.0170 C.ar   26  HIS26       0.0820
     65  ND1       23.6070   27.9320   36.5550 N.ar   26  HIS26      -0.2267
     66  CD2       21.4480   27.7130   36.8070 C.ar   26  HIS26       0.1154
     67  CE1       23.2670   28.6250   37.6270 C.ar   26  HIS26       0.1986
     68  NE2       21.9630   28.5040   37.8040 N.ar   26  HIS26      -0.2212
     69  N         20.5360   24.5120   31.1000 N.3    28  VAL28      -0.1245
     70  CA        19.8270   23.2480   31.3140 C.3    28  VAL28       0.1561
     71  C         18.3600   23.5280   31.6210 C.2    28  VAL28       0.2260
     72  O         18.0170   24.6310   32.0330 O.2    28  VAL28      -0.2867
     73  CB        20.4590   22.4430   32.4660 C.3    28  VAL28       0.0252
     74  CG1       21.8570   21.9730   32.0790 C.3    28  VAL28       0.0019
     75  CG2       20.5220   23.2790   33.7370 C.3    28  VAL28       0.0019
     76  N         15.0750   21.2310   36.5320 N.3    31  LEU31      -0.1245
     77  CA        15.2480   19.8320   36.9150 C.3    31  LEU31       0.1561
     78  C         14.7690   19.5390   38.3370 C.2    31  LEU31       0.2260
     79  O         15.0030   20.3260   39.2610 O.2    31  LEU31      -0.2867
     80  CB        16.7290   19.4590   36.8130 C.3    31  LEU31       0.0270
     81  CG        17.2870   19.4570   35.3870 C.3    31  LEU31       0.0019
     82  CD1       18.8130   19.4750   35.4150 C.3    31  LEU31       0.0001
     83  CD2       16.7810   18.2590   34.6170 C.3    31  LEU31       0.0001
     84  N         15.3070   17.9110   41.6940 N.3    33  SER33      -0.1202
     85  CA        16.4700   17.3990   42.4130 C.3    33  SER33       0.2020
     86  C         16.0610   16.6250   43.6630 C.2    33  SER33       0.2618
     87  O         16.8440   15.8380   44.1960 O.2    33  SER33      -0.2717
     88  CB        17.4380   18.5360   42.7700 C.3    33  SER33       0.2103
     89  OG        16.8330   19.4730   43.6420 O.3    33  SER33      -0.2182
     90  N         14.8350   16.8380   44.1310 N.am   34  GLU34      -0.1979
     91  CA        14.3130   16.0300   45.2310 C.3    34  GLU34       0.1602
     92  C         12.7940   15.9040   45.1990 C.2    34  GLU34       0.2287
     93  O         12.0950   16.8370   44.8160 O.2    34  GLU34      -0.2864
     94  CB        14.7640   16.5710   46.5970 C.3    34  GLU34       0.0415
     95  CG        14.3830   15.6430   47.7410 C.3    34  GLU34       0.1163
     96  CD        15.0150   16.0260   49.0660 C.2    34  GLU34       0.3649
     97  OE1       15.8500   16.9540   49.0870 O.co2  34  GLU34      -0.2457
     98  OE2       14.6740   15.3910   50.0890 O.co2  34  GLU34      -0.2457
     99  N          9.9420   15.2140   47.9380 N.3    36  HIS36      -0.1241
    100  CA         9.7840   15.1370   49.3960 C.3    36  HIS36       0.1621
    101  C          8.7230   14.1200   49.8150 C.2    36  HIS36       0.2264
    102  O          7.5920   14.1660   49.3470 O.2    36  HIS36      -0.2867
    103  CB         9.4570   16.5240   49.9600 C.3    36  HIS36       0.0745
    104  CG        10.3380   17.6110   49.4240 C.ar   36  HIS36       0.0817
    105  ND1        9.9430   18.9310   49.3650 N.ar   36  HIS36      -0.2268
    106  CD2       11.5910   17.5710   48.9110 C.ar   36  HIS36       0.1154
    107  CE1       10.9180   19.6580   48.8480 C.ar   36  HIS36       0.1986
    108  NE2       11.9290   18.8560   48.5620 N.ar   36  HIS36      -0.2212
    109  N         11.2230   19.5300   34.0530 N.3    53  ILE53      -0.1245
    110  CA         9.8910   20.1180   33.9250 C.3    53  ILE53       0.1561
    111  C          9.8710   21.0350   32.7050 C.2    53  ILE53       0.2260
    112  O         10.4300   22.1380   32.7280 O.2    53  ILE53      -0.2867
    113  CB         9.4800   20.9000   35.1840 C.3    53  ILE53       0.0252
    114  CG1        9.5340   19.9750   36.4060 C.3    53  ILE53       0.0019
    115  CG2        8.0580   21.4740   35.0080 C.3    53  ILE53       0.0019
    116  CD1        9.3330   20.6820   37.7520 C.3    53  ILE53       0.0001
    117  N         15.8270   30.0890   36.2950 N.3    66  HIS66      -0.1241
    118  CA        15.4470   29.4280   37.5450 C.3    66  HIS66       0.1621
    119  C         14.3860   30.1930   38.3500 C.2    66  HIS66       0.2264
    120  O         13.3300   29.6450   38.6760 O.2    66  HIS66      -0.2867
    121  CB        16.6990   29.2320   38.4090 C.3    66  HIS66       0.0745
    122  CG        16.4530   28.4890   39.6860 C.ar   66  HIS66       0.0817
    123  ND1       16.7010   27.1390   39.8180 N.ar   66  HIS66      -0.2268
    124  CD2       15.9890   28.9060   40.8890 C.ar   66  HIS66       0.1154
    125  CE1       16.3990   26.7560   41.0480 C.ar   66  HIS66       0.1986
    126  NE2       15.9640   27.8090   41.7180 N.ar   66  HIS66      -0.2212
    127  N         10.4820   29.0650   39.0940 N.3    70  VAL70      -0.1245
    128  CA        10.0670   28.7780   40.4660 C.3    70  VAL70       0.1561
    129  C          8.8320   29.5940   40.8480 C.2    70  VAL70       0.2260
    130  O          7.8860   29.0610   41.4380 O.2    70  VAL70      -0.2867
    131  CB        11.2230   29.0290   41.4610 C.3    70  VAL70       0.0252
    132  CG1       10.7230   29.0060   42.9030 C.3    70  VAL70       0.0019
    133  CG2       12.3040   27.9830   41.2560 C.3    70  VAL70       0.0019
    134  N          5.7850   28.1620   39.0590 N.3    73  LEU73      -0.1231
    135  CA         5.4040   26.9020   39.6910 C.3    73  LEU73       0.1693
    136  C          4.6600   27.1410   40.9930 C.2    73  LEU73       0.2592
    137  O          3.6670   26.4770   41.2810 O.2    73  LEU73      -0.2718
    138  CB         6.6390   26.0240   39.9270 C.3    73  LEU73       0.0284
    139  CG         7.1560   25.4090   38.6250 C.3    73  LEU73       0.0019
    140  CD1        8.6410   25.0240   38.7290 C.3    73  LEU73       0.0001
    141  CD2        6.2950   24.1980   38.2280 C.3    73  LEU73       0.0001
    142  N          5.1390   28.1170   41.7580 N.am   74  SER74      -0.1952
    143  CA         4.6310   28.3870   43.0980 C.3    74  SER74       0.1924
    144  C          3.2440   29.0080   43.0570 C.2    74  SER74       0.2314
    145  O          2.5240   28.9950   44.0560 O.2    74  SER74      -0.2863
    146  CB         5.5980   29.3120   43.8490 C.3    74  SER74       0.2116
    147  OG         5.4590   30.6480   43.3930 O.3    74  SER74      -0.2180
@<TRIPOS>BOND
     1    69    70    1
     2    70    71    1
     3    70    73    1
     4    71    72    2
     5    74    73    1
     6    62    61    2
     7    61    60    1
     8    73    75    1
     9   111   112    2
    10   111   110    1
    11    50    51    1
    12    51    52    1
    13    51    54    1
    14    53    52    2
    15    52    59   am
    16    59    60    1
    17    60    63    1
    18   110   109    1
    19   110   113    1
    20    54    55    1
    21    83    81    1
    22    63    64    1
    23   115   113    1
    24   113   114    1
    25    58    56   ar
    26    81    82    1
    27    81    80    1
    28    55    56    1
    29    56    57   ar
    30    64    65   ar
    31    64    66   ar
    32    48    47    1
    33    48    49    2
    34   117   118    1
    35   114   116    1
    36    76    77    1
    37    65    67   ar
    38    47    46    1
    39    66    68   ar
    40    80    77    1
    41    77    78    1
    42   118   119    1
    43   118   121    1
    44    67    68   ar
    45    42    41    2
    46    46    41   am
    47   141   139    1
    48    78    79    2
    49   119   120    2
    50   121   122    1
    51   139   140    1
    52   139   138    1
    53    41    40    1
    54   134   135    1
    55   127   128    1
    56   122   123   ar
    57   122   124   ar
    58   135   138    1
    59   135   136    1
    60   123   125   ar
    61    45    43    1
    62    38    36    1
    63    40    39    1
    64    40    43    1
    65   128   129    1
    66   128   131    1
    67    39    33   am
    68    44    43    1
    69    37    35    1
    70   129   130    2
    71    35    36    1
    72    35    32    1
    73   124   126   ar
    74   136   137    2
    75   136   142   am
    76   125   126   ar
    77   133   131    1
    78   131   132    1
    79    33    32    1
    80    33    34    2
    81    84    85    1
    82   142   143    1
    83    32    31    1
    84    24    22    1
    85    85    88    1
    86    85    86    1
    87    23    21    1
    88    11    10    1
    89    88    89    1
    90    28    27    2
    91   144   143    1
    92   144   145    2
    93   143   146    1
    94    12    10    1
    95    31    27   am
    96   147   146    1
    97    22    21    1
    98    27    26    1
    99    21    18    1
   100    86    90   am
   101    86    87    2
   102    10     9    1
   103    90    91    1
   104     9     6    1
   105    93    92    2
   106    18    19    1
   107    18    17    1
   108    26    25    1
   109    26    29    1
   110    92    91    1
   111    25    19   am
   112    91    94    1
   113    19    20    2
   114     6     7    1
   115     6     5    1
   116    29    30    1
   117     8     7    2
   118    17    15   am
   119     7    13   am
   120    16    15    2
   121    94    95    1
   122    15    14    1
   123     5     3   am
   124    13    14    1
   125    95    96    1
   126    99   100    1
   127     3     4    2
   128     3     2    1
   129   108   107   ar
   130   108   106   ar
   131   107   105   ar
   132     2     1    1
   133   106   104   ar
   134    96    97   ar
   135    96    98   ar
   136   102   101    2
   137   105   104   ar
   138   100   101    1
   139   100   103    1
   140   104   103    1
