@<TRIPOS>MOLECULE
tmp/4nmxB00.pdb
 91 87 0 0 0
SMALL
GASTEIGER

@<TRIPOS>ATOM
      1  N         26.0930   11.6460  -40.4650 N.3     1  SER1       -0.1217
      2  CA        26.8190   10.6380  -39.6360 C.3     1  SER1        0.1889
      3  C         26.1690   10.5290  -38.2530 C.2     1  SER1        0.2288
      4  O         25.0450   10.0320  -38.1320 O.2     1  SER1       -0.2866
      5  CB        28.3160   10.9860  -39.5330 C.3     1  SER1        0.2089
      6  OG        28.5290   12.2320  -38.8870 O.3     1  SER1       -0.2183
      7  N         25.4220   12.5530  -34.2520 N.3     3  PRO3       -0.2116
      8  CA        25.3120   13.8610  -33.6150 C.3     3  PRO3        0.1372
      9  C         26.6740   14.3910  -33.1940 C.2     3  PRO3        0.2244
     10  O         27.5340   13.6010  -32.7750 O.2     3  PRO3       -0.2868
     11  CB        24.4430   13.5770  -32.3860 C.3     3  PRO3        0.0268
     12  CG        23.6520   12.3670  -32.7400 C.3     3  PRO3        0.0207
     13  CD        24.5550   11.5490  -33.6030 C.3     3  PRO3        0.0892
     14  N         19.5100    5.0860  -30.3900 N.3    70  ASP70      -0.1225
     15  CA        20.0360    5.8310  -31.5400 C.3    70  ASP70       0.1805
     16  C         20.9410    6.9820  -31.1340 C.2    70  ASP70       0.2597
     17  O         21.9450    7.2390  -31.7900 O.2    70  ASP70      -0.2718
     18  CB        18.8810    6.3430  -32.4150 C.3    70  ASP70       0.1424
     19  CG        18.1800    5.2230  -33.1650 C.2    70  ASP70       0.3668
     20  OD1       18.8700    4.3010  -33.6310 O.co2  70  ASP70      -0.2456
     21  OD2       16.9450    5.2560  -33.2840 O.co2  70  ASP70      -0.2456
     22  N         20.6340    7.6480  -30.0230 N.am   71  ALA71      -0.1979
     23  CA        21.3580    8.8720  -29.6770 C.3    71  ALA71       0.1597
     24  C         22.0800    8.8480  -28.3290 C.2    71  ALA71       0.2287
     25  O         22.4940    9.8880  -27.8410 O.2    71  ALA71      -0.2864
     26  CB        20.4240   10.0650  -29.7560 C.3    71  ALA71       0.0319
     27  N         20.6040   16.4100  -29.2080 N.3   201  ILE201     -0.1245
     28  CA        19.4620   15.6400  -29.6440 C.3   201  ILE201      0.1561
     29  C         19.2540   14.4270  -28.7320 C.2   201  ILE201      0.2260
     30  O         20.2120   13.7960  -28.2690 O.2   201  ILE201     -0.2867
     31  CB        19.6260   15.1860  -31.1110 C.3   201  ILE201      0.0252
     32  CG1       18.3230   14.6110  -31.6570 C.3   201  ILE201      0.0019
     33  CG2       20.7470   14.1550  -31.2510 C.3   201  ILE201      0.0019
     34  CD1       17.2120   15.6290  -31.8100 C.3   201  ILE201      0.0001
     35  N         12.3320   12.6510  -27.2420 N.3   204  SER204     -0.1217
     36  CA        11.2830   13.6020  -26.9280 C.3   204  SER204      0.1889
     37  C         10.0600   12.8190  -26.4930 C.2   204  SER204      0.2288
     38  O          9.6040   11.9250  -27.2070 O.2   204  SER204     -0.2866
     39  CB        10.9360   14.4800  -28.1370 C.3   204  SER204      0.2089
     40  OG         9.7140   15.1920  -27.9230 O.3   204  SER204     -0.2183
     41  N          7.1690   13.6950  -26.5560 N.3   206  ASP206     -0.1225
     42  CA         6.0050   14.0650  -27.3740 C.3   206  ASP206      0.1805
     43  C          5.4010   12.8600  -28.1150 C.2   206  ASP206      0.2598
     44  O          4.1810   12.7980  -28.3290 O.2   206  ASP206     -0.2718
     45  CB         6.3660   15.1800  -28.3550 C.3   206  ASP206      0.1424
     46  CG         6.4220   16.5500  -27.7020 C.2   206  ASP206      0.3668
     47  OD1        6.4270   16.6540  -26.4600 O.co2 206  ASP206     -0.2456
     48  OD2        6.4710   17.5400  -28.4420 O.co2 206  ASP206     -0.2456
     49  N          6.2510   11.9040  -28.4930 N.am  207  CYS207     -0.1970
     50  CA         5.7990   10.6540  -29.0910 C.3   207  CYS207      0.1712
     51  C          6.8560    9.5600  -28.9240 C.2   207  CYS207      0.2296
     52  O          8.0180    9.8440  -28.6650 O.2   207  CYS207     -0.2864
     53  CB         5.4280   10.8510  -30.5760 C.3   207  CYS207      0.0983
     54  SG         6.7960   10.8110  -31.7740 S.3   207  CYS207     -0.0798
     55  N          8.5980    7.7990  -30.8180 N.3   209  THR209     -0.1203
     56  CA         9.7690    7.8170  -31.6900 C.3   209  THR209      0.1994
     57  C         10.3130    9.2270  -31.9240 C.2   209  THR209      0.2618
     58  O         11.1140    9.4320  -32.8420 O.2   209  THR209     -0.2717
     59  CB         9.4610    7.1560  -33.0640 C.3   209  THR209      0.1784
     60  OG1        8.3420    7.8100  -33.6780 O.3   209  THR209     -0.2211
     61  CG2        9.1590    5.6680  -32.9000 C.3   209  THR209      0.0376
     62  N          9.8880   10.1900  -31.1060 N.am  210  CYS210     -0.1955
     63  CA        10.2030   11.6040  -31.3430 C.3   210  CYS210      0.1843
     64  C         11.5750   11.9680  -30.7730 C.2   210  CYS210      0.2625
     65  O         12.0250   11.3560  -29.8110 O.2   210  CYS210     -0.2714
     66  CB         9.1300   12.5200  -30.7450 C.3   210  CYS210      0.0997
     67  SG         7.6080   12.6930  -31.7290 S.3   210  CYS210     -0.0797
     68  N         12.2260   12.9600  -31.3770 N.am  211  PHE211     -0.1960
     69  CA        13.4920   13.4810  -30.8690 C.3   211  PHE211      0.1771
     70  C         13.4670   14.9910  -30.8230 C.2   211  PHE211      0.2619
     71  O         12.8090   15.6300  -31.6360 O.2   211  PHE211     -0.2715
     72  CB        14.6830   12.9990  -31.7220 C.3   211  PHE211      0.0574
     73  CG        14.9410   11.5260  -31.6180 C.ar  211  PHE211     -0.0200
     74  CD1       15.8790   11.0300  -30.7210 C.ar  211  PHE211     -0.0042
     75  CD2       14.2350   10.6270  -32.4040 C.ar  211  PHE211     -0.0042
     76  CE1       16.1140    9.6710  -30.6290 C.ar  211  PHE211     -0.0003
     77  CE2       14.4430    9.2660  -32.2940 C.ar  211  PHE211     -0.0003
     78  CZ        15.3910    8.7850  -31.4120 C.ar  211  PHE211     -0.0000
     79  N         14.1930   15.5650  -29.8630 N.am  212  VAL212     -0.1963
     80  CA        14.2750   17.0130  -29.7310 C.3   212  VAL212      0.1727
     81  C         15.6470   17.4080  -29.2120 C.2   212  VAL212      0.2616
     82  O         16.3100   16.6090  -28.5220 O.2   212  VAL212     -0.2715
     83  CB        13.1470   17.5600  -28.8250 C.3   212  VAL212      0.0290
     84  CG1       13.3710   17.1430  -27.3720 C.3   212  VAL212      0.0023
     85  CG2       13.0320   19.0780  -28.9500 C.3   212  VAL212      0.0023
     86  N         16.1190   18.5950  -29.5900 N.am  213  SER213     -0.1950
     87  CA        17.4010   19.0930  -29.0780 C.3   213  SER213      0.1924
     88  C         17.1750   19.9410  -27.8400 C.2   213  SER213      0.2314
     89  O         16.2580   20.7740  -27.8010 O.2   213  SER213     -0.2863
     90  CB        18.1750   19.8980  -30.1200 C.3   213  SER213      0.2116
     91  OG        17.5330   21.1180  -30.3800 O.3   213  SER213     -0.2180
@<TRIPOS>BOND
     1     1     2    1
     2     2     5    1
     3     2     3    1
     4     5     6    1
     5     3     4    2
     6     7     8    1
     7     7    13    1
     8    60    59    1
     9    20    19   ar
    10     8     9    1
    11     8    11    1
    12    13    12    1
    13    21    19   ar
    14     9    10    2
    15    19    18    1
    16    59    61    1
    17    59    56    1
    18    58    57    2
    19    12    11    1
    20    18    15    1
    21    75    77   ar
    22    75    73   ar
    23    77    78   ar
    24    57    56    1
    25    57    62   am
    26    34    32    1
    27    17    16    2
    28    54    67    1
    29    54    53    1
    30    67    66    1
    31    72    73    1
    32    72    69    1
    33    56    55    1
    34    32    31    1
    35    71    70    2
    36    73    74   ar
    37    15    16    1
    38    15    14    1
    39    78    76   ar
    40    68    69    1
    41    68    64   am
    42    63    62    1
    43    63    64    1
    44    63    66    1
    45    33    31    1
    46    16    22   am
    47    31    28    1
    48    69    70    1
    49    70    79   am
    50    64    65    2
    51    74    76   ar
    52    53    50    1
    53    91    90    1
    54    90    87    1
    55    22    23    1
    56    79    80    1
    57    26    23    1
    58    80    81    1
    59    80    83    1
    60    23    24    1
    61    28    27    1
    62    28    29    1
    63    86    81   am
    64    86    87    1
    65    81    82    2
    66    50    51    1
    67    50    49    1
    68    87    88    1
    69    85    83    1
    70    51    52    2
    71    83    84    1
    72    29    30    2
    73    49    43   am
    74    48    46   ar
    75    45    46    1
    76    45    42    1
    77    44    43    2
    78    24    25    2
    79    39    40    1
    80    39    36    1
    81    43    42    1
    82    88    89    2
    83    46    47   ar
    84    42    41    1
    85    35    36    1
    86    38    37    2
    87    36    37    1
