@<TRIPOS>MOLECULE
tmp/4nn3A01.pdb
 139 129 0 0 0
SMALL
GASTEIGER

@<TRIPOS>ATOM
      1  N         18.6590   27.5090    4.7830 N.3     9  LEU9       -0.1231
      2  CA        17.8440   27.9800    3.6690 C.3     9  LEU9        0.1693
      3  C         16.7780   28.9980    4.0350 C.2     9  LEU9        0.2591
      4  O         16.2660   29.7050    3.1620 O.2     9  LEU9       -0.2718
      5  CB        17.0870   26.8120    3.0670 C.3     9  LEU9        0.0284
      6  CG        17.8140   25.7560    2.2520 C.3     9  LEU9        0.0019
      7  CD1       16.8030   24.7310    1.7420 C.3     9  LEU9        0.0001
      8  CD2       18.6370   26.3460    1.1210 C.3     9  LEU9        0.0001
      9  N         16.4030   29.0310    5.3050 N.am   10  GLU10      -0.1979
     10  CA        15.1580   29.7000    5.7080 C.3    10  GLU10       0.1602
     11  C         15.3060   31.1960    5.9640 C.2    10  GLU10       0.2287
     12  O         16.4000   31.7220    6.1760 O.2    10  GLU10      -0.2864
     13  CB        14.5630   29.0220    6.9540 C.3    10  GLU10       0.0415
     14  CG        13.8040   27.7230    6.6890 C.3    10  GLU10       0.1163
     15  CD        13.3400   27.0760    7.9630 C.2    10  GLU10       0.3649
     16  OE1       13.3940   27.7630    9.0060 O.co2  10  GLU10      -0.2457
     17  OE2       12.9250   25.9010    7.9160 O.co2  10  GLU10      -0.2457
     18  N         13.6510   28.2440   13.3970 N.3    16  ARG16      -0.1245
     19  CA        14.9700   27.6290   13.3240 C.3    16  ARG16       0.1563
     20  C         16.0590   28.6920   13.4970 C.2    16  ARG16       0.2260
     21  O         16.9050   28.5700   14.3690 O.2    16  ARG16      -0.2867
     22  CB        15.1560   26.8610   12.0160 C.3    16  ARG16       0.0307
     23  CG        16.5670   26.3310   11.8340 C.3    16  ARG16       0.0489
     24  CD        16.8850   26.2450   10.3920 C.3    16  ARG16       0.2205
     25  NE        16.2580   25.0940    9.7440 N.pl3  16  ARG16      -0.0865
     26  CZ        16.2070   24.9270    8.4250 C.cat  16  ARG16       0.5346
     27  NH1       15.6730   23.8350    7.9050 N.pl3  16  ARG16       0.1354
     28  NH2       16.6280   25.8850    7.6200 N.pl3  16  ARG16       0.1354
     29  N         20.9320   24.1710   -0.9040 N.3    48  GLN48      -0.1245
     30  CA        21.2400   23.2050    0.1390 C.3    48  GLN48       0.1566
     31  C         22.2610   22.2090   -0.3250 C.2    48  GLN48       0.2260
     32  O         23.0800   21.7720    0.4850 O.2    48  GLN48      -0.2867
     33  CB        19.9920   22.4590    0.6130 C.3    48  GLN48       0.0367
     34  CG        20.2490   21.6330    1.8610 C.3    48  GLN48       0.0905
     35  CD        20.5390   22.5070    3.0720 C.2    48  GLN48       0.2608
     36  OE1       19.6650   23.2730    3.4950 O.2    48  GLN48      -0.2717
     37  NE2       21.7300   22.3800    3.6540 N.am   48  GLN48      -0.0878
     38  N         17.1520   20.2990    6.3160 N.3    66  ALA66      -0.1245
     39  CA        16.0820   19.3370    6.3750 C.3    66  ALA66       0.1562
     40  C         16.6200   17.9770    5.9240 C.2    66  ALA66       0.2260
     41  O         17.4710   17.8710    5.0350 O.2    66  ALA66      -0.2867
     42  CB        14.9750   19.7710    5.4700 C.3    66  ALA66       0.0290
     43  N         16.8630   16.8330    2.0740 N.3    69  PHE69      -0.1241
     44  CA        17.9660   17.1480    1.1730 C.3    69  PHE69       0.1605
     45  C         19.1960   16.2620    1.3940 C.2    69  PHE69       0.2264
     46  O         20.1920   16.4180    0.6860 O.2    69  PHE69      -0.2867
     47  CB        18.3900   18.6170    1.3460 C.3    69  PHE69       0.0534
     48  CG        17.4280   19.6300    0.7490 C.ar   69  PHE69      -0.0203
     49  CD1       17.4560   19.8950   -0.6030 C.ar   69  PHE69      -0.0042
     50  CD2       16.5260   20.3380    1.5510 C.ar   69  PHE69      -0.0042
     51  CE1       16.6150   20.8460   -1.1490 C.ar   69  PHE69      -0.0003
     52  CE2       15.7010   21.2800    1.0040 C.ar   69  PHE69      -0.0003
     53  CZ        15.7400   21.5290   -0.3460 C.ar   69  PHE69      -0.0000
     54  N         10.9950   20.6020   12.9080 N.3   122  ASN122     -0.1240
     55  CA        10.8700   21.8630   12.1930 C.3   122  ASN122      0.1653
     56  C          9.5880   21.9160   11.3650 C.2   122  ASN122      0.2266
     57  O          9.5890   22.3170   10.1960 O.2   122  ASN122     -0.2867
     58  CB        12.0870   22.1150   11.3190 C.3   122  ASN122      0.1155
     59  CG        12.1270   23.5120   10.7710 C.2   122  ASN122      0.2627
     60  OD1       11.5850   24.4600   11.3610 O.2   122  ASN122     -0.2716
     61  ND2       12.8080   23.6680    9.6400 N.am  122  ASN122     -0.0877
     62  N          6.4840   20.6870   -6.7970 N.3   145  ARG145     -0.1245
     63  CA         7.8790   20.7910   -6.4320 C.3   145  ARG145      0.1563
     64  C          8.1040   20.0660   -5.1140 C.2   145  ARG145      0.2260
     65  O          7.2960   20.1840   -4.1770 O.2   145  ARG145     -0.2867
     66  CB         8.2920   22.2570   -6.2980 C.3   145  ARG145      0.0307
     67  CG         9.7410   22.4570   -5.8070 C.3   145  ARG145      0.0489
     68  CD         9.8000   22.5080   -4.2940 C.3   145  ARG145      0.2205
     69  NE        11.1480   22.8150   -3.8060 N.pl3 145  ARG145     -0.0865
     70  CZ        11.4590   22.9370   -2.5150 C.cat 145  ARG145      0.5346
     71  NH1       10.5140   22.7960   -1.5890 N.pl3 145  ARG145      0.1354
     72  NH2       12.7050   23.2140   -2.1460 N.pl3 145  ARG145      0.1354
     73  N         11.5110   19.0910   -2.2210 N.3   147  MET147     -0.1245
     74  CA        12.9010   19.0880   -1.8030 C.3   147  MET147      0.1570
     75  C         13.5840   17.8940   -2.4890 C.2   147  MET147      0.2261
     76  O         12.9370   17.0280   -3.0530 O.2   147  MET147     -0.2867
     77  CB        13.0110   18.9950   -0.2890 C.3   147  MET147      0.0387
     78  CG        12.4280   20.2110    0.4350 C.3   147  MET147      0.0595
     79  SD        12.4760   20.0700    2.2480 S.3   147  MET147     -0.1393
     80  CE        11.1540   18.9190    2.5150 C.3   147  MET147      0.0692
     81  N         14.9990   25.5800   -3.1380 N.3   168  PHE168     -0.1241
     82  CA        14.0970   26.4190   -2.3580 C.3   168  PHE168      0.1605
     83  C         14.1030   27.8860   -2.7780 C.2   168  PHE168      0.2264
     84  O         13.0640   28.5130   -2.8900 O.2   168  PHE168     -0.2867
     85  CB        14.4940   26.2600   -0.8910 C.3   168  PHE168      0.0534
     86  CG        13.5590   26.8880    0.0950 C.ar  168  PHE168     -0.0203
     87  CD1       12.2220   26.5420    0.1340 C.ar  168  PHE168     -0.0042
     88  CD2       14.0290   27.7770    1.0270 C.ar  168  PHE168     -0.0042
     89  CE1       11.3480   27.0910    1.0930 C.ar  168  PHE168     -0.0003
     90  CE2       13.1830   28.3390    1.9710 C.ar  168  PHE168     -0.0003
     91  CZ        11.8280   27.9910    2.0090 C.ar  168  PHE168     -0.0000
     92  N          4.7570   21.6760   -1.0880 N.3   184  GLU184     -0.1231
     93  CA         4.3820   21.2490    0.2590 C.3   184  GLU184      0.1699
     94  C          5.3240   21.8860    1.2640 C.2   184  GLU184      0.2592
     95  O          6.5450   21.9120    1.0380 O.2   184  GLU184     -0.2718
     96  CB         4.4470   19.7120    0.4090 C.3   184  GLU184      0.0402
     97  CG         5.7800   19.1020   -0.0600 C.3   184  GLU184      0.1161
     98  CD         6.0650   17.6900    0.4520 C.2   184  GLU184      0.3649
     99  OE1        5.1590   16.9660    0.9200 O.co2 184  GLU184     -0.2457
    100  OE2        7.2560   17.3020    0.4180 O.co2 184  GLU184     -0.2457
    101  N          4.8010   22.3970    2.3630 N.am  185  ASN185     -0.1961
    102  CA         5.6160   23.0870    3.3540 C.3   185  ASN185      0.1804
    103  C          4.8020   23.3990    4.5890 C.2   185  ASN185      0.2463
    104  O          3.5510   23.3740    4.5500 O.2   185  ASN185     -0.2730
    105  CB         6.1680   24.3800    2.7760 C.3   185  ASN185      0.1195
    106  CG         7.6850   24.3010    2.4900 C.2   185  ASN185      0.2630
    107  OD1        8.4520   23.8810    3.3470 O.2   185  ASN185     -0.2716
    108  ND2        8.1080   24.6770    1.2720 N.am  185  ASN185     -0.0877
    109  N          5.4780   23.6780    5.6990 N.am  186  PRO186     -0.2727
    110  CA         4.7670   24.1560    6.8890 C.3   186  PRO186      0.1402
    111  C          4.1190   25.5110    6.5920 C.2   186  PRO186      0.2269
    112  O          4.5940   26.2780    5.7440 O.2   186  PRO186     -0.2865
    113  CB         5.8730   24.2810    7.9570 C.3   186  PRO186      0.0296
    114  CG         6.9230   23.2920    7.5150 C.3   186  PRO186      0.0237
    115  CD         6.9030   23.4000    5.9890 C.3   186  PRO186      0.0939
    116  N          6.4100   28.6560    6.7680 N.3   189  THR189     -0.1218
    117  CA         7.2590   28.7600    5.5820 C.3   189  THR189      0.1862
    118  C          6.4760   29.3330    4.3940 C.2   189  THR189      0.2287
    119  O          6.9510   30.2400    3.7270 O.2   189  THR189     -0.2866
    120  CB         7.8750   27.4090    5.2410 C.3   189  THR189      0.1770
    121  OG1        8.7160   27.0130    6.3320 O.3   189  THR189     -0.2211
    122  CG2        8.7110   27.4990    3.9840 C.3   189  THR189      0.0375
    123  N          9.0060   17.9240    8.3560 N.3   210  MET210     -0.1245
    124  CA        10.1970   18.7220    8.0430 C.3   210  MET210      0.1570
    125  C         11.1300   18.5780    9.2500 C.2   210  MET210      0.2261
    126  O         10.8530   19.1130   10.3350 O.2   210  MET210     -0.2867
    127  CB         9.8000   20.1840    7.8490 C.3   210  MET210      0.0387
    128  CG        10.9200   21.1120    7.3450 C.3   210  MET210      0.0595
    129  SD        11.4520   20.7880    5.6570 S.3   210  MET210     -0.1393
    130  CE        10.0080   21.3580    4.7570 C.3   210  MET210      0.0692
    131  N          7.6100   27.3580   16.7880 N.3   247  LYS247     -0.1245
    132  CA         7.2340   26.8130   15.4700 C.3   247  LYS247      0.1561
    133  C          5.7490   26.4070   15.4600 C.2   247  LYS247      0.2260
    134  O          5.0140   26.7250   14.5130 O.2   247  LYS247     -0.2867
    135  CB         8.1310   25.6400   15.1020 C.3   247  LYS247      0.0271
    136  CG         7.9530   25.1610   13.6710 C.3   247  LYS247      0.0035
    137  CD         8.4870   26.1530   12.6160 C.3   247  LYS247      0.0206
    138  CE         8.5240   25.4750   11.2440 C.3   247  LYS247      0.1093
    139  NZ         9.1420   26.4350   10.2620 N.3   247  LYS247     -0.1314
@<TRIPOS>BOND
     1    62    63    1
     2    63    66    1
     3    63    64    1
     4    66    67    1
     5    67    68    1
     6    64    65    2
     7    68    69    1
     8    69    70    2
     9    81    82    1
    10    76    75    2
    11    84    83    2
    12    83    82    1
    13    70    72    1
    14    70    71    1
    15    75    74    1
    16    82    85    1
    17    73    74    1
    18    74    77    1
    19    51    49   ar
    20    51    53   ar
    21    92    93    1
    22    29    30    1
    23    85    86    1
    24    49    48   ar
    25    53    52   ar
    26    31    30    1
    27    31    32    2
    28    77    78    1
    29    97    96    1
    30    97    98    1
    31    86    87   ar
    32    86    88   ar
    33    87    89   ar
    34    30    33    1
    35    93    96    1
    36    93    94    1
    37   100    98   ar
    38    78    79    1
    39    98    99   ar
    40    33    34    1
    41    46    45    2
    42    48    47    1
    43    48    50   ar
    44    52    50   ar
    45    88    90   ar
    46    95    94    2
    47    89    91   ar
    48     8     6    1
    49    44    47    1
    50    44    45    1
    51    44    43    1
    52    94   101   am
    53   108   106   am
    54     7     6    1
    55    34    35    1
    56    90    91   ar
    57    79    80    1
    58     6     5    1
    59   101   102    1
    60   106   105    1
    61   106   107    2
    62   105   102    1
    63     5     2    1
    64    35    36    2
    65    35    37   am
    66     4     3    2
    67   102   103    1
    68     2     3    1
    69     2     1    1
    70   119   118    2
    71   122   120    1
    72     3     9   am
    73   118   117    1
    74   104   103    2
    75   103   109   am
    76   130   129    1
    77    41    40    2
    78   120   117    1
    79   120   121    1
    80     9    10    1
    81    42    39    1
    82   117   116    1
    83   129   128    1
    84   109   115    1
    85   109   110    1
    86    10    11    1
    87    10    13    1
    88   112   111    2
    89    40    39    1
    90    11    12    2
    91   115   114    1
    92    38    39    1
    93   111   110    1
    94    14    13    1
    95    14    15    1
    96   110   113    1
    97   128   127    1
    98   114   113    1
    99    28    26    1
   100   127   124    1
   101    27    26    1
   102    17    15   ar
   103    15    16   ar
   104   124   123    1
   105   124   125    1
   106    26    25    2
   107   125   126    2
   108    61    59   am
   109    25    24    1
   110    57    56    2
   111   139   138    1
   112    24    23    1
   113    59    58    1
   114    59    60    2
   115   138   137    1
   116    58    55    1
   117    56    55    1
   118    23    22    1
   119    22    19    1
   120    55    54    1
   121   137   136    1
   122    19    18    1
   123    19    20    1
   124    20    21    2
   125   136   135    1
   126   134   133    2
   127   135   132    1
   128   133   132    1
   129   132   131    1
