@<TRIPOS>MOLECULE
tmp/4nnbA00.pdb
 130 122 0 0 0
SMALL
GASTEIGER

@<TRIPOS>ATOM
      1  N        -48.7920  -21.8050  -10.2010 N.3    12  ALA12      -0.1245
      2  CA       -47.4110  -21.8980   -9.7620 C.3    12  ALA12       0.1562
      3  C        -46.7280  -20.5330   -9.6520 C.2    12  ALA12       0.2260
      4  O        -45.8350  -20.3440   -8.8250 O.2    12  ALA12      -0.2867
      5  CB       -46.6340  -22.7910  -10.7170 C.3    12  ALA12       0.0290
      6  N        -59.2300  -26.1770  -10.7780 N.3   181  HIS181     -0.1241
      7  CA       -57.8530  -26.6840  -10.8850 C.3   181  HIS181      0.1621
      8  C        -57.0100  -26.0580   -9.7640 C.2   181  HIS181      0.2264
      9  O        -56.9040  -24.8390   -9.6660 O.2   181  HIS181     -0.2867
     10  CB       -57.2980  -26.3420  -12.2790 C.3   181  HIS181      0.0745
     11  CG       -55.8280  -26.5970  -12.4560 C.ar  181  HIS181      0.0817
     12  ND1      -55.2900  -27.8700  -12.5540 N.ar  181  HIS181     -0.2268
     13  CD2      -54.7870  -25.7430  -12.6100 C.ar  181  HIS181      0.1154
     14  CE1      -53.9850  -27.7810  -12.7340 C.ar  181  HIS181      0.1986
     15  NE2      -53.6510  -26.4970  -12.7680 N.ar  181  HIS181     -0.2212
     16  N        -53.5130  -25.6810   -7.1880 N.3   183  HIS183     -0.1241
     17  CA       -52.1300  -25.8640   -6.7550 C.3   183  HIS183      0.1621
     18  C        -52.0510  -25.5540   -5.2630 C.2   183  HIS183      0.2264
     19  O        -52.9120  -24.8570   -4.7090 O.2   183  HIS183     -0.2867
     20  CB       -51.1830  -24.8680   -7.4330 C.3   183  HIS183      0.0745
     21  CG       -50.9300  -25.1180   -8.8880 C.ar  183  HIS183      0.0817
     22  ND1      -49.6630  -25.3190   -9.3900 N.ar  183  HIS183     -0.2268
     23  CD2      -51.7680  -25.1250   -9.9550 C.ar  183  HIS183      0.1154
     24  CE1      -49.7300  -25.4600  -10.7040 C.ar  183  HIS183      0.1986
     25  NE2      -50.9960  -25.3480  -11.0710 N.ar  183  HIS183     -0.2212
     26  N        -53.3390  -30.2350   -9.5410 N.3   234  SER234     -0.1202
     27  CA       -52.0780  -30.1290  -10.2750 C.3   234  SER234      0.2020
     28  C        -51.0450  -31.1540   -9.8030 C.2   234  SER234      0.2619
     29  O        -50.7980  -31.3020   -8.6050 O.2   234  SER234     -0.2717
     30  CB       -51.4810  -28.7340  -10.1380 C.3   234  SER234      0.2103
     31  OG       -50.2270  -28.6810  -10.7890 O.3   234  SER234     -0.2182
     32  N        -50.4200  -31.8300  -10.7550 N.am  235  THR235     -0.1938
     33  CA       -49.3150  -32.7340  -10.4450 C.3   235  THR235      0.2028
     34  C        -47.9980  -32.1130  -10.8770 C.2   235  THR235      0.2642
     35  O        -46.9540  -32.7690  -10.8950 O.2   235  THR235     -0.2714
     36  CB       -49.4970  -34.0670  -11.1560 C.3   235  THR235      0.1808
     37  OG1      -49.5360  -33.8450  -12.5670 O.3   235  THR235     -0.2208
     38  CG2      -50.8140  -34.7240  -10.6970 C.3   235  THR235      0.0379
     39  N        -48.0540  -30.8380  -11.2270 N.am  236  SER236     -0.1949
     40  CA       -46.8840  -30.1370  -11.7510 C.3   236  SER236      0.1924
     41  C        -45.7700  -29.9380  -10.7060 C.2   236  SER236      0.2314
     42  O        -46.0490  -29.7210   -9.5210 O.2   236  SER236     -0.2863
     43  CB       -47.3350  -28.7880  -12.3120 C.3   236  SER236      0.2116
     44  OG       -46.2300  -27.9710  -12.5970 O.3   236  SER236     -0.2180
     45  N        -43.3770  -27.5760  -11.5240 N.3   238  ARG238     -0.1245
     46  CA       -42.8600  -26.3030  -12.0180 C.3   238  ARG238      0.1563
     47  C        -42.1640  -25.5200  -10.9050 C.2   238  ARG238      0.2260
     48  O        -42.6600  -25.4490   -9.7690 O.2   238  ARG238     -0.2867
     49  CB       -43.9950  -25.4640  -12.6240 C.3   238  ARG238      0.0307
     50  CG       -43.7400  -23.9510  -12.6030 C.3   238  ARG238      0.0489
     51  CD       -43.6350  -23.3130  -13.9810 C.3   238  ARG238      0.2205
     52  NE       -44.9430  -22.9810  -14.5180 N.pl3 238  ARG238     -0.0865
     53  CZ       -45.2320  -21.8990  -15.2420 C.cat 238  ARG238      0.5346
     54  NH1      -44.3090  -21.0000  -15.5550 N.pl3 238  ARG238      0.1354
     55  NH2      -46.4710  -21.7280  -15.6620 N.pl3 238  ARG238      0.1354
     56  N        -53.9590  -33.1830  -13.2450 N.3   267  SER267     -0.1217
     57  CA       -53.2590  -32.8280  -14.4660 C.3   267  SER267      0.1889
     58  C        -52.1890  -33.8720  -14.8460 C.2   267  SER267      0.2288
     59  O        -51.6110  -34.5430  -13.9860 O.2   267  SER267     -0.2866
     60  CB       -52.6700  -31.4210  -14.3540 C.3   267  SER267      0.2089
     61  OG       -51.6080  -31.3850  -13.4240 O.3   267  SER267     -0.2183
     62  N        -49.0880  -34.2730  -18.0520 N.3   269  SER269     -0.1217
     63  CA       -48.4250  -33.7430  -19.2400 C.3   269  SER269      0.1889
     64  C        -47.4620  -34.7970  -19.7920 C.2   269  SER269      0.2288
     65  O        -46.4390  -35.0630  -19.1870 O.2   269  SER269     -0.2866
     66  CB       -47.6430  -32.4710  -18.8950 C.3   269  SER269      0.2089
     67  OG       -48.4940  -31.4200  -18.4630 O.3   269  SER269     -0.2183
     68  N        -40.7600  -24.3030  -20.7950 N.3   275  PHE275     -0.1241
     69  CA       -41.2200  -22.9360  -21.0560 C.3   275  PHE275      0.1605
     70  C        -40.0840  -22.0950  -21.6340 C.2   275  PHE275      0.2264
     71  O        -38.9740  -22.1060  -21.1010 O.2   275  PHE275     -0.2867
     72  CB       -41.6740  -22.2620  -19.7580 C.3   275  PHE275      0.0534
     73  CG       -42.8520  -22.9190  -19.0900 C.ar  275  PHE275     -0.0203
     74  CD1      -42.6630  -23.7650  -18.0060 C.ar  275  PHE275     -0.0042
     75  CD2      -44.1450  -22.6690  -19.5220 C.ar  275  PHE275     -0.0042
     76  CE1      -43.7480  -24.3650  -17.3730 C.ar  275  PHE275     -0.0003
     77  CE2      -45.2380  -23.2650  -18.8870 C.ar  275  PHE275     -0.0003
     78  CZ       -45.0320  -24.1150  -17.8160 C.ar  275  PHE275     -0.0000
     79  N        -40.3210  -28.5460  -16.4170 N.3   281  TYR281     -0.1241
     80  CA       -40.1270  -29.8020  -15.6840 C.3   281  TYR281      0.1605
     81  C        -40.3460  -30.9970  -16.6040 C.2   281  TYR281      0.2264
     82  O        -41.1640  -30.9560  -17.5340 O.2   281  TYR281     -0.2867
     83  CB       -41.0740  -29.9030  -14.4720 C.3   281  TYR281      0.0534
     84  CG       -42.5110  -29.6460  -14.8390 C.ar  281  TYR281     -0.0201
     85  CD1      -42.9770  -28.3490  -15.0040 C.ar  281  TYR281     -0.0009
     86  CD2      -43.4030  -30.6950  -15.0400 C.ar  281  TYR281     -0.0009
     87  CE1      -44.2840  -28.0930  -15.3580 C.ar  281  TYR281      0.0417
     88  CE2      -44.7260  -30.4430  -15.3970 C.ar  281  TYR281      0.0417
     89  CZ       -45.1490  -29.1310  -15.5500 C.ar  281  TYR281      0.1957
     90  OH       -46.4450  -28.8370  -15.9010 O.3   281  TYR281     -0.2866
     91  N        -52.7070  -31.7560  -19.9910 N.3   305  GLU305     -0.1245
     92  CA       -52.3040  -30.3590  -20.1500 C.3   305  GLU305      0.1567
     93  C        -51.5140  -30.2660  -21.4380 C.2   305  GLU305      0.2260
     94  O        -50.3500  -30.6740  -21.4820 O.2   305  GLU305     -0.2867
     95  CB       -51.3970  -29.8900  -19.0040 C.3   305  GLU305      0.0388
     96  CG       -51.9290  -30.0940  -17.6130 C.3   305  GLU305      0.1160
     97  CD       -53.1870  -29.2980  -17.3480 C.2   305  GLU305      0.3649
     98  OE1      -53.1000  -28.1350  -16.8800 O.co2 305  GLU305     -0.2457
     99  OE2      -54.2650  -29.8560  -17.5860 O.co2 305  GLU305     -0.2457
    100  N        -49.3660  -28.5330  -23.4030 N.3   307  PHE307     -0.1241
    101  CA       -48.4310  -27.4070  -23.3930 C.3   307  PHE307      0.1605
    102  C        -47.7690  -27.1870  -24.7510 C.2   307  PHE307      0.2264
    103  O        -47.3570  -26.0730  -25.0690 O.2   307  PHE307     -0.2867
    104  CB       -47.3150  -27.6380  -22.3590 C.3   307  PHE307      0.0534
    105  CG       -47.7190  -27.3500  -20.9300 C.ar  307  PHE307     -0.0203
    106  CD1      -48.0600  -28.3880  -20.0610 C.ar  307  PHE307     -0.0042
    107  CD2      -47.7410  -26.0400  -20.4550 C.ar  307  PHE307     -0.0042
    108  CE1      -48.4180  -28.1230  -18.7340 C.ar  307  PHE307     -0.0003
    109  CE2      -48.1020  -25.7590  -19.1360 C.ar  307  PHE307     -0.0003
    110  CZ       -48.4400  -26.7890  -18.2720 C.ar  307  PHE307     -0.0000
    111  N        -61.0670  -21.9870  -19.4300 N.3   428  ARG428     -0.1245
    112  CA       -60.4850  -21.8650  -18.1020 C.3   428  ARG428      0.1563
    113  C        -60.0480  -20.4270  -17.8630 C.2   428  ARG428      0.2260
    114  O        -59.4960  -19.7710  -18.7630 O.2   428  ARG428     -0.2867
    115  CB       -59.2800  -22.8260  -17.9520 C.3   428  ARG428      0.0307
    116  CG       -58.2530  -22.4180  -16.8920 C.3   428  ARG428      0.0489
    117  CD       -57.2480  -23.5590  -16.5730 C.3   428  ARG428      0.2205
    118  NE       -55.9320  -23.0180  -16.2560 N.pl3 428  ARG428     -0.0865
    119  CZ       -54.8500  -23.7480  -15.9770 C.cat 428  ARG428      0.5346
    120  NH1      -54.9070  -25.0790  -15.9550 N.pl3 428  ARG428      0.1354
    121  NH2      -53.7060  -23.1320  -15.7350 N.pl3 428  ARG428      0.1354
    122  N        -54.1980  -18.0820  -11.6510 N.3   432  GLU432     -0.1245
    123  CA       -53.1230  -18.8760  -12.2610 C.3   432  GLU432      0.1567
    124  C        -52.7160  -18.3710  -13.6440 C.2   432  GLU432      0.2260
    125  O        -51.5240  -18.3140  -13.9680 O.2   432  GLU432     -0.2867
    126  CB       -53.5420  -20.3530  -12.3550 C.3   432  GLU432      0.0388
    127  CG       -52.5540  -21.2280  -13.1400 C.3   432  GLU432      0.1160
    128  CD       -52.7420  -22.7110  -12.8500 C.2   432  GLU432      0.3649
    129  OE1      -51.9550  -23.5360  -13.3680 O.co2 432  GLU432     -0.2457
    130  OE2      -53.6950  -23.0510  -12.1190 O.co2 432  GLU432     -0.2457
@<TRIPOS>BOND
     1   103   102    2
     2   102   101    1
     3   100   101    1
     4   101   104    1
     5   104   105    1
     6    70    71    2
     7    70    69    1
     8    94    93    2
     9    93    92    1
    10    69    68    1
    11    69    72    1
    12   105   107   ar
    13   105   106   ar
    14   107   109   ar
    15    92    91    1
    16    92    95    1
    17   106   108   ar
    18    64    63    1
    19    64    65    2
    20    72    73    1
    21    75    73   ar
    22    75    77   ar
    23   111   112    1
    24    63    66    1
    25    63    62    1
    26   109   110   ar
    27    73    74   ar
    28    95    96    1
    29    66    67    1
    30    77    78   ar
    31   114   113    2
    32   108   110   ar
    33   112   115    1
    34   112   113    1
    35    74    76   ar
    36   115   116    1
    37    78    76   ar
    38    96    97    1
    39    99    97   ar
    40    82    81    2
    41    97    98   ar
    42   116   117    1
    43    81    80    1
    44   117   118    1
    45    79    80    1
    46   118   119    2
    47   119   120    1
    48   119   121    1
    49    90    89    1
    50    80    83    1
    51    55    53    1
    52    54    53    1
    53    89    88   ar
    54    89    87   ar
    55    88    86   ar
    56    87    85   ar
    57    53    52    2
    58    86    84   ar
    59    85    84   ar
    60    58    57    1
    61    58    59    2
    62    84    83    1
    63    52    51    1
    64    57    60    1
    65    57    56    1
    66    60    61    1
    67    51    50    1
    68   125   124    2
    69   124   123    1
    70   129   128   ar
    71   127   128    1
    72   127   126    1
    73   128   130   ar
    74    15    14   ar
    75    15    13   ar
    76    14    12   ar
    77    49    50    1
    78    49    46    1
    79    13    11   ar
    80    44    43    1
    81    37    36    1
    82    12    11   ar
    83    11    10    1
    84   126   123    1
    85    43    40    1
    86    10     7    1
    87   123   122    1
    88    46    45    1
    89    46    47    1
    90    40    39    1
    91    40    41    1
    92    39    34   am
    93    36    38    1
    94    36    33    1
    95    25    24   ar
    96    25    23   ar
    97    47    48    2
    98    35    34    2
    99     7     6    1
   100     7     8    1
   101    34    33    1
   102    31    30    1
   103    32    33    1
   104    32    28   am
   105     5     2    1
   106    41    42    2
   107    24    22   ar
   108    27    30    1
   109    27    28    1
   110    27    26    1
   111     1     2    1
   112    23    21   ar
   113    28    29    2
   114     8     9    2
   115     2     3    1
   116     3     4    2
   117    22    21   ar
   118    21    20    1
   119    20    17    1
   120    16    17    1
   121    17    18    1
   122    18    19    2
