@<TRIPOS>MOLECULE
tmp/4nndA00.pdb
 188 179 0 0 0
SMALL
GASTEIGER

@<TRIPOS>ATOM
      1  N        -20.6640  -16.9260   -3.8300 N.3    24  GLN24      -0.1245
      2  CA       -21.5560  -17.6870   -3.0260 C.3    24  GLN24       0.1566
      3  C        -20.9560  -18.2530   -1.7540 C.2    24  GLN24       0.2260
      4  O        -21.5660  -18.1960   -0.7480 O.2    24  GLN24      -0.2867
      5  CB       -22.2810  -18.7390   -3.8650 C.3    24  GLN24       0.0367
      6  CG       -23.2100  -18.1320   -4.8630 C.3    24  GLN24       0.0905
      7  CD       -23.8540  -19.1060   -5.7590 C.2    24  GLN24       0.2608
      8  OE1      -23.2060  -19.8880   -6.3840 O.2    24  GLN24      -0.2717
      9  NE2      -25.1370  -19.0530   -5.8380 N.am   24  GLN24      -0.0878
     10  N        -20.7210  -15.2720    0.7850 N.3    27  SER27      -0.1217
     11  CA       -22.0270  -15.0890    1.3480 C.3    27  SER27       0.1889
     12  C        -22.4330  -16.0560    2.4350 C.2    27  SER27       0.2288
     13  O        -23.0090  -15.6570    3.4020 O.2    27  SER27      -0.2866
     14  CB       -23.0390  -15.1460    0.2400 C.3    27  SER27       0.2089
     15  OG       -23.1170  -13.9100   -0.3460 O.3    27  SER27      -0.2183
     16  N        -42.2520  -10.6750    1.2630 N.3    51  ARG51      -0.1231
     17  CA       -42.8040  -11.3530    0.1040 C.3    51  ARG51       0.1694
     18  C        -42.3420  -12.8300    0.0500 C.2    51  ARG51       0.2592
     19  O        -43.1160  -13.7300   -0.2430 O.2    51  ARG51      -0.2718
     20  CB       -42.4110  -10.5850   -1.1750 C.3    51  ARG51       0.0321
     21  CG       -42.9390  -11.1760   -2.4750 C.3    51  ARG51       0.0489
     22  CD       -42.7370  -10.2280   -3.6840 C.3    51  ARG51       0.2205
     23  NE       -43.6740   -9.0960   -3.7120 N.pl3  51  ARG51      -0.0865
     24  CZ       -44.9380   -9.1950   -4.1160 C.cat  51  ARG51       0.5346
     25  NH1      -45.4120  -10.3780   -4.5010 N.pl3  51  ARG51       0.1354
     26  NH2      -45.7290   -8.1230   -4.1190 N.pl3  51  ARG51       0.1354
     27  N        -41.0750  -13.0710    0.3460 N.am   52  TYR52      -0.1962
     28  CA       -40.5250  -14.4250    0.3280 C.3    52  TYR52       0.1771
     29  C        -39.8940  -14.8460    1.6620 C.2    52  TYR52       0.2619
     30  O        -39.1480  -14.0750    2.2650 O.2    52  TYR52      -0.2715
     31  CB       -39.4630  -14.5510   -0.7670 C.3    52  TYR52       0.0574
     32  CG       -39.9650  -14.1930   -2.1340 C.ar   52  TYR52      -0.0198
     33  CD1      -40.7490  -15.0810   -2.8670 C.ar   52  TYR52      -0.0009
     34  CD2      -39.6680  -12.9640   -2.6880 C.ar   52  TYR52      -0.0009
     35  CE1      -41.2200  -14.7410   -4.1300 C.ar   52  TYR52       0.0417
     36  CE2      -40.1260  -12.6160   -3.9390 C.ar   52  TYR52       0.0417
     37  CZ       -40.9090  -13.4940   -4.6590 C.ar   52  TYR52       0.1957
     38  OH       -41.3660  -13.0980   -5.8980 O.3    52  TYR52      -0.2866
     39  N        -40.1620  -16.0790    2.0880 N.am   53  LYS53      -0.1963
     40  CA       -39.6140  -16.5950    3.3350 C.3    53  LYS53       0.1728
     41  C        -38.0910  -16.6700    3.3320 C.2    53  LYS53       0.2616
     42  O        -37.4610  -16.5570    4.3770 O.2    53  LYS53      -0.2715
     43  CB       -40.2150  -17.9690    3.6410 C.3    53  LYS53       0.0311
     44  CG       -41.6820  -17.8850    4.0090 C.3    53  LYS53       0.0038
     45  CD       -42.2880  -19.2330    4.3920 C.3    53  LYS53       0.0206
     46  CE       -43.6340  -19.0120    5.0700 C.3    53  LYS53       0.1093
     47  NZ       -43.5250  -17.9800    6.1650 N.3    53  LYS53      -0.1314
     48  N        -37.5000  -16.8490    2.1560 N.am   54  ASP54      -0.1957
     49  CA       -36.0480  -17.0200    2.0570 C.3    54  ASP54       0.1840
     50  C        -35.3100  -15.7400    1.6330 C.2    54  ASP54       0.2621
     51  O        -34.1240  -15.7810    1.2940 O.2    54  ASP54      -0.2715
     52  CB       -35.6900  -18.1760    1.1100 C.3    54  ASP54       0.1450
     53  CG       -36.3310  -18.0300   -0.2800 C.2    54  ASP54       0.3671
     54  OD1      -37.2410  -17.1690   -0.4360 O.co2  54  ASP54      -0.2456
     55  OD2      -35.9340  -18.7910   -1.2060 O.co2  54  ASP54      -0.2456
     56  N        -36.0100  -14.6050    1.6540 N.am   55  VAL55      -0.1977
     57  CA       -35.3620  -13.3190    1.3810 C.3    55  VAL55       0.1596
     58  C        -35.6010  -12.3230    2.5150 C.2    55  VAL55       0.2287
     59  O        -36.6600  -11.7030    2.6050 O.2    55  VAL55      -0.2864
     60  CB       -35.8650  -12.6850    0.0650 C.3    55  VAL55       0.0276
     61  CG1      -35.2480  -11.3100   -0.1150 C.3    55  VAL55       0.0022
     62  CG2      -35.5450  -13.5760   -1.1180 C.3    55  VAL55       0.0022
     63  N        -48.1710  -15.4070  -11.8110 N.3   128  ARG128     -0.1231
     64  CA       -48.1060  -15.0930  -10.4140 C.3   128  ARG128      0.1694
     65  C        -48.0190  -13.6000  -10.1180 C.2   128  ARG128      0.2592
     66  O        -47.3720  -12.8920  -10.8060 O.2   128  ARG128     -0.2718
     67  CB       -46.9970  -15.9000   -9.7640 C.3   128  ARG128      0.0321
     68  CG       -47.2720  -17.3670   -9.7450 C.3   128  ARG128      0.0489
     69  CD       -46.0380  -18.2120   -9.8690 C.3   128  ARG128      0.2205
     70  NE       -46.2460  -19.3720  -10.7430 N.pl3 128  ARG128     -0.0865
     71  CZ       -45.3000  -20.1160  -11.3230 C.cat 128  ARG128      0.5346
     72  NH1      -43.9940  -19.8770  -11.1800 N.pl3 128  ARG128      0.1354
     73  NH2      -45.6790  -21.1220  -12.0780 N.pl3 128  ARG128      0.1354
     74  N        -48.7110  -13.1370   -9.0930 N.am  129  LYS129     -0.1966
     75  CA       -48.5400  -11.7780   -8.6440 C.3   129  LYS129      0.1728
     76  C        -47.1710  -11.5350   -8.0500 C.2   129  LYS129      0.2616
     77  O        -46.8050  -12.1060   -7.1070 O.2   129  LYS129     -0.2715
     78  CB       -49.6360  -11.3480   -7.7220 C.3   129  LYS129      0.0311
     79  CG       -49.7380   -9.9050   -7.7080 C.3   129  LYS129      0.0038
     80  CD       -50.5850   -9.3770   -8.7930 C.3   129  LYS129      0.0206
     81  CE       -50.3820   -7.9420   -8.9960 C.3   129  LYS129      0.1093
     82  NZ       -51.3320   -7.1870   -8.2620 N.3   129  LYS129     -0.1314
     83  N        -46.3920  -10.7040   -8.6780 N.am  130  ARG130     -0.1977
     84  CA       -44.9830  -10.5150   -8.3030 C.3   130  ARG130      0.1597
     85  C        -44.7190   -9.1660   -7.6820 C.2   130  ARG130      0.2287
     86  O        -43.7100   -8.9860   -7.0440 O.2   130  ARG130     -0.2864
     87  CB       -44.1030  -10.6640   -9.5350 C.3   130  ARG130      0.0334
     88  CG       -43.9240  -12.1170   -9.9670 C.3   130  ARG130      0.0492
     89  CD       -43.0460  -12.7930   -8.9340 C.3   130  ARG130      0.2205
     90  NE       -43.2760  -14.2220   -8.7730 N.pl3 130  ARG130     -0.0865
     91  CZ       -42.3140  -15.1360   -8.8660 C.cat 130  ARG130      0.5346
     92  NH1      -41.0470  -14.7700   -9.1470 N.pl3 130  ARG130      0.1354
     93  NH2      -42.6270  -16.4180   -8.6830 N.pl3 130  ARG130      0.1354
     94  N        -36.5330  -12.6110  -14.1020 N.3   187  ASP187     -0.1225
     95  CA       -36.0640  -13.4920  -13.0820 C.3   187  ASP187      0.1805
     96  C        -34.9450  -14.4320  -13.4060 C.2   187  ASP187      0.2597
     97  O        -35.1340  -15.3650  -14.1250 O.2   187  ASP187     -0.2718
     98  CB       -37.2510  -14.3690  -12.7820 C.3   187  ASP187      0.1424
     99  CG       -37.6140  -14.3900  -11.3920 C.2   187  ASP187      0.3668
    100  OD1      -37.3920  -13.3730  -10.7470 O.co2 187  ASP187     -0.2456
    101  OD2      -38.1430  -15.4400  -10.9520 O.co2 187  ASP187     -0.2456
    102  N        -33.7830  -14.1820  -12.8430 N.am  188  ARG188     -0.1979
    103  CA       -32.6150  -15.0020  -13.0350 C.3   188  ARG188      0.1597
    104  C        -31.9930  -14.7910  -14.3550 C.2   188  ARG188      0.2287
    105  O        -30.9290  -15.2330  -14.5990 O.2   188  ARG188     -0.2864
    106  CB       -32.9650  -16.4350  -12.8580 C.3   188  ARG188      0.0334
    107  CG       -33.6550  -16.6240  -11.6330 C.3   188  ARG188      0.0492
    108  CD       -34.0320  -17.9750  -11.4950 C.3   188  ARG188      0.2205
    109  NE       -34.5970  -18.1560  -10.1940 N.pl3 188  ARG188     -0.0865
    110  CZ       -35.0680  -19.2890   -9.7450 C.cat 188  ARG188      0.5346
    111  NH1      -35.0270  -20.3660  -10.5050 N.pl3 188  ARG188      0.1354
    112  NH2      -35.5740  -19.3400   -8.5430 N.pl3 188  ARG188      0.1354
    113  N        -37.2670   -4.9910   -7.6370 N.3   219  SER219     -0.1202
    114  CA       -37.7690   -6.0110   -8.5500 C.3   219  SER219      0.2020
    115  C        -38.8350   -6.7190   -7.7440 C.2   219  SER219      0.2619
    116  O        -39.5240   -6.0650   -6.9730 O.2   219  SER219     -0.2717
    117  CB       -36.6420   -6.9670   -8.9550 C.3   219  SER219      0.2103
    118  OG       -35.7910   -7.2720   -7.8770 O.3   219  SER219     -0.2182
    119  N        -38.9710   -8.0340   -7.8780 N.am  220  SER220     -0.1937
    120  CA       -39.9240   -8.7420   -7.0300 C.3   220  SER220      0.2055
    121  C        -39.3780   -9.0270   -5.6170 C.2   220  SER220      0.2643
    122  O        -39.9820   -8.6420   -4.6110 O.2   220  SER220     -0.2714
    123  CB       -40.4150  -10.0200   -7.7100 C.3   220  SER220      0.2130
    124  OG       -41.3050  -10.7580   -6.8700 O.3   220  SER220     -0.2179
    125  N        -38.2360   -9.7030   -5.5490 N.am  221  ALA221     -0.1963
    126  CA       -37.5720   -9.9920   -4.2760 C.3   221  ALA221      0.1728
    127  C        -36.6490   -8.8740   -3.8690 C.2   221  ALA221      0.2617
    128  O        -36.3060   -8.7480   -2.6990 O.2   221  ALA221     -0.2715
    129  CB       -36.7910  -11.3080   -4.3390 C.3   221  ALA221      0.0334
    130  N        -36.2350   -8.0670   -4.8360 N.am  222  GLY222     -0.1940
    131  CA       -35.2880   -7.0210   -4.5290 C.3   222  GLY222      0.2014
    132  C        -33.8900   -7.6020   -4.4590 C.2   222  GLY222      0.2639
    133  O        -33.0600   -7.0810   -3.7390 O.2   222  GLY222     -0.2714
    134  N        -33.6320   -8.6680   -5.2130 N.am  223  CYS223     -0.1953
    135  CA       -32.3190   -9.3300   -5.2080 C.3   223  CYS223      0.1843
    136  C        -31.6050   -9.2580   -6.5600 C.2   223  CYS223      0.2626
    137  O        -30.8350   -8.3380   -6.8220 O.2   223  CYS223     -0.2714
    138  CB       -32.4350  -10.8080   -4.8030 C.3   223  CYS223      0.0997
    139  SG       -33.2270  -11.1490   -3.2270 S.3   223  CYS223     -0.0797
    140  N        -31.8560  -10.2540   -7.3990 N.am  224  GLY224     -0.1940
    141  CA       -31.1180  -10.4400   -8.6370 C.3   224  GLY224      0.2014
    142  C        -31.1730   -9.2850   -9.6190 C.2   224  GLY224      0.2638
    143  O        -30.1380   -8.7230   -9.9660 O.2   224  GLY224     -0.2714
    144  N        -32.3690   -8.9310  -10.0760 N.am  225  ARG225     -0.1977
    145  CA       -32.5030   -7.8300  -11.0020 C.3   225  ARG225      0.1597
    146  C        -32.1850   -6.4860  -10.3810 C.2   225  ARG225      0.2287
    147  O        -31.6730   -5.5850  -11.0530 O.2   225  ARG225     -0.2864
    148  CB       -33.8850   -7.8230  -11.6150 C.3   225  ARG225      0.0334
    149  CG       -34.0970   -9.0180  -12.5150 C.3   225  ARG225      0.0492
    150  CD       -35.5400   -9.1200  -12.9330 C.3   225  ARG225      0.2205
    151  NE       -36.4000   -9.5810  -11.8470 N.pl3 225  ARG225     -0.0865
    152  CZ       -37.7080   -9.8050  -11.9820 C.cat 225  ARG225      0.5346
    153  NH1      -38.2930   -9.6130  -13.1710 N.pl3 225  ARG225      0.1354
    154  NH2      -38.4160  -10.2490  -10.9450 N.pl3 225  ARG225      0.1354
    155  N        -23.3430   -7.7740   -2.3390 N.3   257  ARG257     -0.1245
    156  CA       -23.9470   -8.9030   -1.6600 C.3   257  ARG257      0.1563
    157  C        -23.8160   -8.8390   -0.1490 C.2   257  ARG257      0.2260
    158  O        -24.4490   -9.6010    0.5760 O.2   257  ARG257     -0.2867
    159  CB       -23.3230  -10.1910   -2.1560 C.3   257  ARG257      0.0307
    160  CG       -23.9220  -10.6790   -3.4440 C.3   257  ARG257      0.0489
    161  CD       -23.7630  -12.1590   -3.4400 C.3   257  ARG257      0.2205
    162  NE       -24.6230  -12.8450   -4.3870 N.pl3 257  ARG257     -0.0865
    163  CZ       -24.9950  -14.1060   -4.2390 C.cat 257  ARG257      0.5346
    164  NH1      -24.6050  -14.7850   -3.1610 N.pl3 257  ARG257      0.1354
    165  NH2      -25.7650  -14.6810   -5.1470 N.pl3 257  ARG257      0.1354
    166  N        -28.1940  -11.8210   -1.9040 N.3   262  ALA262     -0.1245
    167  CA       -28.3070  -12.2870   -3.2810 C.3   262  ALA262      0.1562
    168  C        -28.4840  -11.1600   -4.2940 C.2   262  ALA262      0.2260
    169  O        -29.2060  -11.3150   -5.2790 O.2   262  ALA262     -0.2867
    170  CB       -29.4230  -13.2850   -3.4130 C.3   262  ALA262      0.0290
    171  N        -28.1960  -12.4960   -8.5030 N.3   265  GLN265     -0.1245
    172  CA       -28.6590  -13.7900   -8.0640 C.3   265  GLN265      0.1566
    173  C        -27.9740  -15.0210   -8.6850 C.2   265  GLN265      0.2260
    174  O        -27.6820  -15.9830   -7.9850 O.2   265  GLN265     -0.2867
    175  CB       -30.1680  -13.8590   -8.2410 C.3   265  GLN265      0.0367
    176  CG       -30.7840  -15.1590   -7.7710 C.3   265  GLN265      0.0905
    177  CD       -32.2870  -15.2200   -8.0190 C.2   265  GLN265      0.2608
    178  OE1      -32.8880  -14.2710   -8.5090 O.2   265  GLN265     -0.2717
    179  NE2      -32.8940  -16.3420   -7.6700 N.am  265  GLN265     -0.0878
    180  N        -26.5320  -13.8440  -14.6010 N.3   269  GLN269     -0.1245
    181  CA       -26.5740  -12.3860  -14.4170 C.3   269  GLN269      0.1566
    182  C        -25.1660  -11.8290  -14.1970 C.2   269  GLN269      0.2260
    183  O        -24.8220  -10.7410  -14.6490 O.2   269  GLN269     -0.2867
    184  CB       -27.5150  -12.0180  -13.2640 C.3   269  GLN269      0.0367
    185  CG       -29.0110  -12.1190  -13.6370 C.3   269  GLN269      0.0905
    186  CD       -29.9260  -12.0570  -12.4180 C.2   269  GLN269      0.2608
    187  OE1      -29.4780  -12.2180  -11.2910 O.2   269  GLN269     -0.2717
    188  NE2      -31.2120  -11.8570  -12.6510 N.am  269  GLN269     -0.0878
@<TRIPOS>BOND
     1   183   182    2
     2   180   181    1
     3   105   104    2
     4   181   182    1
     5   181   184    1
     6   104   103    1
     7    97    96    2
     8    94    95    1
     9   185   184    1
    10   185   186    1
    11    96    95    1
    12    96   102   am
    13   153   152    1
    14    95    98    1
    15   103   106    1
    16   103   102    1
    17   150   149    1
    18   150   151    1
    19   106   107    1
    20    98    99    1
    21   188   186   am
    22   149   148    1
    23   186   187    2
    24    73    71    1
    25   152   151    2
    26   152   154    1
    27    63    64    1
    28   107   108    1
    29   148   145    1
    30   108   109    1
    31    99   101   ar
    32    99   100   ar
    33    71    72    1
    34    71    70    2
    35   147   146    2
    36   145   146    1
    37   145   144    1
    38    66    65    2
    39    70    69    1
    40   111   110    1
    41    64    65    1
    42    64    67    1
    43   109   110    2
    44    65    74   am
    45   144   142   am
    46    88    87    1
    47    88    89    1
    48   143   142    2
    49    69    68    1
    50    67    68    1
    51   110   112    1
    52   142   141    1
    53    87    84    1
    54    92    91    1
    55    74    75    1
    56    81    80    1
    57    81    82    1
    58   117   114    1
    59   117   118    1
    60    89    90    1
    61    91    90    2
    62    91    93    1
    63    80    79    1
    64   173   172    1
    65   173   174    2
    66    83    84    1
    67    83    76   am
    68    75    76    1
    69    75    78    1
    70   141   140    1
    71   114   115    1
    72   114   113    1
    73   178   177    2
    74   171   172    1
    75    84    85    1
    76   175   172    1
    77   175   176    1
    78    76    77    2
    79   177   176    1
    80   177   179   am
    81   119   115   am
    82   119   120    1
    83   115   116    2
    84    78    79    1
    85   123   120    1
    86   123   124    1
    87    85    86    2
    88   140   136   am
    89   120   121    1
    90   137   136    2
    91   136   135    1
    92     8     7    2
    93    38    37    1
    94     9     7   am
    95     7     6    1
    96   121   125   am
    97   121   122    2
    98   125   126    1
    99   169   168    2
   100   134   135    1
   101   134   132   am
   102   135   138    1
   103   165   163    1
   104     6     5    1
   105   130   131    1
   106   130   127   am
   107   138   139    1
   108    37    35   ar
   109    37    36   ar
   110   131   132    1
   111    25    24    1
   112   132   133    2
   113   162   163    2
   114   162   161    1
   115   129   126    1
   116   168   167    1
   117   126   127    1
   118   163   164    1
   119    35    33   ar
   120    26    24    1
   121    24    23    2
   122    36    34   ar
   123   127   128    2
   124     5     2    1
   125     1     2    1
   126    23    22    1
   127    22    21    1
   128   160   161    1
   129   160   159    1
   130   170   167    1
   131   167   166    1
   132     2     3    1
   133    33    32   ar
   134    34    32   ar
   135    21    20    1
   136   155   156    1
   137   159   156    1
   138    32    31    1
   139     3     4    2
   140   156   157    1
   141    55    53   ar
   142    20    17    1
   143    62    60    1
   144    31    28    1
   145    54    53   ar
   146    15    14    1
   147    53    52    1
   148    19    18    2
   149   157   158    2
   150    61    60    1
   151    18    17    1
   152    18    27   am
   153    60    57    1
   154    17    16    1
   155    14    11    1
   156    28    27    1
   157    28    29    1
   158    10    11    1
   159    52    49    1
   160    51    50    2
   161    11    12    1
   162    57    56    1
   163    57    58    1
   164    50    56   am
   165    50    49    1
   166    29    39   am
   167    29    30    2
   168    49    48    1
   169    39    40    1
   170    48    41   am
   171    12    13    2
   172    58    59    2
   173    41    40    1
   174    41    42    2
   175    40    43    1
   176    43    44    1
   177    44    45    1
   178    45    46    1
   179    46    47    1
