@<TRIPOS>MOLECULE
tmp/4nndE00.pdb
 144 138 0 0 0
SMALL
GASTEIGER

@<TRIPOS>ATOM
      1  N          5.3700   34.6210   -0.2470 N.3    49  ARG49      -0.1231
      2  CA         5.8700   35.3940   -1.3680 C.3    49  ARG49       0.1694
      3  C          5.3870   36.8560   -1.3320 C.2    49  ARG49       0.2592
      4  O          6.1500   37.7600   -1.6490 O.2    49  ARG49      -0.2718
      5  CB         5.5050   34.6910   -2.6820 C.3    49  ARG49       0.0321
      6  CG         5.9860   35.3680   -3.9690 C.3    49  ARG49       0.0489
      7  CD         5.7950   34.4470   -5.2050 C.3    49  ARG49       0.2205
      8  NE         6.7750   33.3480   -5.2730 N.pl3  49  ARG49      -0.0865
      9  CZ         8.0580   33.4950   -5.6690 C.cat  49  ARG49       0.5346
     10  NH1        8.5390   34.6620   -6.0300 N.pl3  49  ARG49       0.1354
     11  NH2        8.8800   32.4740   -5.7330 N.pl3  49  ARG49       0.1354
     12  N          4.1380   37.0840   -0.9360 N.am   50  TYR50      -0.1962
     13  CA         3.5460   38.4350   -0.9590 C.3    50  TYR50       0.1771
     14  C          2.9000   38.7930    0.3720 C.2    50  TYR50       0.2619
     15  O          2.1900   37.9750    0.9640 O.2    50  TYR50      -0.2715
     16  CB         2.4800   38.5450   -2.0510 C.3    50  TYR50       0.0574
     17  CG         2.9760   38.2510   -3.4450 C.ar   50  TYR50      -0.0198
     18  CD1        3.7200   39.1950   -4.1570 C.ar   50  TYR50      -0.0009
     19  CD2        2.6960   37.0350   -4.0520 C.ar   50  TYR50      -0.0009
     20  CE1        4.1680   38.9240   -5.4410 C.ar   50  TYR50       0.0417
     21  CE2        3.1230   36.7520   -5.3300 C.ar   50  TYR50       0.0417
     22  CZ         3.8680   37.6980   -6.0310 C.ar   50  TYR50       0.1957
     23  OH         4.3090   37.4190   -7.3160 O.3    50  TYR50      -0.2866
     24  N          3.1230   40.0210    0.8210 N.am   51  LYS51      -0.1963
     25  CA         2.5670   40.4860    2.0920 C.3    51  LYS51       0.1728
     26  C          1.0410   40.5350    2.1190 C.2    51  LYS51       0.2616
     27  O          0.4350   40.3320    3.1660 O.2    51  LYS51      -0.2715
     28  CB         3.1540   41.8450    2.4840 C.3    51  LYS51       0.0311
     29  CG         4.6130   41.7580    2.8340 C.3    51  LYS51       0.0038
     30  CD         5.2060   43.1080    3.2110 C.3    51  LYS51       0.0206
     31  CE         6.5890   42.9050    3.8150 C.3    51  LYS51       0.1093
     32  NZ         6.5380   41.8670    4.8990 N.3    51  LYS51      -0.1314
     33  N          0.4250   40.7810    0.9700 N.am   52  ASP52      -0.1957
     34  CA        -1.0360   40.8810    0.8950 C.3    52  ASP52       0.1840
     35  C         -1.7370   39.6060    0.4190 C.2    52  ASP52       0.2621
     36  O         -2.8930   39.6570    0.0100 O.2    52  ASP52      -0.2715
     37  CB        -1.4270   42.0580   -0.0040 C.3    52  ASP52       0.1450
     38  CG        -0.7890   41.9790   -1.3940 C.2    52  ASP52       0.3671
     39  OD1        0.1430   41.1620   -1.5820 O.co2  52  ASP52      -0.2456
     40  OD2       -1.2090   42.7400   -2.2920 O.co2  52  ASP52      -0.2456
     41  N         -1.0420   38.4750    0.4580 N.am   53  VAL53      -0.1977
     42  CA        -1.6360   37.1810    0.0860 C.3    53  VAL53       0.1596
     43  C         -1.3520   36.1410    1.1480 C.2    53  VAL53       0.2287
     44  O         -0.2900   35.5090    1.1490 O.2    53  VAL53      -0.2864
     45  CB        -1.1180   36.6090   -1.2660 C.3    53  VAL53       0.0276
     46  CG1       -1.7560   35.2450   -1.5340 C.3    53  VAL53       0.0022
     47  CG2       -1.4010   37.5560   -2.4220 C.3    53  VAL53       0.0022
     48  N         10.7680   40.0900  -13.0870 N.3   125  ARG125     -0.1245
     49  CA        10.7280   39.6300  -11.7200 C.3   125  ARG125      0.1563
     50  C         10.6980   38.1380  -11.5580 C.2   125  ARG125      0.2260
     51  O         10.0440   37.4520  -12.2890 O.2   125  ARG125     -0.2867
     52  CB         9.5750   40.2660  -10.9530 C.3   125  ARG125      0.0307
     53  CG         9.3670   41.7530  -11.1190 C.3   125  ARG125      0.0489
     54  CD        10.5850   42.5670  -10.7530 C.3   125  ARG125      0.2205
     55  NE        10.6060   43.8520  -11.4640 N.pl3 125  ARG125     -0.0865
     56  CZ        11.6670   44.4390  -12.0180 C.cat 125  ARG125      0.5346
     57  NH1       12.8800   43.9090  -11.9620 N.pl3 125  ARG125      0.1354
     58  NH2       11.5090   45.5910  -12.6230 N.pl3 125  ARG125      0.1354
     59  N          9.2770   35.0670  -10.0680 N.3   127  ARG127     -0.1245
     60  CA         7.9240   34.8750   -9.6170 C.3   127  ARG127      0.1563
     61  C          7.6360   33.4780   -9.1700 C.2   127  ARG127      0.2260
     62  O          6.6150   33.2010   -8.6840 O.2   127  ARG127     -0.2867
     63  CB         6.9690   35.2880  -10.7010 C.3   127  ARG127      0.0307
     64  CG         7.1830   36.6610  -11.1060 C.3   127  ARG127      0.0489
     65  CD         6.1050   37.5810  -10.6290 C.3   127  ARG127      0.2205
     66  NE         6.5880   38.6230   -9.7310 N.pl3 127  ARG127     -0.0865
     67  CZ         5.9120   39.7170   -9.3880 C.cat 127  ARG127      0.5346
     68  NH1        4.7160   39.9610   -9.8650 N.pl3 127  ARG127      0.1354
     69  NH2        6.4230   40.5620   -8.5370 N.pl3 127  ARG127      0.1354
     70  N         -0.4730   37.3330  -15.4090 N.3   184  ASP184     -0.1225
     71  CA        -1.1110   37.9020  -14.2740 C.3   184  ASP184      0.1805
     72  C         -2.2450   38.8440  -14.5170 C.2   184  ASP184      0.2597
     73  O         -2.1070   39.7860  -15.2170 O.2   184  ASP184     -0.2718
     74  CB        -0.0670   38.7610  -13.6420 C.3   184  ASP184      0.1424
     75  CG         0.4410   38.2240  -12.3760 C.2   184  ASP184      0.3668
     76  OD1       -0.1760   37.3400  -11.8240 O.co2 184  ASP184     -0.2456
     77  OD2        1.4910   38.7190  -11.9100 O.co2 184  ASP184     -0.2456
     78  N         -3.3470   38.5990  -13.8580 N.am  185  ARG185     -0.1979
     79  CA        -4.5200   39.4090  -13.9640 C.3   185  ARG185      0.1597
     80  C         -5.1940   39.2780  -15.2850 C.2   185  ARG185      0.2287
     81  O         -6.2210   39.8540  -15.5090 O.2   185  ARG185     -0.2864
     82  CB        -4.1520   40.8270  -13.7550 C.3   185  ARG185      0.0334
     83  CG        -3.3700   41.0120  -12.5940 C.3   185  ARG185      0.0492
     84  CD        -3.1390   42.3740  -12.4260 C.3   185  ARG185      0.2205
     85  NE        -2.5640   42.5880  -11.1420 N.pl3 185  ARG185     -0.0865
     86  CZ        -2.2750   43.7600  -10.6500 C.cat 185  ARG185      0.5346
     87  NH1       -2.5000   44.8560  -11.3450 N.pl3 185  ARG185      0.1354
     88  NH2       -1.7580   43.8150   -9.4640 N.pl3 185  ARG185      0.1354
     89  N          0.3250   29.2750   -9.2540 N.3   216  SER216     -0.1202
     90  CA         0.7680   30.3330  -10.1240 C.3   216  SER216      0.2020
     91  C          1.8200   31.0320   -9.2760 C.2   216  SER216      0.2619
     92  O          2.5470   30.3710   -8.5240 O.2   216  SER216     -0.2717
     93  CB        -0.3980   31.2760  -10.4610 C.3   216  SER216      0.2103
     94  OG        -1.1530   31.5800   -9.2960 O.3   216  SER216     -0.2182
     95  N          1.9180   32.3500   -9.3600 N.am  217  SER217     -0.1937
     96  CA         2.9140   33.0260   -8.5420 C.3   217  SER217      0.2055
     97  C          2.3530   33.2390   -7.1070 C.2   217  SER217      0.2643
     98  O          2.9360   32.7720   -6.1140 O.2   217  SER217     -0.2714
     99  CB         3.3860   34.3150   -9.2060 C.3   217  SER217      0.2130
    100  OG         4.2320   35.0710   -8.3720 O.3   217  SER217     -0.2179
    101  N          1.2070   33.9010   -6.9900 N.am  218  ALA218     -0.1963
    102  CA         0.6010   34.1050   -5.6940 C.3   218  ALA218      0.1728
    103  C         -0.3240   32.9350   -5.3290 C.2   218  ALA218      0.2617
    104  O         -0.6780   32.7400   -4.1790 O.2   218  ALA218     -0.2715
    105  CB        -0.1880   35.4200   -5.6840 C.3   218  ALA218      0.0334
    106  N         -0.7490   32.1640   -6.3170 N.am  219  GLY219     -0.1940
    107  CA        -1.6980   31.1150   -6.0440 C.3   219  GLY219      0.2014
    108  C         -3.0900   31.7150   -5.9360 C.2   219  GLY219      0.2639
    109  O         -3.9340   31.1630   -5.2680 O.2   219  GLY219     -0.2714
    110  N         -3.3350   32.8290   -6.6060 N.am  220  CYS220     -0.1953
    111  CA        -4.6670   33.4120   -6.6370 C.3   220  CYS220      0.1843
    112  C         -5.3780   33.3540   -7.9880 C.2   220  CYS220      0.2626
    113  O         -6.0840   32.3990   -8.2920 O.2   220  CYS220     -0.2714
    114  CB        -4.5970   34.8710   -6.1950 C.3   220  CYS220      0.0997
    115  SG        -3.7870   35.1200   -4.6140 S.3   220  CYS220     -0.0797
    116  N         -5.1990   34.4080   -8.7800 N.am  221  GLY221     -0.1940
    117  CA        -5.9540   34.6090  -10.0070 C.3   221  GLY221      0.2014
    118  C         -5.8740   33.4630  -10.9960 C.2   221  GLY221      0.2638
    119  O         -6.8900   32.8500  -11.3200 O.2   221  GLY221     -0.2714
    120  N         -4.6660   33.1510  -11.4620 N.am  222  ARG222     -0.1977
    121  CA        -4.5260   32.1110  -12.4700 C.3   222  ARG222      0.1597
    122  C         -4.7950   30.7240  -11.9020 C.2   222  ARG222      0.2287
    123  O         -5.2730   29.8190  -12.5990 O.2   222  ARG222     -0.2864
    124  CB        -3.1690   32.1860  -13.1280 C.3   222  ARG222      0.0334
    125  CG        -2.9980   33.4190  -13.9400 C.3   222  ARG222      0.0492
    126  CD        -1.5720   33.5830  -14.4130 C.3   222  ARG222      0.2205
    127  NE        -0.7120   33.9900  -13.3050 N.pl3 222  ARG222     -0.0865
    128  CZ         0.5770   34.2680  -13.4370 C.cat 222  ARG222      0.5346
    129  NH1        1.1600   34.1330  -14.6250 N.pl3 222  ARG222      0.1354
    130  NH2        1.2830   34.6550  -12.3800 N.pl3 222  ARG222      0.1354
    131  N         -8.8690   35.6430   -3.2110 N.3   260  ALA260     -0.1245
    132  CA        -8.8190   36.2120   -4.5390 C.3   260  ALA260      0.1562
    133  C         -8.6380   35.1270   -5.5860 C.2   260  ALA260      0.2260
    134  O         -7.9020   35.3350   -6.5790 O.2   260  ALA260     -0.2867
    135  CB        -7.7090   37.2090   -4.6220 C.3   260  ALA260      0.0290
    136  N         -8.9620   36.6090   -9.7510 N.3   263  GLN263     -0.1245
    137  CA        -8.5060   37.9030   -9.2490 C.3   263  GLN263      0.1566
    138  C         -9.1850   39.1460   -9.8550 C.2   263  GLN263      0.2260
    139  O         -9.4780   40.1020   -9.1610 O.2   263  GLN263     -0.2867
    140  CB        -6.9870   38.0030   -9.4150 C.3   263  GLN263      0.0367
    141  CG        -6.3720   39.2930   -8.9110 C.3   263  GLN263      0.0905
    142  CD        -4.8740   39.3670   -9.2070 C.2   263  GLN263      0.2608
    143  OE1       -4.2860   38.4180   -9.7180 O.2   263  GLN263     -0.2717
    144  NE2       -4.2600   40.4940   -8.8870 N.am  263  GLN263     -0.0878
@<TRIPOS>BOND
     1    81    80    2
     2    70    71    1
     3    80    79    1
     4    73    72    2
     5   129   128    1
     6    72    71    1
     7    72    78   am
     8   126   125    1
     9   126   127    1
    10    71    74    1
    11    79    78    1
    12    79    82    1
    13   125   124    1
    14    82    83    1
    15    74    75    1
    16   128   127    2
    17   128   130    1
    18   124   121    1
    19    48    49    1
    20    58    56    1
    21   123   122    2
    22    83    84    1
    23   121   122    1
    24   121   120    1
    25    84    85    1
    26    75    77   ar
    27    75    76   ar
    28    51    50    2
    29    56    57    1
    30    56    55    2
    31    49    50    1
    32    49    52    1
    33    55    54    1
    34   120   118   am
    35    87    86    1
    36   119   118    2
    37    85    86    2
    38    53    52    1
    39    53    54    1
    40    64    63    1
    41    64    65    1
    42   118   117    1
    43    63    60    1
    44    86    88    1
    45    65    66    1
    46    93    90    1
    47    93    94    1
    48    90    91    1
    49    90    89    1
    50    59    60    1
    51   117   116    1
    52    68    67    1
    53   138   137    1
    54   138   139    2
    55   136   137    1
    56    66    67    2
    57   143   142    2
    58    60    61    1
    59   140   137    1
    60   140   141    1
    61    67    69    1
    62    95    91   am
    63    95    96    1
    64    91    92    2
    65   142   141    1
    66   142   144   am
    67    99    96    1
    68    99   100    1
    69    61    62    2
    70   116   112   am
    71    96    97    1
    72   113   112    2
    73   112   111    1
    74    23    22    1
    75    97   101   am
    76    97    98    2
    77   101   102    1
    78   111   110    1
    79   111   114    1
    80   110   108   am
    81   134   133    2
    82   106   107    1
    83   106   103   am
    84   114   115    1
    85   107   108    1
    86    22    20   ar
    87    22    21   ar
    88    10     9    1
    89   108   109    2
    90    11     9    1
    91   102   105    1
    92   102   103    1
    93     9     8    2
    94   133   132    1
    95    20    18   ar
    96    21    19   ar
    97   103   104    2
    98     8     7    1
    99     7     6    1
   100   135   132    1
   101   132   131    1
   102    18    17   ar
   103    19    17   ar
   104     6     5    1
   105    17    16    1
   106     5     2    1
   107    47    45    1
   108    40    38   ar
   109    16    13    1
   110     4     3    2
   111    39    38   ar
   112    46    45    1
   113    38    37    1
   114     2     3    1
   115     2     1    1
   116     3    12   am
   117    45    42    1
   118    13    12    1
   119    13    14    1
   120    37    34    1
   121    36    35    2
   122    42    41    1
   123    42    43    1
   124    14    24   am
   125    14    15    2
   126    35    41   am
   127    35    34    1
   128    24    25    1
   129    34    33    1
   130    33    26   am
   131    43    44    2
   132    25    26    1
   133    25    28    1
   134    26    27    2
   135    28    29    1
   136    29    30    1
   137    30    31    1
   138    31    32    1
