@<TRIPOS>MOLECULE
tmp/4nnlB00.pdb
 179 176 0 0 0
SMALL
GASTEIGER

@<TRIPOS>ATOM
      1  N         32.3460    6.5220   22.6280 N.3    17  LEU17      -0.1231
      2  CA        31.3280    7.4340   22.1390 C.3    17  LEU17       0.1693
      3  C         30.9100    8.3250   23.2950 C.2    17  LEU17       0.2592
      4  O         30.4250    7.8370   24.3160 O.2    17  LEU17      -0.2718
      5  CB        30.1120    6.6620   21.6410 C.3    17  LEU17       0.0284
      6  CG        30.3210    5.7990   20.3990 C.3    17  LEU17       0.0019
      7  CD1       29.1600    4.8320   20.2240 C.3    17  LEU17       0.0001
      8  CD2       30.4960    6.6760   19.1660 C.3    17  LEU17       0.0001
      9  N         31.0880    9.6270   23.1300 N.am   18  ILE18      -0.1966
     10  CA        30.8810   10.5330   24.2490 C.3    18  ILE18       0.1727
     11  C         29.7150   11.4940   23.9950 C.2    18  ILE18       0.2616
     12  O         29.3270   11.7420   22.8470 O.2    18  ILE18      -0.2715
     13  CB        32.1730   11.2830   24.6290 C.3    18  ILE18       0.0290
     14  CG1       32.6340   12.2030   23.5010 C.3    18  ILE18       0.0022
     15  CG2       33.2930   10.2910   24.9450 C.3    18  ILE18       0.0023
     16  CD1       32.1840   13.6370   23.6490 C.3    18  ILE18       0.0001
     17  N         29.1480   12.0090   25.0880 N.am   19  LEU19      -0.1963
     18  CA        27.9520   12.8340   25.0180 C.3    19  LEU19       0.1728
     19  C         28.2370   14.3240   25.2410 C.2    19  LEU19       0.2617
     20  O         27.4350   15.1790   24.8670 O.2    19  LEU19      -0.2715
     21  CB        26.9270   12.3290   26.0420 C.3    19  LEU19       0.0311
     22  CG        26.3520   10.9230   25.7990 C.3    19  LEU19       0.0022
     23  CD1       27.4180    9.8480   25.9790 C.3    19  LEU19       0.0001
     24  CD2       25.2250   10.6480   26.7570 C.3    19  LEU19       0.0001
     25  N         29.3730   14.6460   25.8570 N.am   20  GLY20      -0.1940
     26  CA        29.7150   16.0420   26.0710 C.3    20  GLY20       0.2014
     27  C         29.0190   16.7080   27.2540 C.2    20  GLY20       0.2639
     28  O         28.7220   17.9020   27.2180 O.2    20  GLY20      -0.2714
     29  N         28.7660   15.9520   28.3140 N.am   21  PHE21      -0.1959
     30  CA        28.2430   16.5950   29.5200 C.3    21  PHE21       0.1771
     31  C         28.6130   15.8060   30.7630 C.2    21  PHE21       0.2620
     32  O         29.1950   14.7330   30.6590 O.2    21  PHE21      -0.2715
     33  CB        26.7230   16.8790   29.4280 C.3    21  PHE21       0.0574
     34  CG        25.8310   15.6640   29.5560 C.ar   21  PHE21      -0.0200
     35  CD1       25.1930   15.3750   30.7660 C.ar   21  PHE21      -0.0042
     36  CD2       25.5350   14.8730   28.4490 C.ar   21  PHE21      -0.0042
     37  CE1       24.3170   14.2930   30.8780 C.ar   21  PHE21      -0.0003
     38  CE2       24.6540   13.7850   28.5530 C.ar   21  PHE21      -0.0003
     39  CZ        24.0390   13.4980   29.7720 C.ar   21  PHE21      -0.0000
     40  N         28.3160   16.3580   31.9380 N.am   22  SER22      -0.1936
     41  CA        28.6370   15.6830   33.1820 C.3    22  SER22       0.2055
     42  C         27.3770   15.5660   34.0250 C.2    22  SER22       0.2643
     43  O         26.4520   16.3690   33.8740 O.2    22  SER22      -0.2714
     44  CB        29.7000   16.4730   33.9600 C.3    22  SER22       0.2130
     45  OG        30.9030   16.5630   33.1840 O.3    22  SER22      -0.2179
     46  N         27.3370   14.5460   34.8790 N.am   23  ILE23      -0.1963
     47  CA        26.1910   14.3340   35.7650 C.3    23  ILE23       0.1727
     48  C         26.5960   14.2790   37.2190 C.2    23  ILE23       0.2617
     49  O         27.7290   13.9070   37.5650 O.2    23  ILE23      -0.2715
     50  CB        25.4370   13.0200   35.4530 C.3    23  ILE23       0.0290
     51  CG1       26.3730   11.8080   35.5290 C.3    23  ILE23       0.0022
     52  CG2       24.7070   13.1050   34.1070 C.3    23  ILE23       0.0023
     53  CD1       25.6490   10.4490   35.5070 C.3    23  ILE23       0.0001
     54  N         25.6390   14.6580   38.0620 N.am   24  GLY24      -0.1940
     55  CA        25.7290   14.5220   39.5010 C.3    24  GLY24       0.2014
     56  C         24.4080   13.9830   40.0140 C.2    24  GLY24       0.2639
     57  O         23.3890   14.0360   39.3100 O.2    24  GLY24      -0.2714
     58  N         24.4260   13.4440   41.2290 N.am   25  GLY25      -0.1954
     59  CA        23.2120   12.9620   41.8680 C.3    25  GLY25       0.1869
     60  C         23.1500   11.4520   41.9590 C.2    25  GLY25       0.2309
     61  O         24.1470   10.7590   41.7420 O.2    25  GLY25      -0.2863
     62  N         23.6940    9.0300   46.7320 N.3    29  GLN29      -0.1231
     63  CA        24.4230   10.2500   47.0550 C.3    29  GLN29       0.1698
     64  C         23.6200   11.1250   48.0160 C.2    29  GLN29       0.2592
     65  O         22.4230   10.9150   48.2100 O.2    29  GLN29      -0.2718
     66  CB        24.7670   11.0270   45.7790 C.3    29  GLN29       0.0381
     67  CG        25.6190   10.2470   44.7770 C.3    29  GLN29       0.0905
     68  CD        26.9860    9.8790   45.3230 C.2    29  GLN29       0.2608
     69  OE1       27.6310   10.6730   46.0120 O.2    29  GLN29      -0.2717
     70  NE2       27.4390    8.6710   45.0130 N.am   29  GLN29      -0.0878
     71  N         24.2900   12.1000   48.6190 N.am   30  ASP30      -0.1974
     72  CA        23.6430   13.0230   49.5440 C.3    30  ASP30       0.1709
     73  C         22.9710   14.1340   48.7420 C.2    30  ASP30       0.2293
     74  O         23.6560   14.9890   48.1750 O.2    30  ASP30      -0.2864
     75  CB        24.6990   13.5960   50.4960 C.3    30  ASP30       0.1436
     76  CG        24.1440   14.6540   51.4360 C.2    30  ASP30       0.3671
     77  OD1       22.9290   14.9280   51.3970 O.co2  30  ASP30      -0.2456
     78  OD2       24.9330   15.2220   52.2160 O.co2  30  ASP30      -0.2456
     79  N         23.7150   18.0750   48.8420 N.3    33  GLN33      -0.1231
     80  CA        24.9520   18.6120   48.2640 C.3    33  GLN33       0.1698
     81  C         24.7680   19.0790   46.8200 C.2    33  GLN33       0.2592
     82  O         25.6730   19.6650   46.2220 O.2    33  GLN33      -0.2718
     83  CB        26.0510   17.5490   48.2970 C.3    33  GLN33       0.0381
     84  CG        26.3140   16.9610   49.6680 C.3    33  GLN33       0.0905
     85  CD        27.0270   17.9340   50.5860 C.2    33  GLN33       0.2608
     86  OE1       27.6030   18.9240   50.1330 O.2    33  GLN33      -0.2717
     87  NE2       26.9710   17.6690   51.8880 N.am   33  GLN33      -0.0878
     88  N         23.5950   18.8110   46.2630 N.am   34  ASN34      -0.1961
     89  CA        23.3130   19.1310   44.8700 C.3    34  ASN34       0.1804
     90  C         22.8450   20.5790   44.7360 C.2    34  ASN34       0.2463
     91  O         21.7820   20.9300   45.2310 O.2    34  ASN34      -0.2730
     92  CB        22.2500   18.1560   44.3720 C.3    34  ASN34       0.1195
     93  CG        21.8770   18.3590   42.9160 C.2    34  ASN34       0.2630
     94  OD1       22.1990   19.3740   42.3060 O.2    34  ASN34      -0.2716
     95  ND2       21.1660   17.3830   42.3570 N.am   34  ASN34      -0.0877
     96  N         23.6450   21.4360   44.0840 N.am   35  PRO35      -0.2716
     97  CA        23.2600   22.8500   44.0130 C.3    35  PRO35       0.1536
     98  C         22.1920   23.1540   42.9610 C.2    35  PRO35       0.2598
     99  O         21.6950   24.2810   42.9140 O.2    35  PRO35      -0.2715
    100  CB        24.5710   23.5430   43.6440 C.3    35  PRO35       0.0310
    101  CG        25.3070   22.5220   42.8380 C.3    35  PRO35       0.0237
    102  CD        24.9470   21.1790   43.4390 C.3    35  PRO35       0.0939
    103  N         21.8390   22.1630   42.1400 N.am   36  PHE36      -0.1974
    104  CA        20.9940   22.3990   40.9640 C.3    36  PHE36       0.1639
    105  C         19.5140   22.1200   41.1900 C.2    36  PHE36       0.2290
    106  O         18.6590   22.6350   40.4680 O.2    36  PHE36      -0.2864
    107  CB        21.4980   21.5740   39.7700 C.3    36  PHE36       0.0560
    108  CG        22.8630   21.9590   39.3120 C.ar   36  PHE36      -0.0200
    109  CD1       23.0470   23.1100   38.5760 C.ar   36  PHE36      -0.0042
    110  CD2       23.9620   21.1810   39.6270 C.ar   36  PHE36      -0.0042
    111  CE1       24.3020   23.4840   38.1540 C.ar   36  PHE36      -0.0003
    112  CE2       25.2300   21.5520   39.2180 C.ar   36  PHE36      -0.0003
    113  CZ        25.3980   22.7080   38.4730 C.ar   36  PHE36      -0.0000
    114  N         21.2710   15.0040   37.7110 N.3    46  TYR46      -0.1241
    115  CA        21.3100   16.3490   37.1530 C.3    46  TYR46       0.1605
    116  C         22.5170   16.5570   36.2490 C.2    46  TYR46       0.2264
    117  O         23.6060   16.0290   36.5050 O.2    46  TYR46      -0.2867
    118  CB        21.3390   17.4010   38.2760 C.3    46  TYR46       0.0534
    119  CG        19.9820   17.6520   38.8960 C.ar   46  TYR46      -0.0201
    120  CD1       19.2770   18.8150   38.6100 C.ar   46  TYR46      -0.0009
    121  CD2       19.3960   16.7150   39.7350 C.ar   46  TYR46      -0.0009
    122  CE1       18.0200   19.0510   39.1560 C.ar   46  TYR46       0.0417
    123  CE2       18.1310   16.9480   40.3040 C.ar   46  TYR46       0.0417
    124  CZ        17.4670   18.1160   39.9970 C.ar   46  TYR46       0.1957
    125  OH        16.2180   18.3530   40.5350 O.3    46  TYR46      -0.2866
    126  N         25.4770   18.6400   35.2950 N.3    48  THR48      -0.1203
    127  CA        26.2550   19.5510   36.1240 C.3    48  THR48       0.1994
    128  C         27.2150   20.4170   35.3070 C.2    48  THR48       0.2617
    129  O         27.8030   21.3780   35.8200 O.2    48  THR48      -0.2717
    130  CB        27.0330   18.7650   37.1780 C.3    48  THR48       0.1784
    131  OG1       27.9060   17.8280   36.5260 O.3    48  THR48      -0.2211
    132  CG2       26.0650   18.0110   38.0920 C.3    48  THR48       0.0376
    133  N         27.3670   20.0740   34.0350 N.am   49  ARG49      -0.1979
    134  CA        28.2780   20.7830   33.1580 C.3    49  ARG49       0.1597
    135  C         27.9690   20.3340   31.7400 C.2    49  ARG49       0.2287
    136  O         27.5890   19.1820   31.5110 O.2    49  ARG49      -0.2864
    137  CB        29.7340   20.4590   33.5360 C.3    49  ARG49       0.0334
    138  CG        30.8010   21.3110   32.8510 C.3    49  ARG49       0.0492
    139  CD        32.2050   20.9920   33.4060 C.3    49  ARG49       0.2205
    140  NE        32.3760   19.5560   33.5950 N.pl3  49  ARG49      -0.0865
    141  CZ        33.2070   18.9920   34.4720 C.cat  49  ARG49       0.5346
    142  NH1       33.9810   19.7430   35.2580 N.pl3  49  ARG49       0.1354
    143  NH2       33.2600   17.6660   34.5660 N.pl3  49  ARG49       0.1354
    144  N         24.1020    6.7110   41.0970 N.3    80  HIS80      -0.1241
    145  CA        24.9540    7.5100   40.2270 C.3    80  HIS80       0.1621
    146  C         25.5790    6.6400   39.1280 C.2    80  HIS80       0.2264
    147  O         25.5570    6.9880   37.9380 O.2    80  HIS80      -0.2867
    148  CB        26.0520    8.1730   41.0600 C.3    80  HIS80       0.0745
    149  CG        26.8990    9.1330   40.2860 C.ar   80  HIS80       0.0817
    150  ND1       26.6860   10.4920   40.3130 N.ar   80  HIS80      -0.2268
    151  CD2       27.9530    8.9270   39.4640 C.ar   80  HIS80       0.1154
    152  CE1       27.5750   11.0870   39.5320 C.ar   80  HIS80       0.1986
    153  NE2       28.3580   10.1630   39.0130 N.ar   80  HIS80      -0.2212
    154  N         25.2830    6.6260   35.0160 N.3    84  ARG84      -0.1245
    155  CA        26.4650    6.7070   34.1690 C.3    84  ARG84       0.1563
    156  C         26.4790    5.5820   33.1340 C.2    84  ARG84       0.2260
    157  O         26.7510    5.8150   31.9540 O.2    84  ARG84      -0.2867
    158  CB        27.7350    6.6650   35.0220 C.3    84  ARG84       0.0307
    159  CG        29.0180    6.7710   34.2220 C.3    84  ARG84       0.0489
    160  CD        30.2460    6.4960   35.0760 C.3    84  ARG84       0.2205
    161  NE        30.2200    5.1530   35.6540 N.pl3  84  ARG84      -0.0865
    162  CZ        30.5890    4.0510   35.0050 C.cat  84  ARG84       0.5346
    163  NH1       31.0110    4.1200   33.7500 N.pl3  84  ARG84       0.1354
    164  NH2       30.5350    2.8720   35.6070 N.pl3  84  ARG84       0.1354
    165  N         23.8050    5.9630   30.3230 N.3    87  LEU87      -0.1231
    166  CA        24.1580    7.0020   29.3610 C.3    87  LEU87       0.1693
    167  C         25.2950    6.6120   28.4220 C.2    87  LEU87       0.2592
    168  O         25.4540    7.2270   27.3690 O.2    87  LEU87      -0.2718
    169  CB        24.5230    8.2940   30.0900 C.3    87  LEU87       0.0284
    170  CG        23.3380    9.0130   30.7190 C.3    87  LEU87       0.0019
    171  CD1       23.8270   10.0050   31.7740 C.3    87  LEU87       0.0001
    172  CD2       22.5180    9.6980   29.6510 C.3    87  LEU87       0.0001
    173  N         26.0830    5.6080   28.8110 N.am   88  THR88      -0.1953
    174  CA        27.3060    5.2730   28.0880 C.3    88  THR88       0.1897
    175  C         27.3410    3.8580   27.5110 C.2    88  THR88       0.2313
    176  O         28.4120    3.2670   27.3570 O.2    88  THR88      -0.2863
    177  CB        28.5600    5.5140   28.9570 C.3    88  THR88       0.1794
    178  OG1       28.5070    4.7050   30.1410 O.3    88  THR88      -0.2208
    179  CG2       28.6500    6.9810   29.3560 C.3    88  THR88       0.0378
@<TRIPOS>BOND
     1     8     6    1
     2     7     6    1
     3     6     5    1
     4     5     2    1
     5     2     1    1
     6     2     3    1
     7    12    11    2
     8     9     3   am
     9     9    10    1
    10     3     4    2
    11    14    16    1
    12    14    13    1
    13    11    10    1
    14    11    17   am
    15    10    13    1
    16    13    15    1
    17    20    19    2
    18    18    17    1
    19    18    19    1
    20    18    21    1
    21    19    25   am
    22    22    23    1
    23    22    21    1
    24    22    24    1
    25    25    26    1
    26    26    27    1
    27    28    27    2
    28    27    29   am
    29   176   175    2
    30   168   167    2
    31   175   174    1
    32   174   173    1
    33   174   177    1
    34    29    30    1
    35   167   173   am
    36   167   166    1
    37    36    38   ar
    38    36    34   ar
    39    38    39   ar
    40   177   179    1
    41   177   178    1
    42   166   169    1
    43   166   165    1
    44    33    30    1
    45    33    34    1
    46    30    31    1
    47    34    35   ar
    48   172   170    1
    49    39    37   ar
    50   169   170    1
    51    32    31    2
    52   170   171    1
    53    31    40   am
    54    35    37   ar
    55   136   135    2
    56   135   134    1
    57    40    41    1
    58   157   156    2
    59   138   139    1
    60   138   137    1
    61   156   155    1
    62   134   137    1
    63   134   133    1
    64    41    44    1
    65    41    42    1
    66    45    44    1
    67   139   140    1
    68   140   141    2
    69   163   162    1
    70    43    42    2
    71    42    46   am
    72   133   128   am
    73    52    50    1
    74   155   154    1
    75   155   158    1
    76   159   158    1
    77   159   160    1
    78   141   143    1
    79   141   142    1
    80    46    47    1
    81   162   164    1
    82   162   161    2
    83   160   161    1
    84   126   127    1
    85   128   129    2
    86   128   127    1
    87    50    51    1
    88    50    47    1
    89    53    51    1
    90    47    48    1
    91   127   130    1
    92   116   117    2
    93   116   115    1
    94   131   130    1
    95   115   114    1
    96   115   118    1
    97   130   132    1
    98    48    49    2
    99    48    54   am
   100   147   146    2
   101    54    55    1
   102   111   113   ar
   103   111   109   ar
   104   118   119    1
   105   113   112   ar
   106   109   108   ar
   107   120   119   ar
   108   120   122   ar
   109   119   121   ar
   110   153   151   ar
   111   153   152   ar
   112   146   145    1
   113   122   124   ar
   114   112   110   ar
   115    57    56    2
   116   108   110   ar
   117   108   107    1
   118   151   149   ar
   119    55    56    1
   120   152   150   ar
   121   121   123   ar
   122   107   104    1
   123   124   123   ar
   124   124   125    1
   125    56    58   am
   126   145   148    1
   127   145   144    1
   128   149   150   ar
   129   149   148    1
   130   106   105    2
   131   104   105    1
   132   104   103    1
   133    58    59    1
   134    61    60    2
   135    59    60    1
   136   103    98   am
   137    94    93    2
   138    95    93   am
   139   101   102    1
   140   101   100    1
   141    99    98    2
   142    93    92    1
   143    98    97    1
   144   102    96    1
   145   100    97    1
   146    97    96    1
   147    96    90   am
   148    92    89    1
   149    90    89    1
   150    90    91    2
   151    67    68    1
   152    67    66    1
   153    89    88    1
   154    70    68   am
   155    68    69    2
   156    66    63    1
   157    82    81    2
   158    88    81   am
   159    62    63    1
   160    81    80    1
   161    63    64    1
   162    64    65    2
   163    64    71   am
   164    74    73    2
   165    80    83    1
   166    80    79    1
   167    83    84    1
   168    71    72    1
   169    73    72    1
   170    72    75    1
   171    84    85    1
   172    86    85    2
   173    75    76    1
   174    85    87   am
   175    77    76   ar
   176    76    78   ar
