@<TRIPOS>MOLECULE
tmp/4nnrA00.pdb
 153 150 0 0 0
SMALL
GASTEIGER

@<TRIPOS>ATOM
      1  N          9.1560   36.5290    7.9080 N.3    16  TYR16      -0.1241
      2  CA         9.2450   35.2980    8.6750 C.3    16  TYR16       0.1605
      3  C          8.9930   35.4680   10.1460 C.2    16  TYR16       0.2264
      4  O          9.1090   36.5500   10.7080 O.2    16  TYR16      -0.2867
      5  CB        10.6150   34.6430    8.4740 C.3    16  TYR16       0.0534
      6  CG        11.7280   35.3650    9.1600 C.ar   16  TYR16      -0.0201
      7  CD1       12.1000   35.0080   10.4330 C.ar   16  TYR16      -0.0009
      8  CD2       12.4000   36.4200    8.5490 C.ar   16  TYR16      -0.0009
      9  CE1       13.0980   35.6470   11.0840 C.ar   16  TYR16       0.0417
     10  CE2       13.4140   37.0810    9.2150 C.ar   16  TYR16       0.0417
     11  CZ        13.7580   36.6830   10.4790 C.ar   16  TYR16       0.1957
     12  OH        14.7630   37.3020   11.1900 O.3    16  TYR16      -0.2866
     13  N         11.3550   33.4140   18.6990 N.3    26  PHE26      -0.1227
     14  CA        12.6870   34.0040   18.9090 C.3    26  PHE26       0.1736
     15  C         13.0490   35.1470   17.9530 C.2    26  PHE26       0.2595
     16  O         14.0030   35.8730   18.2050 O.2    26  PHE26      -0.2718
     17  CB        13.7730   32.9370   18.8370 C.3    26  PHE26       0.0547
     18  CG        13.9430   32.2880   17.4870 C.ar   26  PHE26      -0.0202
     19  CD1       13.4520   31.0160   17.2620 C.ar   26  PHE26      -0.0042
     20  CD2       14.6650   32.9110   16.4720 C.ar   26  PHE26      -0.0042
     21  CE1       13.6310   30.3930   16.0270 C.ar   26  PHE26      -0.0003
     22  CE2       14.8490   32.3070   15.2380 C.ar   26  PHE26      -0.0003
     23  CZ        14.3350   31.0410   15.0120 C.ar   26  PHE26      -0.0000
     24  N         12.2860   35.3120   16.8770 N.am   27  ASP27      -0.1974
     25  CA        12.5420   36.3790   15.9170 C.3    27  ASP27       0.1709
     26  C         11.4220   36.4710   14.9210 C.2    27  ASP27       0.2293
     27  O         10.7770   35.4790   14.5770 O.2    27  ASP27      -0.2864
     28  CB        13.8540   36.1590   15.1590 C.3    27  ASP27       0.1436
     29  CG        14.3700   37.4340   14.4920 C.2    27  ASP27       0.3671
     30  OD1       13.8540   38.5330   14.8020 O.co2  27  ASP27      -0.2456
     31  OD2       15.3190   37.3390   13.6780 O.co2  27  ASP27      -0.2456
     32  N         12.9940   40.5060    4.9770 N.3    36  PHE36      -0.1241
     33  CA        14.3440   39.9950    4.8790 C.3    36  PHE36       0.1605
     34  C         14.6130   39.7090    3.4100 C.2    36  PHE36       0.2264
     35  O         13.7550   39.1760    2.7200 O.2    36  PHE36      -0.2867
     36  CB        14.4610   38.7470    5.7500 C.3    36  PHE36       0.0534
     37  CG        15.7470   38.0040    5.6010 C.ar   36  PHE36      -0.0203
     38  CD1       15.7760   36.7910    4.9380 C.ar   36  PHE36      -0.0042
     39  CD2       16.9170   38.4940    6.1580 C.ar   36  PHE36      -0.0042
     40  CE1       16.9540   36.0880    4.7930 C.ar   36  PHE36      -0.0003
     41  CE2       18.1040   37.7880    6.0350 C.ar   36  PHE36      -0.0003
     42  CZ        18.1300   36.5850    5.3430 C.ar   36  PHE36      -0.0000
     43  N         24.1200   30.0240   -0.0600 N.3    43  GLY43      -0.1210
     44  CA        24.7460   29.7890    1.2350 C.3    43  GLY43       0.1956
     45  C         24.7570   31.0050    2.1580 C.2    43  GLY43       0.2612
     46  O         25.4700   31.0580    3.1650 O.2    43  GLY43      -0.2717
     47  N         23.9240   31.9830    1.8430 N.am   44  GLN44      -0.1965
     48  CA        23.7790   33.1730    2.6710 C.3    44  GLN44       0.1733
     49  C         23.0300   32.8440    3.9870 C.2    44  GLN44       0.2616
     50  O         23.2300   33.4930    5.0280 O.2    44  GLN44      -0.2715
     51  CB        23.0460   34.2500    1.8490 C.3    44  GLN44       0.0408
     52  CG        22.7790   35.5430    2.5740 C.3    44  GLN44       0.0908
     53  CD        22.2320   36.6140    1.6490 C.2    44  GLN44       0.2608
     54  OE1       22.0570   36.3870    0.4490 O.2    44  GLN44      -0.2717
     55  NE2       21.9550   37.7920    2.2050 N.am   44  GLN44      -0.0878
     56  N         22.2070   31.7970    3.9330 N.am   45  VAL45      -0.1963
     57  CA        21.3250   31.4260    5.0260 C.3    45  VAL45       0.1727
     58  C         21.5170   29.9560    5.3970 C.2    45  VAL45       0.2616
     59  O         22.1670   29.1860    4.6870 O.2    45  VAL45      -0.2715
     60  CB        19.8220   31.6770    4.6840 C.3    45  VAL45       0.0290
     61  CG1       19.5130   33.1510    4.6290 C.3    45  VAL45       0.0023
     62  CG2       19.4200   30.9900    3.3810 C.3    45  VAL45       0.0023
     63  N         20.9730   29.5670    6.5300 N.am   46  ILE46      -0.1963
     64  CA        21.1080   28.1790    6.9650 C.3    46  ILE46       0.1727
     65  C         20.5550   27.2460    5.8770 C.2    46  ILE46       0.2616
     66  O         19.7300   27.6600    5.0500 O.2    46  ILE46      -0.2715
     67  CB        20.4000   27.9710    8.3050 C.3    46  ILE46       0.0290
     68  CG1       18.9260   28.4100    8.2370 C.3    46  ILE46       0.0022
     69  CG2       21.1040   28.7800    9.3600 C.3    46  ILE46       0.0023
     70  CD1       18.1340   28.1360    9.5120 C.3    46  ILE46       0.0001
     71  N         21.0240   26.0040    5.8700 N.am   47  LYS47      -0.1977
     72  CA        20.7350   25.0600    4.8020 C.3    47  LYS47       0.1596
     73  C         19.2600   24.7800    4.6710 C.2    47  LYS47       0.2287
     74  O         18.7730   24.5960    3.5650 O.2    47  LYS47      -0.2864
     75  CB        21.4890   23.7490    5.0260 C.3    47  LYS47       0.0298
     76  CG        22.9940   23.8970    4.9450 C.3    47  LYS47       0.0038
     77  CD        23.5640   23.6000    3.5580 C.3    47  LYS47       0.0206
     78  CE        24.8620   22.7840    3.6450 C.3    47  LYS47       0.1093
     79  NZ        24.7070   21.4820    4.4110 N.3    47  LYS47      -0.1314
     80  N         16.7890   26.7060    5.0110 N.3    49  TRP49      -0.1241
     81  CA        16.1500   27.7270    4.1860 C.3    49  TRP49       0.1605
     82  C         16.4820   27.5070    2.7110 C.2    49  TRP49       0.2264
     83  O         15.5810   27.4460    1.8940 O.2    49  TRP49      -0.2867
     84  CB        16.5690   29.1340    4.6380 C.3    49  TRP49       0.0550
     85  CG        15.6770   29.7230    5.6690 C.ar   49  TRP49       0.0003
     86  CD1       15.3200   29.1630    6.8600 C.ar   49  TRP49       0.0946
     87  CD2       15.0310   31.0120    5.6230 C.ar   49  TRP49       0.0152
     88  NE1       14.4930   30.0220    7.5560 N.ar   49  TRP49      -0.2442
     89  CE2       14.2930   31.1450    6.8160 C.ar   49  TRP49       0.0810
     90  CE3       15.0060   32.0520    4.6890 C.ar   49  TRP49       0.0012
     91  CZ2       13.5390   32.3040    7.1020 C.ar   49  TRP49       0.0191
     92  CZ3       14.2570   33.1920    4.9720 C.ar   49  TRP49       0.0001
     93  CH2       13.5320   33.3030    6.1710 C.ar   49  TRP49       0.0015
     94  N         20.4190   23.6820   10.5310 N.3    71  GLY71      -0.1210
     95  CA        20.2570   24.9660   11.2010 C.3    71  GLY71       0.1956
     96  C         21.5740   25.3780   11.8190 C.2    71  GLY71       0.2611
     97  O         22.5410   25.5480   11.0990 O.2    71  GLY71      -0.2717
     98  N         21.6350   25.4660   13.1410 N.am   72  TYR72      -0.1976
     99  CA        22.8330   25.9630   13.8130 C.3    72  TYR72       0.1639
    100  C         23.6450   24.8660   14.5320 C.2    72  TYR72       0.2290
    101  O         24.5680   25.1500   15.3010 O.2    72  TYR72      -0.2864
    102  CB        22.4160   27.0600   14.7720 C.3    72  TYR72       0.0560
    103  CG        21.8900   28.2670   14.0160 C.ar   72  TYR72      -0.0198
    104  CD1       20.5260   28.4930   13.8940 C.ar   72  TYR72      -0.0009
    105  CD2       22.7590   29.1510   13.3910 C.ar   72  TYR72      -0.0009
    106  CE1       20.0440   29.5600   13.2130 C.ar   72  TYR72       0.0417
    107  CE2       22.2840   30.2380   12.6900 C.ar   72  TYR72       0.0417
    108  CZ        20.9110   30.4400   12.6110 C.ar   72  TYR72       0.1957
    109  OH        20.3980   31.5110   11.8970 O.3    72  TYR72      -0.2866
    110  N         26.4160   24.0580   18.2960 N.3    75  ARG75      -0.1245
    111  CA        26.7620   25.2800   19.0320 C.3    75  ARG75       0.1563
    112  C         25.5830   26.2480   19.1230 C.2    75  ARG75       0.2260
    113  O         25.5290   27.1210   19.9930 O.2    75  ARG75      -0.2867
    114  CB        27.9660   25.9890   18.4090 C.3    75  ARG75       0.0307
    115  CG        27.8420   26.3510   16.9600 C.3    75  ARG75       0.0489
    116  CD        28.7940   27.5180   16.6320 C.3    75  ARG75       0.2205
    117  NE        29.0060   27.6850   15.1910 N.pl3  75  ARG75      -0.0865
    118  CZ        28.0830   28.1100   14.3250 C.cat  75  ARG75       0.5346
    119  NH1       26.8420   28.4100   14.7230 N.pl3  75  ARG75       0.1354
    120  NH2       28.3990   28.2090   13.0380 N.pl3  75  ARG75       0.1354
    121  N         23.1080   29.3400   18.3990 N.3    77  ALA77      -0.1245
    122  CA        23.2390   30.7360   18.0600 C.3    77  ALA77       0.1562
    123  C         22.8260   31.5240   19.2930 C.2    77  ALA77       0.2260
    124  O         21.7510   32.1450   19.3250 O.2    77  ALA77      -0.2867
    125  CB        22.3770   31.0900   16.8540 C.3    77  ALA77       0.0290
    126  N         19.6480   33.3020   21.4440 N.3    80  LYS80      -0.1231
    127  CA        18.2680   33.0080   21.0990 C.3    80  LYS80       0.1693
    128  C         18.0560   31.5630   20.7420 C.2    80  LYS80       0.2591
    129  O         16.9280   31.0740   20.8220 O.2    80  LYS80      -0.2718
    130  CB        17.7640   33.8870   19.9540 C.3    80  LYS80       0.0285
    131  CG        18.8040   34.5320   19.0910 C.3    80  LYS80       0.0035
    132  CD        18.1260   35.3120   17.9690 C.3    80  LYS80       0.0206
    133  CE        17.3910   36.5260   18.4920 C.3    80  LYS80       0.1093
    134  NZ        16.8330   37.3480   17.4020 N.3    80  LYS80      -0.1314
    135  N         19.1240   30.8760   20.3550 N.am   81  ILE81      -0.1980
    136  CA        18.9800   29.5170   19.8720 C.3    81  ILE81       0.1595
    137  C         19.9720   28.6070   20.5760 C.2    81  ILE81       0.2287
    138  O         21.1610   28.8380   20.5160 O.2    81  ILE81      -0.2864
    139  CB        19.1680   29.4690   18.3540 C.3    81  ILE81       0.0276
    140  CG1       18.0250   30.2380   17.6890 C.3    81  ILE81       0.0022
    141  CG2       19.2000   28.0300   17.8650 C.3    81  ILE81       0.0022
    142  CD1       18.1270   30.3490   16.2040 C.3    81  ILE81       0.0001
    143  N          9.9930   27.7090   11.2150 N.3    89  PHE89      -0.1241
    144  CA         9.7790   28.9990   10.5740 C.3    89  PHE89       0.1605
    145  C          8.4830   28.9960    9.7700 C.2    89  PHE89       0.2264
    146  O          8.2180   28.0790    8.9870 O.2    89  PHE89      -0.2867
    147  CB        10.9380   29.3730    9.6360 C.3    89  PHE89       0.0534
    148  CG        12.2400   29.6590   10.3270 C.ar   89  PHE89      -0.0203
    149  CD1       13.1680   28.6490   10.5470 C.ar   89  PHE89      -0.0042
    150  CD2       12.5600   30.9630   10.7000 C.ar   89  PHE89      -0.0042
    151  CE1       14.4290   28.9300   11.1580 C.ar   89  PHE89      -0.0003
    152  CE2       13.7860   31.2730   11.2930 C.ar   89  PHE89      -0.0003
    153  CZ        14.7320   30.2520   11.5290 C.ar   89  PHE89      -0.0000
@<TRIPOS>BOND
     1    43    44    1
     2    54    53    2
     3    44    45    1
     4    53    55   am
     5    53    52    1
     6    47    45   am
     7    47    48    1
     8    51    52    1
     9    51    48    1
    10    83    82    2
    11    45    46    2
    12    48    49    1
    13    82    81    1
    14    35    34    2
    15    62    60    1
    16    34    33    1
    17    77    78    1
    18    77    76    1
    19    74    73    2
    20    78    79    1
    21    56    49   am
    22    56    57    1
    23    49    50    2
    24    81    84    1
    25    81    80    1
    26    61    60    1
    27    84    85    1
    28    73    72    1
    29    60    57    1
    30    59    58    2
    31    90    92   ar
    32    90    87   ar
    33    40    38   ar
    34    40    42   ar
    35    72    75    1
    36    72    71    1
    37    33    32    1
    38    33    36    1
    39    38    37   ar
    40    76    75    1
    41    92    93   ar
    42    57    58    1
    43    66    65    2
    44    42    41   ar
    45    58    63   am
    46    37    36    1
    47    37    39   ar
    48    87    85   ar
    49    87    89   ar
    50    85    86   ar
    51    71    65   am
    52    65    64    1
    53    41    39   ar
    54    93    91   ar
    55    63    64    1
    56    89    91   ar
    57    89    88   ar
    58    86    88   ar
    59    64    67    1
    60     1     2    1
    61    68    67    1
    62    68    70    1
    63    67    69    1
    64     5     2    1
    65     5     6    1
    66     8     6   ar
    67     8    10   ar
    68     2     3    1
    69   146   145    2
    70     6     7   ar
    71    10    11   ar
    72   147   148    1
    73   147   144    1
    74   145   144    1
    75     3     4    2
    76   148   149   ar
    77   148   150   ar
    78     7     9   ar
    79    11     9   ar
    80    11    12    1
    81    94    95    1
    82   149   151   ar
    83   144   143    1
    84   150   152   ar
    85    97    96    2
    86   151   153   ar
    87    95    96    1
    88   152   153   ar
    89    96    98   am
    90   109   108    1
    91   108   107   ar
    92   108   106   ar
    93   107   105   ar
    94   120   118    1
    95    98    99    1
    96   106   104   ar
    97   105   103   ar
    98    31    29   ar
    99    99   100    1
   100    99   102    1
   101   104   103   ar
   102   103   102    1
   103   118   119    1
   104   118   117    2
   105    29    30   ar
   106    29    28    1
   107   100   101    2
   108    27    26    2
   109    26    25    1
   110    23    22   ar
   111    23    21   ar
   112    28    25    1
   113   117   116    1
   114    22    20   ar
   115    25    24    1
   116    21    19   ar
   117   142   140    1
   118    20    18   ar
   119   116   115    1
   120   125   122    1
   121    24    15   am
   122   115   114    1
   123    19    18   ar
   124   134   133    1
   125    18    17    1
   126   140   139    1
   127   141   139    1
   128    15    16    2
   129    15    14    1
   130   132   133    1
   131   132   131    1
   132   122   121    1
   133   122   123    1
   134   110   111    1
   135   139   136    1
   136   114   111    1
   137    13    14    1
   138    17    14    1
   139   111   112    1
   140   131   130    1
   141   112   113    2
   142   123   124    2
   143   136   135    1
   144   136   137    1
   145   130   127    1
   146   135   128   am
   147   138   137    2
   148   128   129    2
   149   128   127    1
   150   127   126    1
