@<TRIPOS>MOLECULE
tmp/4nnsA00.pdb
 230 212 0 0 0
SMALL
GASTEIGER

@<TRIPOS>ATOM
      1  N        -10.5110   -1.1690  -21.3000 N.3    19  PHE19      -0.1241
      2  CA        -9.6770   -0.0000  -21.5830 C.3    19  PHE19       0.1605
      3  C         -9.2910    0.1030  -23.0680 C.2    19  PHE19       0.2264
      4  O         -9.2120    1.2000  -23.6110 O.2    19  PHE19      -0.2867
      5  CB        -8.4320   -0.0120  -20.6900 C.3    19  PHE19       0.0534
      6  CG        -7.6880    1.3010  -20.6500 C.ar   19  PHE19      -0.0203
      7  CD1       -8.3440    2.4710  -20.3180 C.ar   19  PHE19      -0.0042
      8  CD2       -6.3290    1.3520  -20.9190 C.ar   19  PHE19      -0.0042
      9  CE1       -7.6580    3.6830  -20.2630 C.ar   19  PHE19      -0.0003
     10  CE2       -5.6400    2.5540  -20.8620 C.ar   19  PHE19      -0.0003
     11  CZ        -6.3110    3.7220  -20.5440 C.ar   19  PHE19      -0.0000
     12  N        -12.2660    1.5720  -24.7820 N.3    22  TYR22      -0.1227
     13  CA       -12.3620    2.9770  -24.4320 C.3    22  TYR22       0.1736
     14  C        -11.3760    3.7670  -25.2730 C.2    22  TYR22       0.2595
     15  O        -11.7330    4.7780  -25.8750 O.2    22  TYR22      -0.2718
     16  CB       -12.0990    3.1980  -22.9350 C.3    22  TYR22       0.0548
     17  CG       -11.8900    4.6530  -22.5830 C.ar   22  TYR22      -0.0200
     18  CD1      -12.9680    5.5210  -22.4670 C.ar   22  TYR22      -0.0009
     19  CD2      -10.6110    5.1600  -22.3910 C.ar   22  TYR22      -0.0009
     20  CE1      -12.7750    6.8570  -22.1560 C.ar   22  TYR22       0.0417
     21  CE2      -10.4070    6.4880  -22.0840 C.ar   22  TYR22       0.0417
     22  CZ       -11.4860    7.3300  -21.9700 C.ar   22  TYR22       0.1957
     23  OH       -11.2620    8.6450  -21.6640 O.3    22  TYR22      -0.2866
     24  N        -10.1320    3.3030  -25.3280 N.am   23  MET23      -0.1979
     25  CA        -9.1280    3.9980  -26.1220 C.3    23  MET23       0.1605
     26  C         -9.4820    4.0450  -27.6060 C.2    23  MET23       0.2287
     27  O         -9.2430    5.0570  -28.2580 O.2    23  MET23      -0.2864
     28  CB        -7.7410    3.3960  -25.9140 C.3    23  MET23       0.0413
     29  CG        -7.1240    3.7600  -24.5630 C.3    23  MET23       0.0598
     30  SD        -5.4180    3.1950  -24.4390 S.3    23  MET23      -0.1393
     31  CE        -5.6530    1.4210  -24.3940 C.3    23  MET23       0.0692
     32  N        -11.9480    6.7620  -28.0930 N.3    26  VAL26      -0.1245
     33  CA       -11.2920    8.0560  -27.9440 C.3    26  VAL26       0.1561
     34  C        -10.5250    8.4570  -29.2080 C.2    26  VAL26       0.2260
     35  O        -10.3860    9.6420  -29.5160 O.2    26  VAL26      -0.2867
     36  CB       -10.3610    8.0670  -26.6990 C.3    26  VAL26       0.0252
     37  CG1       -9.3950    9.2410  -26.7310 C.3    26  VAL26       0.0019
     38  CG2      -11.1900    8.1140  -25.4300 C.3    26  VAL26       0.0019
     39  N         -7.4260    6.6310  -30.0440 N.3    28  VAL28      -0.1245
     40  CA        -6.0250    6.2830  -29.8570 C.3    28  VAL28       0.1561
     41  C         -5.5590    5.2760  -30.9070 C.2    28  VAL28       0.2260
     42  O         -6.2500    4.2950  -31.1890 O.2    28  VAL28      -0.2867
     43  CB        -5.8050    5.7200  -28.4390 C.3    28  VAL28       0.0252
     44  CG1       -4.3300    5.4860  -28.1690 C.3    28  VAL28       0.0019
     45  CG2       -6.3970    6.6820  -27.4060 C.3    28  VAL28       0.0019
     46  N         -0.0120    2.9030  -29.7690 N.3    32  THR32      -0.1218
     47  CA        -0.2130    3.5560  -28.4820 C.3    32  THR32       0.1862
     48  C         -1.1890    2.7650  -27.6050 C.2    32  THR32       0.2287
     49  O         -0.9490    2.5880  -26.4070 O.2    32  THR32      -0.2866
     50  CB        -0.6860    5.0230  -28.6640 C.3    32  THR32       0.1770
     51  OG1        0.2970    5.7500  -29.4050 O.3    32  THR32      -0.2211
     52  CG2       -0.8740    5.7050  -27.3230 C.3    32  THR32       0.0375
     53  N          0.0110    1.4400  -24.0680 N.3    36  ALA36      -0.1245
     54  CA        -0.7210    2.0360  -22.9460 C.3    36  ALA36       0.1562
     55  C         -1.5910    1.0200  -22.2150 C.2    36  ALA36       0.2260
     56  O         -1.7460    1.0890  -20.9870 O.2    36  ALA36      -0.2867
     57  CB        -1.5690    3.2350  -23.4160 C.3    36  ALA36       0.0290
     58  N          0.3350   -0.8850  -19.6820 N.3    39  ALA39      -0.1245
     59  CA         0.8360   -0.1210  -18.5500 C.3    39  ALA39       0.1562
     60  C          0.1080   -0.4820  -17.2660 C.2    39  ALA39       0.2260
     61  O         -1.0920   -0.7600  -17.2660 O.2    39  ALA39      -0.2867
     62  CB         0.7230    1.3740  -18.8280 C.3    39  ALA39       0.0290
     63  N          0.0130    1.6350  -14.1690 N.3    41  PRO41      -0.2116
     64  CA         0.5040    2.8670  -13.5510 C.3    41  PRO41       0.1372
     65  C          0.2880    2.9500  -12.0490 C.2    41  PRO41       0.2244
     66  O         -0.5750    2.2930  -11.4680 O.2    41  PRO41      -0.2868
     67  CB        -0.3310    3.9600  -14.2320 C.3    41  PRO41       0.0268
     68  CG        -0.9820    3.3050  -15.4060 C.3    41  PRO41       0.0207
     69  CD        -1.1610    1.8830  -15.0190 C.3    41  PRO41       0.0892
     70  N         -0.8470    5.9240   -9.4890 N.3    43  MET43      -0.1245
     71  CA        -1.4900    7.2260   -9.5140 C.3    43  MET43       0.1570
     72  C         -1.1760    7.8850   -8.1920 C.2    43  MET43       0.2261
     73  O         -1.3900    7.2920   -7.1360 O.2    43  MET43      -0.2867
     74  CB        -3.0020    7.0890   -9.7120 C.3    43  MET43       0.0387
     75  CG        -3.7330    8.4240   -9.8490 C.3    43  MET43       0.0595
     76  SD        -5.5100    8.2380  -10.1220 S.3    43  MET43      -0.1393
     77  CE        -5.8230    6.7700   -9.1490 C.3    43  MET43       0.0692
     78  N          0.5030   10.3280  -12.9380 N.3    56  SER56      -0.1217
     79  CA         0.4310    8.9430  -13.3590 C.3    56  SER56       0.1889
     80  C          1.8260    8.5200  -13.7710 C.2    56  SER56       0.2288
     81  O          2.4280    9.1430  -14.6380 O.2    56  SER56      -0.2866
     82  CB        -0.5310    8.7950  -14.5330 C.3    56  SER56       0.2089
     83  OG        -0.6460    7.4330  -14.9240 O.3    56  SER56      -0.2183
     84  N          4.2880    5.3050  -15.0470 N.3    58  SER58      -0.1217
     85  CA         4.3550    3.9470  -15.5820 C.3    58  SER58       0.1889
     86  C          5.5140    3.8320  -16.5460 C.2    58  SER58       0.2288
     87  O          6.2160    4.8070  -16.7990 O.2    58  SER58      -0.2866
     88  CB         3.0430    3.5650  -16.2790 C.3    58  SER58       0.2089
     89  OG         2.8560    4.2910  -17.4790 O.3    58  SER58      -0.2183
     90  N          5.0750    3.4300  -19.5930 N.3    60  PHE60      -0.1227
     91  CA         4.5810    4.0520  -20.8160 C.3    60  PHE60       0.1736
     92  C          4.8320    5.5530  -20.8270 C.2    60  PHE60       0.2595
     93  O          5.4740    6.0760  -21.7410 O.2    60  PHE60      -0.2718
     94  CB         3.0930    3.7440  -21.0080 C.3    60  PHE60       0.0547
     95  CG         2.4330    4.5550  -22.0810 C.ar   60  PHE60      -0.0202
     96  CD1        2.9280    4.5550  -23.3760 C.ar   60  PHE60      -0.0042
     97  CD2        1.3000    5.2970  -21.8020 C.ar   60  PHE60      -0.0042
     98  CE1        2.3130    5.2980  -24.3680 C.ar   60  PHE60      -0.0003
     99  CE2        0.6820    6.0460  -22.7880 C.ar   60  PHE60      -0.0003
    100  CZ         1.1880    6.0480  -24.0700 C.ar   60  PHE60      -0.0000
    101  N          4.3450    6.2360  -19.7960 N.am   61  LYS61      -0.1980
    102  CA         4.4520    7.6850  -19.7280 C.3    61  LYS61       0.1596
    103  C          4.3970    8.1230  -18.2750 C.2    61  LYS61       0.2287
    104  O          3.8220    7.4350  -17.4280 O.2    61  LYS61      -0.2864
    105  CB         3.2950    8.3170  -20.5070 C.3    61  LYS61       0.0298
    106  CG         3.4340    9.8030  -20.7880 C.3    61  LYS61       0.0038
    107  CD         4.3180   10.0680  -21.9930 C.3    61  LYS61       0.0206
    108  CE         4.4080   11.5590  -22.2900 C.3    61  LYS61       0.1093
    109  NZ         5.0190   12.3330  -21.1670 N.3    61  LYS61      -0.1314
    110  N          2.8660   11.3180  -16.4480 N.3    63  THR63      -0.1218
    111  CA         2.0710   12.5230  -16.6370 C.3    63  THR63       0.1862
    112  C          1.7820   13.1760  -15.2960 C.2    63  THR63       0.2287
    113  O          1.8180   12.5270  -14.2570 O.2    63  THR63      -0.2866
    114  CB         0.7280   12.2320  -17.3270 C.3    63  THR63       0.1770
    115  OG1       -0.1050   11.4540  -16.4580 O.3    63  THR63      -0.2211
    116  CG2        0.9380   11.4910  -18.6370 C.3    63  THR63       0.0375
    117  N         -4.6750   20.5580  -21.0850 N.3    75  GLU75      -0.1245
    118  CA        -3.9930   19.3270  -20.7410 C.3    75  GLU75       0.1567
    119  C         -3.5070   18.6620  -22.0260 C.2    75  GLU75       0.2260
    120  O         -4.2100   18.6670  -23.0340 O.2    75  GLU75      -0.2867
    121  CB        -4.9600   18.3890  -19.9910 C.3    75  GLU75       0.0388
    122  CG        -4.3930   17.0020  -19.6630 C.3    75  GLU75       0.1160
    123  CD        -5.4010   16.0710  -19.0000 C.2    75  GLU75       0.3649
    124  OE1       -6.5950   16.4250  -18.9090 O.co2  75  GLU75      -0.2457
    125  OE2       -4.9950   14.9710  -18.5810 O.co2  75  GLU75      -0.2457
    126  N         -2.6900   14.9810  -23.0510 N.3    77  THR77      -0.1203
    127  CA        -2.9000   13.6420  -22.5130 C.3    77  THR77       0.1994
    128  C         -1.7580   12.7000  -22.8700 C.2    77  THR77       0.2618
    129  O         -0.9140   13.0270  -23.7040 O.2    77  THR77      -0.2717
    130  CB        -4.2090   13.0380  -23.0200 C.3    77  THR77       0.1784
    131  OG1       -4.1190   12.8050  -24.4370 O.3    77  THR77      -0.2211
    132  CG2       -5.3830   13.9490  -22.7220 C.3    77  THR77       0.0376
    133  N         -1.7440   11.5220  -22.2530 N.am   78  ALA78      -0.1965
    134  CA        -0.6750   10.5570  -22.4980 C.3    78  ALA78       0.1728
    135  C         -0.6140   10.1100  -23.9530 C.2    78  ALA78       0.2616
    136  O          0.4570    9.7460  -24.4420 O.2    78  ALA78      -0.2715
    137  CB        -0.8270    9.3620  -21.5950 C.3    78  ALA78       0.0334
    138  N         -1.7580   10.1260  -24.6340 N.am   79  ASP79      -0.1971
    139  CA        -1.8150    9.7700  -26.0550 C.3    79  ASP79       0.1709
    140  C         -1.6500   10.9960  -26.9480 C.2    79  ASP79       0.2293
    141  O         -1.9060   10.9480  -28.1520 O.2    79  ASP79      -0.2864
    142  CB        -3.1060    9.0110  -26.3960 C.3    79  ASP79       0.1436
    143  CG        -4.3620    9.7760  -26.0180 C.2    79  ASP79       0.3671
    144  OD1       -4.4680   10.2070  -24.8470 O.co2  79  ASP79      -0.2456
    145  OD2       -5.2440    9.9470  -26.8870 O.co2  79  ASP79      -0.2456
    146  N         -3.2620   13.9960  -27.0720 N.3    81  ARG81      -0.1245
    147  CA        -4.3580   14.8910  -27.3970 C.3    81  ARG81       0.1563
    148  C         -4.1620   16.1810  -26.6190 C.2    81  ARG81       0.2260
    149  O         -3.7460   16.1550  -25.4580 O.2    81  ARG81      -0.2867
    150  CB        -5.7000   14.2920  -26.9820 C.3    81  ARG81       0.0307
    151  CG        -6.2530   13.2220  -27.9100 C.3    81  ARG81       0.0489
    152  CD        -7.5010   12.5950  -27.3080 C.3    81  ARG81       0.2205
    153  NE        -7.1310   11.7570  -26.1690 N.pl3  81  ARG81      -0.0865
    154  CZ        -7.7350   11.7580  -24.9840 C.cat  81  ARG81       0.5346
    155  NH1       -8.7830   12.5390  -24.7450 N.pl3  81  ARG81       0.1354
    156  NH2       -7.2850   10.9540  -24.0330 N.pl3  81  ARG81       0.1354
    157  N        -13.9030   14.5290  -14.1780 N.3    96  HIS96      -0.1241
    158  CA       -12.9250   15.1530  -15.0690 C.3    96  HIS96       0.1621
    159  C        -13.4610   15.0670  -16.4910 C.2    96  HIS96       0.2264
    160  O        -13.5900   13.9800  -17.0410 O.2    96  HIS96      -0.2867
    161  CB       -11.6030   14.3800  -14.9210 C.3    96  HIS96       0.0745
    162  CG       -10.4760   14.8700  -15.7820 C.ar   96  HIS96       0.0817
    163  ND1       -9.2300   14.2830  -15.7510 N.ar   96  HIS96      -0.2268
    164  CD2      -10.3990   15.8810  -16.6810 C.ar   96  HIS96       0.1154
    165  CE1       -8.4310   14.9130  -16.5970 C.ar   96  HIS96       0.1986
    166  NE2       -9.1160   15.8770  -17.1810 N.ar   96  HIS96      -0.2212
    167  N        -12.8680   16.0760  -20.4280 N.3    98  GLN98      -0.1245
    168  CA       -11.8910   16.5140  -21.4310 C.3    98  GLN98       0.1566
    169  C        -12.6100   16.7930  -22.7440 C.2    98  GLN98       0.2260
    170  O        -13.3860   15.9640  -23.2080 O.2    98  GLN98      -0.2867
    171  CB       -10.8240   15.4480  -21.6710 C.3    98  GLN98       0.0367
    172  CG        -9.9330   15.1100  -20.4820 C.3    98  GLN98       0.0905
    173  CD        -8.9890   13.9510  -20.7880 C.2    98  GLN98       0.2608
    174  OE1       -9.2740   13.1190  -21.6610 O.2    98  GLN98      -0.2717
    175  NE2       -7.8640   13.8890  -20.0810 N.am   98  GLN98      -0.0878
    176  N        -13.9200   11.2130  -17.1020 N.3   107  ILE107     -0.1245
    177  CA       -13.1980   10.3040  -16.2350 C.3   107  ILE107      0.1561
    178  C        -13.6450   10.5880  -14.8060 C.2   107  ILE107      0.2260
    179  O        -13.5000   11.7040  -14.3080 O.2   107  ILE107     -0.2867
    180  CB       -11.6690   10.5350  -16.3660 C.3   107  ILE107      0.0252
    181  CG1      -11.2280   10.3890  -17.8210 C.3   107  ILE107      0.0019
    182  CG2      -10.8950    9.5830  -15.4760 C.3   107  ILE107      0.0019
    183  CD1      -10.1560   11.3780  -18.2200 C.3   107  ILE107      0.0001
    184  N        -13.3560    9.5690  -10.7580 N.3   109  ARG109     -0.1245
    185  CA       -12.5170    8.9170   -9.7600 C.3   109  ARG109      0.1563
    186  C        -13.2930    8.8970   -8.4530 C.2   109  ARG109      0.2260
    187  O        -13.7690    9.9310   -7.9960 O.2   109  ARG109     -0.2867
    188  CB       -11.1850    9.6680   -9.6100 C.3   109  ARG109      0.0307
    189  CG       -10.2730    9.5710  -10.8470 C.3   109  ARG109      0.0489
    190  CD        -9.0520   10.5060  -10.7710 C.3   109  ARG109      0.2205
    191  NE        -8.1980   10.4330  -11.9660 N.pl3 109  ARG109     -0.0865
    192  CZ        -8.2970   11.2370  -13.0190 C.cat 109  ARG109      0.5346
    193  NH1       -9.2130   12.1900  -13.0580 N.pl3 109  ARG109      0.1354
    194  NH2       -7.4720   11.0920  -14.0490 N.pl3 109  ARG109      0.1354
    195  N        -11.7170    4.1420  -11.0610 N.3   118  VAL118     -0.1245
    196  CA       -11.6900    5.1150  -12.1480 C.3   118  VAL118      0.1561
    197  C        -12.5950    4.6100  -13.2580 C.2   118  VAL118      0.2260
    198  O        -12.3830    3.5200  -13.7770 O.2   118  VAL118     -0.2867
    199  CB       -10.2630    5.3010  -12.6870 C.3   118  VAL118      0.0252
    200  CG1      -10.2330    6.3430  -13.7880 C.3   118  VAL118      0.0019
    201  CG2       -9.3170    5.7090  -11.5610 C.3   118  VAL118      0.0019
    202  N        -13.9390    5.4760  -16.9790 N.3   120  CYS120     -0.1235
    203  CA       -13.6040    6.2760  -18.1510 C.3   120  CYS120      0.1677
    204  C        -14.7170    6.0480  -19.1640 C.2   120  CYS120      0.2270
    205  O        -14.9770    4.9130  -19.5530 O.2   120  CYS120     -0.2867
    206  CB       -12.2680    5.8150  -18.7490 C.3   120  CYS120      0.0956
    207  SG       -10.9190    5.6630  -17.5400 S.3   120  CYS120     -0.0801
    208  N        -11.2600    0.9710  -14.0920 N.3   129  ARG129     -0.1245
    209  CA        -9.9180    0.6710  -13.6260 C.3   129  ARG129      0.1563
    210  C         -9.8980    0.8010  -12.1130 C.2   129  ARG129      0.2260
    211  O        -10.4160    1.7830  -11.5690 O.2   129  ARG129     -0.2867
    212  CB        -8.9090    1.5990  -14.3020 C.3   129  ARG129      0.0307
    213  CG        -8.6730    1.1570  -15.7500 C.3   129  ARG129      0.0489
    214  CD        -8.1940    2.2630  -16.6650 C.3   129  ARG129      0.2205
    215  NE        -6.8050    2.6660  -16.4520 N.pl3 129  ARG129     -0.0865
    216  CZ        -5.7420    2.0130  -16.9200 C.cat 129  ARG129      0.5346
    217  NH1       -5.8870    0.8640  -17.5650 N.pl3 129  ARG129      0.1354
    218  NH2       -4.5250    2.5010  -16.7010 N.pl3 129  ARG129      0.1354
    219  N         -7.7450    0.7310   -8.4580 N.3   131  TYR131     -0.1241
    220  CA        -6.4450    0.9170   -7.8280 C.3   131  TYR131      0.1605
    221  C         -6.5250    0.6250   -6.3430 C.2   131  TYR131      0.2264
    222  O         -7.5450    0.8820   -5.7080 O.2   131  TYR131     -0.2867
    223  CB        -5.9870    2.3670   -7.9710 C.3   131  TYR131      0.0534
    224  CG        -5.6410    2.8120   -9.3700 C.ar  131  TYR131     -0.0201
    225  CD1       -6.6340    3.0410  -10.3160 C.ar  131  TYR131     -0.0009
    226  CD2       -4.3190    3.0370   -9.7350 C.ar  131  TYR131     -0.0009
    227  CE1       -6.3150    3.4680  -11.5970 C.ar  131  TYR131      0.0417
    228  CE2       -3.9930    3.4750  -10.9960 C.ar  131  TYR131      0.0417
    229  CZ        -4.9900    3.6740  -11.9260 C.ar  131  TYR131      0.1957
    230  OH        -4.6500    4.1060  -13.1830 O.3   131  TYR131     -0.2866
@<TRIPOS>BOND
     1    42    41    2
     2    41    40    1
     3    39    40    1
     4    40    43    1
     5    46    47    1
     6    35    34    2
     7    51    50    1
     8    34    33    1
     9    50    47    1
    10    50    52    1
    11    47    48    1
    12    43    44    1
    13    43    45    1
    14    27    26    2
    15   141   140    2
    16    32    33    1
    17    33    36    1
    18   151   152    1
    19   151   150    1
    20    26    25    1
    21    48    49    2
    22   147   146    1
    23   147   150    1
    24   147   148    1
    25   152   153    1
    26   140   139    1
    27   145   143   ar
    28    37    36    1
    29    36    38    1
    30   148   149    2
    31   142   139    1
    32   142   143    1
    33   153   154    2
    34    25    28    1
    35    25    24    1
    36   139   138    1
    37   143   144   ar
    38    28    29    1
    39    15    14    2
    40    24    14   am
    41    14    13    1
    42   154   155    1
    43   154   156    1
    44    12    13    1
    45   138   135   am
    46    29    30    1
    47   136   135    2
    48    30    31    1
    49   131   130    1
    50    13    16    1
    51    98   100   ar
    52    98    96   ar
    53   100    99   ar
    54    53    54    1
    55   135   134    1
    56   129   128    2
    57     4     3    2
    58    57    54    1
    59    96    95   ar
    60   170   169    2
    61     3     2    1
    62   126   127    1
    63   120   119    2
    64   130   132    1
    65   130   127    1
    66    54    55    1
    67    16    17    1
    68   128   127    1
    69   128   133   am
    70    99    97   ar
    71   169   168    1
    72    17    18   ar
    73    17    19   ar
    74   134   133    1
    75   134   137    1
    76    18    20   ar
    77    19    21   ar
    78   108   107    1
    79   108   109    1
    80    55    56    2
    81    20    22   ar
    82    21    22   ar
    83    95    97   ar
    84    95    94    1
    85   119   118    1
    86   107   106    1
    87    22    23    1
    88    93    92    2
    89   171   168    1
    90   171   172    1
    91   174   173    2
    92     2     1    1
    93     2     5    1
    94   168   167    1
    95   117   118    1
    96    94    91    1
    97     8    10   ar
    98     8     6   ar
    99    10    11   ar
   100    92    91    1
   101    92   101   am
   102    91    90    1
   103   106   105    1
   104   173   172    1
   105   173   175   am
   106   118   121    1
   107     5     6    1
   108     6     7   ar
   109    11     9   ar
   110   105   102    1
   111     7     9   ar
   112   121   122    1
   113   101   102    1
   114   102   103    1
   115    58    59    1
   116   122   123    1
   117   205   204    2
   118   204   203    1
   119   123   124   ar
   120   123   125   ar
   121    62    59    1
   122   206   203    1
   123   206   207    1
   124   116   114    1
   125    59    60    1
   126   103   104    2
   127   183   181    1
   128   203   202    1
   129   181   180    1
   130   217   216    1
   131    89    88    1
   132   114   111    1
   133   114   115    1
   134    61    60    2
   135   166   164   ar
   136   166   165   ar
   137   176   177    1
   138   160   159    2
   139   216   218    1
   140   216   215    2
   141    87    86    2
   142   164   162   ar
   143   214   215    1
   144   214   213    1
   145   111   110    1
   146   111   112    1
   147   165   163   ar
   148    86    85    1
   149   159   158    1
   150   180   177    1
   151   180   182    1
   152    88    85    1
   153   177   178    1
   154   162   163   ar
   155   162   161    1
   156   213   212    1
   157    85    84    1
   158    68    69    1
   159    68    67    1
   160   112   113    2
   161   158   161    1
   162   158   157    1
   163    69    63    1
   164    83    82    1
   165   178   179    2
   166    81    80    2
   167    82    79    1
   168   212   209    1
   169    67    64    1
   170    63    64    1
   171   208   209    1
   172   194   192    1
   173   200   199    1
   174   198   197    2
   175    80    79    1
   176   209   210    1
   177    64    65    1
   178    79    78    1
   179   197   196    1
   180   230   229    1
   181   193   192    1
   182   192   191    2
   183   199   196    1
   184   199   201    1
   185   196   195    1
   186   210   211    2
   187    65    66    2
   188   191   190    1
   189   229   227   ar
   190   229   228   ar
   191   227   225   ar
   192   228   226   ar
   193   189   190    1
   194   189   188    1
   195   184   185    1
   196   225   224   ar
   197    76    75    1
   198    76    77    1
   199    75    74    1
   200   185   188    1
   201   185   186    1
   202   226   224   ar
   203    74    71    1
   204    71    70    1
   205    71    72    1
   206   224   223    1
   207   219   220    1
   208   186   187    2
   209    72    73    2
   210   223   220    1
   211   220   221    1
   212   221   222    2
