@<TRIPOS>MOLECULE
tmp/4nntA00.pdb
 222 205 0 0 0
SMALL
GASTEIGER

@<TRIPOS>ATOM
      1  N        -10.4460   -1.1780  -21.3020 N.3    19  PHE19      -0.1241
      2  CA        -9.6190   -0.0030  -21.5950 C.3    19  PHE19       0.1605
      3  C         -9.2290    0.0840  -23.0820 C.2    19  PHE19       0.2264
      4  O         -9.1420    1.1750  -23.6310 O.2    19  PHE19      -0.2867
      5  CB        -8.3810    0.0040  -20.6870 C.3    19  PHE19       0.0534
      6  CG        -7.6460    1.3140  -20.6490 C.ar   19  PHE19      -0.0203
      7  CD1       -8.3040    2.4800  -20.3060 C.ar   19  PHE19      -0.0042
      8  CD2       -6.2890    1.3720  -20.9330 C.ar   19  PHE19      -0.0042
      9  CE1       -7.6210    3.6940  -20.2570 C.ar   19  PHE19      -0.0003
     10  CE2       -5.6040    2.5790  -20.8870 C.ar   19  PHE19      -0.0003
     11  CZ        -6.2720    3.7370  -20.5530 C.ar   19  PHE19      -0.0000
     12  N        -12.2450    1.5310  -24.7560 N.3    22  TYR22      -0.1227
     13  CA       -12.3340    2.9420  -24.4160 C.3    22  TYR22       0.1736
     14  C        -11.3630    3.7480  -25.2720 C.2    22  TYR22       0.2595
     15  O        -11.7390    4.7590  -25.8700 O.2    22  TYR22      -0.2718
     16  CB       -12.0510    3.1690  -22.9260 C.3    22  TYR22       0.0548
     17  CG       -11.8370    4.6280  -22.5820 C.ar   22  TYR22      -0.0200
     18  CD1      -12.9120    5.5000  -22.4870 C.ar   22  TYR22      -0.0009
     19  CD2      -10.5550    5.1360  -22.3900 C.ar   22  TYR22      -0.0009
     20  CE1      -12.7210    6.8360  -22.1870 C.ar   22  TYR22       0.0417
     21  CE2      -10.3540    6.4680  -22.0810 C.ar   22  TYR22       0.0417
     22  CZ       -11.4370    7.3180  -21.9910 C.ar   22  TYR22       0.1957
     23  OH       -11.2290    8.6420  -21.6980 O.3    22  TYR22      -0.2866
     24  N        -10.1130    3.3000  -25.3250 N.am   23  MET23      -0.1979
     25  CA        -9.1050    3.9820  -26.1270 C.3    23  MET23       0.1605
     26  C         -9.4620    4.0300  -27.6190 C.2    23  MET23       0.2287
     27  O         -9.2270    5.0500  -28.2720 O.2    23  MET23      -0.2864
     28  CB        -7.7230    3.3700  -25.9170 C.3    23  MET23       0.0413
     29  CG        -7.0950    3.7430  -24.5760 C.3    23  MET23       0.0598
     30  SD        -5.4020    3.1690  -24.4610 S.3    23  MET23      -0.1393
     31  CE        -5.6460    1.3980  -24.4330 C.3    23  MET23       0.0692
     32  N        -11.9350    6.7490  -28.0650 N.3    26  VAL26      -0.1245
     33  CA       -11.2750    8.0390  -27.9350 C.3    26  VAL26       0.1561
     34  C        -10.5220    8.4230  -29.2120 C.2    26  VAL26       0.2260
     35  O        -10.3960    9.6050  -29.5320 O.2    26  VAL26      -0.2867
     36  CB       -10.3380    8.0520  -26.7040 C.3    26  VAL26       0.0252
     37  CG1       -9.3920    9.2400  -26.7460 C.3    26  VAL26       0.0019
     38  CG2      -11.1680    8.0790  -25.4370 C.3    26  VAL26       0.0019
     39  N         -7.4310    6.6260  -30.0430 N.3    28  VAL28      -0.1245
     40  CA        -6.0320    6.2630  -29.8630 C.3    28  VAL28       0.1561
     41  C         -5.5760    5.2550  -30.9130 C.2    28  VAL28       0.2260
     42  O         -6.2770    4.2830  -31.1920 O.2    28  VAL28      -0.2867
     43  CB        -5.8080    5.6930  -28.4560 C.3    28  VAL28       0.0252
     44  CG1       -4.3350    5.4300  -28.2080 C.3    28  VAL28       0.0019
     45  CG2       -6.3710    6.6510  -27.4100 C.3    28  VAL28       0.0019
     46  N         -0.0420    2.8930  -29.8420 N.3    32  THR32      -0.1218
     47  CA        -0.2310    3.5320  -28.5470 C.3    32  THR32       0.1862
     48  C         -1.1900    2.7310  -27.6640 C.2    32  THR32       0.2287
     49  O         -0.9210    2.5330  -26.4740 O.2    32  THR32      -0.2866
     50  CB        -0.6920    5.0000  -28.7060 C.3    32  THR32       0.1770
     51  OG1        0.3040    5.7200  -29.4310 O.3    32  THR32      -0.2211
     52  CG2       -0.8700    5.6690  -27.3600 C.3    32  THR32       0.0375
     53  N          0.0600    1.3930  -24.1490 N.3    36  ALA36      -0.1245
     54  CA        -0.6530    1.9950  -23.0180 C.3    36  ALA36       0.1562
     55  C         -1.5410    1.0000  -22.2830 C.2    36  ALA36       0.2260
     56  O         -1.6990    1.0840  -21.0600 O.2    36  ALA36      -0.2867
     57  CB        -1.4710    3.2200  -23.4620 C.3    36  ALA36       0.0290
     58  N          0.3060   -0.9250  -19.6610 N.3    39  ALA39      -0.1245
     59  CA         0.8230   -0.1640  -18.5430 C.3    39  ALA39       0.1562
     60  C          0.0730   -0.4630  -17.2610 C.2    39  ALA39       0.2260
     61  O         -1.1440   -0.6660  -17.2550 O.2    39  ALA39      -0.2867
     62  CB         0.7640    1.3180  -18.8500 C.3    39  ALA39       0.0290
     63  N          0.0230    1.6970  -14.1880 N.3    41  PRO41      -0.2116
     64  CA         0.5200    2.9260  -13.5680 C.3    41  PRO41       0.1372
     65  C          0.3240    2.9860  -12.0620 C.2    41  PRO41       0.2244
     66  O         -0.5620    2.3460  -11.4970 O.2    41  PRO41      -0.2868
     67  CB        -0.3400    4.0210  -14.2120 C.3    41  PRO41       0.0268
     68  CG        -0.9620    3.3940  -15.4070 C.3    41  PRO41       0.0207
     69  CD        -1.1580    1.9640  -15.0230 C.3    41  PRO41       0.0892
     70  N          0.5910   10.3730  -12.8870 N.3    56  SER56      -0.1217
     71  CA         0.4980    8.9870  -13.3210 C.3    56  SER56       0.1889
     72  C          1.8780    8.5420  -13.7660 C.2    56  SER56       0.2288
     73  O          2.4510    9.1360  -14.6800 O.2    56  SER56      -0.2866
     74  CB        -0.4960    8.8560  -14.4710 C.3    56  SER56       0.2089
     75  OG        -0.6040    7.5010  -14.8910 O.3    56  SER56      -0.2183
     76  N          4.3000    5.3350  -15.0990 N.3    58  SER58      -0.1217
     77  CA         4.3310    3.9840  -15.6470 C.3    58  SER58       0.1889
     78  C          5.4790    3.8560  -16.6260 C.2    58  SER58       0.2288
     79  O          6.1860    4.8230  -16.8930 O.2    58  SER58      -0.2866
     80  CB         2.9960    3.6270  -16.3200 C.3    58  SER58       0.2089
     81  OG         2.8210    4.3080  -17.5410 O.3    58  SER58      -0.2183
     82  N          5.0510    3.4360  -19.6960 N.3    60  PHE60      -0.1227
     83  CA         4.5810    4.0770  -20.9220 C.3    60  PHE60       0.1736
     84  C          4.8510    5.5760  -20.9260 C.2    60  PHE60       0.2595
     85  O          5.4700    6.1080  -21.8530 O.2    60  PHE60      -0.2718
     86  CB         3.0860    3.8150  -21.1210 C.3    60  PHE60       0.0547
     87  CG         2.4860    4.5660  -22.2740 C.ar   60  PHE60      -0.0202
     88  CD1        3.0190    4.4490  -23.5480 C.ar   60  PHE60      -0.0042
     89  CD2        1.3830    5.3780  -22.0910 C.ar   60  PHE60      -0.0042
     90  CE1        2.4660    5.1420  -24.6170 C.ar   60  PHE60      -0.0003
     91  CE2        0.8290    6.0710  -23.1530 C.ar   60  PHE60      -0.0003
     92  CZ         1.3710    5.9600  -24.4120 C.ar   60  PHE60      -0.0000
     93  N          4.3970    6.2490  -19.8760 N.am   61  LYS61      -0.1980
     94  CA         4.4930    7.6970  -19.8090 C.3    61  LYS61       0.1596
     95  C          4.3540    8.1530  -18.3660 C.2    61  LYS61       0.2287
     96  O          3.6910    7.5020  -17.5550 O.2    61  LYS61      -0.2864
     97  CB         3.3970    8.3210  -20.6830 C.3    61  LYS61       0.0298
     98  CG         3.3210    9.8370  -20.6640 C.3    61  LYS61       0.0038
     99  CD         4.3960   10.4980  -21.5170 C.3    61  LYS61       0.0206
    100  CE         4.4590   12.0030  -21.2390 C.3    61  LYS61       0.1093
    101  NZ         5.6000   12.6690  -21.9340 N.3    61  LYS61      -0.1314
    102  N          2.8530   11.3180  -16.4390 N.3    63  THR63      -0.1218
    103  CA         2.0600   12.5240  -16.6300 C.3    63  THR63       0.1862
    104  C          1.7980   13.1930  -15.2910 C.2    63  THR63       0.2287
    105  O          1.8420   12.5590  -14.2400 O.2    63  THR63      -0.2866
    106  CB         0.7010   12.2460  -17.3180 C.3    63  THR63       0.1770
    107  OG1       -0.1070   11.4100  -16.4810 O.3    63  THR63      -0.2211
    108  CG2        0.8970   11.5720  -18.6600 C.3    63  THR63       0.0375
    109  N         -4.5800   20.5190  -21.0780 N.3    75  GLU75      -0.1245
    110  CA        -3.9470   19.2640  -20.7220 C.3    75  GLU75       0.1567
    111  C         -3.4580   18.5930  -21.9900 C.2    75  GLU75       0.2260
    112  O         -4.1600   18.5940  -22.9950 O.2    75  GLU75      -0.2867
    113  CB        -4.9570   18.3440  -20.0270 C.3    75  GLU75       0.0388
    114  CG        -4.3750   16.9840  -19.6240 C.3    75  GLU75       0.1160
    115  CD        -5.3800   16.0730  -18.9390 C.2    75  GLU75       0.3649
    116  OE1       -6.5730   16.4320  -18.8600 O.co2  75  GLU75      -0.2457
    117  OE2       -4.9730   14.9800  -18.5110 O.co2  75  GLU75      -0.2457
    118  N         -2.6890   14.9070  -23.0050 N.3    77  THR77      -0.1203
    119  CA        -2.9140   13.5620  -22.4950 C.3    77  THR77       0.1994
    120  C         -1.7750   12.6210  -22.8620 C.2    77  THR77       0.2618
    121  O         -0.9240   12.9540  -23.6920 O.2    77  THR77      -0.2717
    122  CB        -4.2310   12.9850  -23.0210 C.3    77  THR77       0.1784
    123  OG1       -4.1400   12.7910  -24.4430 O.3    77  THR77      -0.2211
    124  CG2       -5.3880   13.9080  -22.6990 C.3    77  THR77       0.0376
    125  N         -1.7710   11.4390  -22.2610 N.am   78  ALA78      -0.1965
    126  CA        -0.7010   10.4780  -22.4980 C.3    78  ALA78       0.1728
    127  C         -0.6360   10.0480  -23.9550 C.2    78  ALA78       0.2616
    128  O          0.4430    9.7420  -24.4570 O.2    78  ALA78      -0.2715
    129  CB        -0.8680    9.2790  -21.6050 C.3    78  ALA78       0.0334
    130  N         -1.7880   10.0200  -24.6230 N.am   79  ASP79      -0.1971
    131  CA        -1.8420    9.7150  -26.0560 C.3    79  ASP79       0.1709
    132  C         -1.6830   10.9530  -26.9430 C.2    79  ASP79       0.2293
    133  O         -1.9650   10.9010  -28.1450 O.2    79  ASP79      -0.2864
    134  CB        -3.1310    8.9640  -26.4200 C.3    79  ASP79       0.1436
    135  CG        -4.3850    9.7250  -26.0280 C.2    79  ASP79       0.3671
    136  OD1       -4.4770   10.1390  -24.8510 O.co2  79  ASP79      -0.2456
    137  OD2       -5.2790    9.9060  -26.8840 O.co2  79  ASP79      -0.2456
    138  N         -3.2640   13.9520  -27.0460 N.3    81  ARG81      -0.1245
    139  CA        -4.3670   14.8510  -27.3510 C.3    81  ARG81       0.1563
    140  C         -4.1630   16.1490  -26.5880 C.2    81  ARG81       0.2260
    141  O         -3.7640   16.1370  -25.4160 O.2    81  ARG81      -0.2867
    142  CB        -5.7040   14.2490  -26.9160 C.3    81  ARG81       0.0307
    143  CG        -6.2960   13.2390  -27.8760 C.3    81  ARG81       0.0489
    144  CD        -7.5230   12.5780  -27.2680 C.3    81  ARG81       0.2205
    145  NE        -7.1270   11.7230  -26.1460 N.pl3  81  ARG81      -0.0865
    146  CZ        -7.6960   11.7170  -24.9430 C.cat  81  ARG81       0.5346
    147  NH1       -8.7290   12.5070  -24.6650 N.pl3  81  ARG81       0.1354
    148  NH2       -7.2270   10.9010  -24.0100 N.pl3  81  ARG81       0.1354
    149  N        -13.8830   14.5340  -14.1840 N.3    96  HIS96      -0.1241
    150  CA       -12.9060   15.1490  -15.0740 C.3    96  HIS96       0.1621
    151  C        -13.4330   15.0570  -16.4960 C.2    96  HIS96       0.2264
    152  O        -13.5700   13.9680  -17.0420 O.2    96  HIS96      -0.2867
    153  CB       -11.5910   14.3740  -14.9130 C.3    96  HIS96       0.0745
    154  CG       -10.4570   14.8650  -15.7620 C.ar   96  HIS96       0.0817
    155  ND1       -9.2040   14.2990  -15.6940 N.ar   96  HIS96      -0.2268
    156  CD2      -10.3740   15.8680  -16.6700 C.ar   96  HIS96       0.1154
    157  CE1       -8.3980   14.9250  -16.5340 C.ar   96  HIS96       0.1986
    158  NE2       -9.0830   15.8740  -17.1460 N.ar   96  HIS96      -0.2212
    159  N        -12.7910   16.0610  -20.4180 N.3    98  GLN98      -0.1245
    160  CA       -11.8300   16.4890  -21.4350 C.3    98  GLN98       0.1566
    161  C        -12.5570   16.7840  -22.7400 C.2    98  GLN98       0.2260
    162  O        -13.3310   15.9550  -23.2100 O.2    98  GLN98      -0.2867
    163  CB       -10.7680   15.4200  -21.6790 C.3    98  GLN98       0.0367
    164  CG        -9.9610   15.0290  -20.4570 C.3    98  GLN98       0.0905
    165  CD        -8.9550   13.9340  -20.7590 C.2    98  GLN98       0.2608
    166  OE1       -9.1980   13.0650  -21.6120 O.2    98  GLN98      -0.2717
    167  NE2       -7.8270   13.9570  -20.0600 N.am   98  GLN98      -0.0878
    168  N        -13.8660   11.1880  -17.1120 N.3   107  ILE107     -0.1245
    169  CA       -13.1500   10.2710  -16.2430 C.3   107  ILE107      0.1561
    170  C        -13.5850   10.5640  -14.8160 C.2   107  ILE107      0.2260
    171  O        -13.4140   11.6820  -14.3160 O.2   107  ILE107     -0.2867
    172  CB       -11.6240   10.5010  -16.3600 C.3   107  ILE107      0.0252
    173  CG1      -11.1460   10.2520  -17.7870 C.3   107  ILE107      0.0019
    174  CG2      -10.8640    9.6230  -15.4010 C.3   107  ILE107      0.0019
    175  CD1       -9.8900   11.0150  -18.1220 C.3   107  ILE107      0.0001
    176  N        -13.3160    9.5730  -10.7600 N.3   109  ARG109     -0.1245
    177  CA       -12.4620    8.9180   -9.7790 C.3   109  ARG109      0.1563
    178  C        -13.2280    8.8920   -8.4570 C.2   109  ARG109      0.2260
    179  O        -13.6840    9.9310   -7.9970 O.2   109  ARG109     -0.2867
    180  CB       -11.1200    9.6630   -9.6710 C.3   109  ARG109      0.0307
    181  CG       -10.2640    9.5690  -10.9690 C.3   109  ARG109      0.0489
    182  CD        -8.9980   10.4560  -10.9620 C.3   109  ARG109      0.2205
    183  NE        -8.2180   10.4000  -12.2150 N.pl3 109  ARG109     -0.0865
    184  CZ        -8.3220   11.2650  -13.2220 C.cat 109  ARG109      0.5346
    185  NH1       -9.1820   12.2660  -13.1700 N.pl3 109  ARG109      0.1354
    186  NH2       -7.5600   11.1280  -14.3040 N.pl3 109  ARG109      0.1354
    187  N        -11.6190    4.1740  -11.0390 N.3   118  VAL118     -0.1245
    188  CA       -11.5870    5.1480  -12.1250 C.3   118  VAL118      0.1561
    189  C        -12.4810    4.6390  -13.2450 C.2   118  VAL118      0.2260
    190  O        -12.2460    3.5590  -13.7870 O.2   118  VAL118     -0.2867
    191  CB       -10.1540    5.3340  -12.6650 C.3   118  VAL118      0.0252
    192  CG1      -10.1250    6.3540  -13.7820 C.3   118  VAL118      0.0019
    193  CG2       -9.2150    5.7680  -11.5450 C.3   118  VAL118      0.0019
    194  N        -13.8620    5.4810  -17.0000 N.3   120  CYS120     -0.1235
    195  CA       -13.5890    6.3070  -18.1660 C.3   120  CYS120      0.1677
    196  C        -14.6970    6.0520  -19.1720 C.2   120  CYS120      0.2270
    197  O        -14.9290    4.9120  -19.5570 O.2   120  CYS120     -0.2867
    198  CB       -12.2550    5.9210  -18.8040 C.3   120  CYS120      0.0956
    199  SG       -10.8590    5.8430  -17.6470 S.3   120  CYS120     -0.0801
    200  N        -11.1380    0.9900  -14.0780 N.3   129  ARG129     -0.1245
    201  CA        -9.7950    0.6960  -13.6240 C.3   129  ARG129      0.1563
    202  C         -9.7820    0.8320  -12.1160 C.2   129  ARG129      0.2260
    203  O        -10.2640    1.8300  -11.5820 O.2   129  ARG129     -0.2867
    204  CB        -8.7980    1.6400  -14.2920 C.3   129  ARG129      0.0307
    205  CG        -8.5660    1.2390  -15.7520 C.3   129  ARG129      0.0489
    206  CD        -8.1500    2.3860  -16.6340 C.3   129  ARG129      0.2205
    207  NE        -6.7580    2.8180  -16.4970 N.pl3 129  ARG129     -0.0865
    208  CZ        -5.7070    2.1500  -16.9690 C.cat 129  ARG129      0.5346
    209  NH1       -5.8670    0.9640  -17.5440 N.pl3 129  ARG129      0.1354
    210  NH2       -4.4890    2.6660  -16.8370 N.pl3 129  ARG129      0.1354
    211  N         -7.7090    0.7520   -8.4280 N.3   131  TYR131     -0.1241
    212  CA        -6.4180    0.9450   -7.7790 C.3   131  TYR131      0.1605
    213  C         -6.5050    0.6210   -6.3040 C.2   131  TYR131      0.2264
    214  O         -7.5260    0.8690   -5.6720 O.2   131  TYR131     -0.2867
    215  CB        -5.9850    2.4070   -7.8910 C.3   131  TYR131      0.0534
    216  CG        -5.6360    2.8470   -9.2850 C.ar  131  TYR131     -0.0201
    217  CD1       -6.6240    3.0660  -10.2300 C.ar  131  TYR131     -0.0009
    218  CD2       -4.3100    3.0490   -9.6550 C.ar  131  TYR131     -0.0009
    219  CE1       -6.3040    3.4750  -11.5160 C.ar  131  TYR131      0.0417
    220  CE2       -3.9770    3.4600  -10.9280 C.ar  131  TYR131      0.0417
    221  CZ        -4.9770    3.6680  -11.8570 C.ar  131  TYR131      0.1957
    222  OH        -4.6440    4.0740  -13.1300 O.3   131  TYR131     -0.2866
@<TRIPOS>BOND
     1    42    41    2
     2    41    40    1
     3    39    40    1
     4    40    43    1
     5    46    47    1
     6    35    34    2
     7    51    50    1
     8    34    33    1
     9    50    47    1
    10    50    52    1
    11    47    48    1
    12    43    44    1
    13    43    45    1
    14    27    26    2
    15   133   132    2
    16    32    33    1
    17    33    36    1
    18   143   144    1
    19   143   142    1
    20    48    49    2
    21    26    25    1
    22   139   138    1
    23   139   142    1
    24   139   140    1
    25   144   145    1
    26   132   131    1
    27   137   135   ar
    28    37    36    1
    29    36    38    1
    30   140   141    2
    31   134   131    1
    32   134   135    1
    33   145   146    2
    34    25    28    1
    35    25    24    1
    36   131   130    1
    37   135   136   ar
    38    28    29    1
    39    15    14    2
    40    24    14   am
    41    14    13    1
    42   146   147    1
    43   146   148    1
    44    12    13    1
    45   130   127   am
    46    90    92   ar
    47    90    88   ar
    48    29    30    1
    49    30    31    1
    50   128   127    2
    51   123   122    1
    52    13    16    1
    53    92    91   ar
    54    53    54    1
    55   127   126    1
    56   121   120    2
    57     4     3    2
    58    88    87   ar
    59    57    54    1
    60   162   161    2
    61    91    89   ar
    62     3     2    1
    63   122   124    1
    64   122   119    1
    65    54    55    1
    66   118   119    1
    67   112   111    2
    68    16    17    1
    69   120   119    1
    70   120   125   am
    71   161   160    1
    72    17    18   ar
    73    17    19   ar
    74   126   125    1
    75   126   129    1
    76    18    20   ar
    77    19    21   ar
    78    55    56    2
    79    87    89   ar
    80    87    86    1
    81    20    22   ar
    82    21    22   ar
    83    22    23    1
    84   111   110    1
    85   101   100    1
    86    85    84    2
    87   163   160    1
    88   163   164    1
    89   166   165    2
    90     2     1    1
    91     2     5    1
    92    99   100    1
    93    99    98    1
    94   160   159    1
    95    86    83    1
    96   109   110    1
    97     8    10   ar
    98     8     6   ar
    99    84    83    1
   100    84    93   am
   101    83    82    1
   102    10    11   ar
   103   165   164    1
   104   165   167   am
   105   110   113    1
   106     5     6    1
   107    97    98    1
   108    97    94    1
   109     6     7   ar
   110    11     9   ar
   111     7     9   ar
   112   113   114    1
   113    93    94    1
   114    94    95    1
   115    58    59    1
   116   114   115    1
   117   197   196    2
   118   196   195    1
   119   115   116   ar
   120   115   117   ar
   121    62    59    1
   122   198   195    1
   123   198   199    1
   124   108   106    1
   125    59    60    1
   126    95    96    2
   127   195   194    1
   128   175   173    1
   129   173   172    1
   130   209   208    1
   131    81    80    1
   132   106   103    1
   133   106   107    1
   134    60    61    2
   135   158   156   ar
   136   158   157   ar
   137   168   169    1
   138   152   151    2
   139   208   210    1
   140   208   207    2
   141    79    78    2
   142   156   154   ar
   143   206   207    1
   144   206   205    1
   145   103   102    1
   146   103   104    1
   147    78    77    1
   148   157   155   ar
   149   151   150    1
   150   172   169    1
   151   172   174    1
   152    80    77    1
   153   169   170    1
   154   154   155   ar
   155   154   153    1
   156   205   204    1
   157    77    76    1
   158    68    69    1
   159    68    67    1
   160   104   105    2
   161   150   153    1
   162   150   149    1
   163    69    63    1
   164    75    74    1
   165   170   171    2
   166    73    72    2
   167    74    71    1
   168   186   184    1
   169   204   201    1
   170    67    64    1
   171    63    64    1
   172   200   201    1
   173   190   189    2
   174   192   191    1
   175    72    71    1
   176   201   202    1
   177    64    65    1
   178    71    70    1
   179   189   188    1
   180   184   185    1
   181   184   183    2
   182   222   221    1
   183   191   188    1
   184   191   193    1
   185   183   182    1
   186   188   187    1
   187   202   203    2
   188    65    66    2
   189   221   219   ar
   190   221   220   ar
   191   219   217   ar
   192   181   182    1
   193   181   180    1
   194   220   218   ar
   195   176   177    1
   196   217   216   ar
   197   177   180    1
   198   177   178    1
   199   218   216   ar
   200   216   215    1
   201   178   179    2
   202   211   212    1
   203   215   212    1
   204   212   213    1
   205   213   214    2
