@<TRIPOS>MOLECULE
tmp/4no6K00.pdb
 145 137 0 0 0
SMALL
GASTEIGER

@<TRIPOS>ATOM
      1  N         11.4890 -140.3510    9.6540 N.3     1  THR1       -0.1218
      2  CA        11.0680 -139.1750    8.8800 C.3     1  THR1        0.1862
      3  C         11.6450 -139.2980    7.4810 C.2     1  THR1        0.2287
      4  O         12.7850 -139.7180    7.3020 O.2     1  THR1       -0.2866
      5  CB        11.5680 -137.8720    9.5130 C.3     1  THR1        0.1770
      6  OG1       10.7930 -137.5920   10.6930 O.3     1  THR1       -0.2211
      7  CG2       11.4200 -136.6710    8.5650 C.3     1  THR1        0.0375
      8  N          4.8550 -138.6680    9.9680 N.3    19  ARG19      -0.1231
      9  CA         4.9740 -139.5040   11.1660 C.3    19  ARG19       0.1694
     10  C          5.9800 -138.9360   12.1610 C.2    19  ARG19       0.2592
     11  O          7.0220 -138.4120   11.7730 O.2    19  ARG19      -0.2718
     12  CB         5.3850 -140.9320   10.7980 C.3    19  ARG19       0.0321
     13  CG         5.6360 -141.8340   12.0050 C.3    19  ARG19       0.0489
     14  CD         5.6520 -143.3080   11.6370 C.3    19  ARG19       0.2205
     15  NE         4.4060 -143.7200   10.9960 N.pl3  19  ARG19      -0.0865
     16  CZ         4.1080 -144.9680   10.6480 C.cat  19  ARG19       0.5346
     17  NH1        4.9560 -145.9650   10.8830 N.pl3  19  ARG19       0.1354
     18  NH2        2.9420 -145.2210   10.0630 N.pl3  19  ARG19       0.1354
     19  N          5.6600 -139.0660   13.4440 N.am   20  ALA20      -0.1966
     20  CA         6.5750 -138.7160   14.5230 C.3    20  ALA20       0.1728
     21  C          6.6360 -139.8970   15.4760 C.2    20  ALA20       0.2617
     22  O          5.5970 -140.3840   15.9320 O.2    20  ALA20      -0.2715
     23  CB         6.0920 -137.4760   15.2480 C.3    20  ALA20       0.0334
     24  N          7.8460 -140.3640   15.7630 N.am   21  THR21      -0.1937
     25  CA         8.0320 -141.5120   16.6440 C.3    21  THR21       0.2028
     26  C          8.8770 -141.1810   17.8700 C.2    21  THR21       0.2642
     27  O          9.5340 -140.1400   17.9390 O.2    21  THR21      -0.2714
     28  CB         8.6740 -142.6920   15.8910 C.3    21  THR21       0.1808
     29  OG1        9.8350 -142.2350   15.1850 O.3    21  THR21      -0.2208
     30  CG2        7.6870 -143.2910   14.9000 C.3    21  THR21       0.0379
     31  N          8.8180 -142.0790   18.8460 N.am   22  ALA22      -0.1963
     32  CA         9.6670 -142.0330   20.0270 C.3    22  ALA22       0.1728
     33  C         10.0530 -143.4750   20.3210 C.2    22  ALA22       0.2616
     34  O          9.3050 -144.2090   20.9670 O.2    22  ALA22      -0.2715
     35  CB         8.9220 -141.4200   21.1980 C.3    22  ALA22       0.0334
     36  N         11.2140 -143.8840   19.8250 N.am   23  GLY23      -0.1955
     37  CA        11.5520 -145.2960   19.7820 C.3    23  GLY23       0.1869
     38  C         10.6780 -145.9320   18.7190 C.2    23  GLY23       0.2309
     39  O         10.6080 -145.4330   17.5970 O.2    23  GLY23      -0.2863
     40  N          7.4100 -146.4120   19.3280 N.3    25  TRP25      -0.1241
     41  CA         6.1040 -145.8340   19.5630 C.3    25  TRP25       0.1605
     42  C          5.7990 -144.8020   18.4900 C.2    25  TRP25       0.2264
     43  O          6.5080 -143.8040   18.3670 O.2    25  TRP25      -0.2867
     44  CB         6.0600 -145.1750   20.9380 C.3    25  TRP25       0.0550
     45  CG         4.8490 -144.3680   21.1400 C.ar   25  TRP25       0.0003
     46  CD1        4.7770 -143.0130   21.2480 C.ar   25  TRP25       0.0946
     47  CD2        3.5110 -144.8550   21.2270 C.ar   25  TRP25       0.0152
     48  NE1        3.4730 -142.6240   21.4160 N.ar   25  TRP25      -0.2442
     49  CE2        2.6740 -143.7370   21.4040 C.ar   25  TRP25       0.0810
     50  CE3        2.9390 -146.1310   21.1810 C.ar   25  TRP25       0.0012
     51  CZ2        1.2900 -143.8550   21.5350 C.ar   25  TRP25       0.0191
     52  CZ3        1.5660 -146.2490   21.3100 C.ar   25  TRP25       0.0001
     53  CH2        0.7560 -145.1170   21.4830 C.ar   25  TRP25       0.0015
     54  N          4.1250 -141.9040   17.7150 N.3    27  ALA27      -0.1231
     55  CA         3.5400 -140.8520   18.5400 C.3    27  ALA27       0.1694
     56  C          2.4330 -140.0920   17.8190 C.2    27  ALA27       0.2592
     57  O          1.4040 -139.7680   18.4190 O.2    27  ALA27      -0.2718
     58  CB         4.6170 -139.8920   19.0050 C.3    27  ALA27       0.0304
     59  N          2.6490 -139.8070   16.5390 N.am   28  SER28      -0.1952
     60  CA         1.6520 -139.1170   15.7290 C.3    28  SER28       0.1924
     61  C          1.8410 -139.4070   14.2390 C.2    28  SER28       0.2314
     62  O          2.9390 -139.7360   13.7900 O.2    28  SER28      -0.2863
     63  CB         1.6970 -137.6100   16.0090 C.3    28  SER28       0.2116
     64  OG         1.1300 -136.8580   14.9500 O.3    28  SER28      -0.2180
     65  N          1.8400 -134.9500   11.7340 N.3    31  VAL31      -0.1245
     66  CA         2.7700 -133.8870   12.0950 C.3    31  VAL31       0.1561
     67  C          3.1260 -133.0620   10.8770 C.2    31  VAL31       0.2260
     68  O          3.1980 -133.5660    9.7540 O.2    31  VAL31      -0.2867
     69  CB         4.0670 -134.4230   12.7380 C.3    31  VAL31       0.0252
     70  CG1        5.1410 -133.3390   12.8110 C.3    31  VAL31       0.0019
     71  CG2        3.7690 -134.9470   14.1290 C.3    31  VAL31       0.0019
     72  N          5.7430 -131.2040    8.8790 N.3    33  LYS33      -0.1245
     73  CA         7.1600 -131.1830    8.6440 C.3    33  LYS33       0.1561
     74  C          7.5640 -130.0790    7.6790 C.2    33  LYS33       0.2260
     75  O          8.7470 -129.8040    7.5330 O.2    33  LYS33      -0.2867
     76  CB         7.6050 -132.5610    8.1850 C.3    33  LYS33       0.0271
     77  CG         7.3060 -133.6030    9.2520 C.3    33  LYS33       0.0035
     78  CD         7.9810 -134.9250    8.9750 C.3    33  LYS33       0.0206
     79  CE         7.5420 -135.9530    9.9950 C.3    33  LYS33       0.1093
     80  NZ         8.1970 -137.2550    9.7290 N.3    33  LYS33      -0.1314
     81  N         11.3890 -130.1740    8.0180 N.3    45  MET45      -0.1230
     82  CA        11.8860 -130.6170    9.3240 C.3    45  MET45       0.1702
     83  C         12.2520 -132.1030    9.3500 C.2    45  MET45       0.2592
     84  O         11.4640 -132.9510    8.9300 O.2    45  MET45      -0.2718
     85  CB        10.8360 -130.3560   10.4060 C.3    45  MET45       0.0401
     86  CG        10.3290 -128.9270   10.4570 C.3    45  MET45       0.0596
     87  SD         9.0900 -128.6790   11.7380 S.3    45  MET45      -0.1393
     88  CE         8.8690 -126.9160   11.5670 C.3    45  MET45       0.0692
     89  N         13.4540 -132.4000    9.8460 N.am   46  ALA46      -0.1966
     90  CA        13.8680 -133.7700   10.1800 C.3    46  ALA46       0.1728
     91  C         14.8670 -133.7350   11.3370 C.2    46  ALA46       0.2617
     92  O         15.6070 -132.7640   11.4910 O.2    46  ALA46      -0.2715
     93  CB        14.4760 -134.4660    8.9740 C.3    46  ALA46       0.0334
     94  N         14.8970 -134.8050   12.1270 N.am   47  GLY47      -0.1940
     95  CA        15.6620 -134.8490   13.3720 C.3    47  GLY47       0.2014
     96  C         14.7370 -134.7270   14.5680 C.2    47  GLY47       0.2639
     97  O         13.7470 -135.4480   14.6660 O.2    47  GLY47      -0.2714
     98  N         15.0530 -133.8080   15.4770 N.am   48  GLY48      -0.1939
     99  CA        14.2420 -133.6000   16.6730 C.3    48  GLY48       0.2014
    100  C         13.0630 -132.7010   16.3600 C.2    48  GLY48       0.2639
    101  O         13.2360 -131.6270   15.7820 O.2    48  GLY48      -0.2714
    102  N         11.8640 -133.1400   16.7380 N.am   49  ALA49      -0.1963
    103  CA        10.6350 -132.3930   16.4500 C.3    49  ALA49       0.1728
    104  C         10.6770 -130.9880   17.0490 C.2    49  ALA49       0.2616
    105  O         10.4570 -130.0010   16.3500 O.2    49  ALA49      -0.2715
    106  CB         9.4220 -133.1520   16.9680 C.3    49  ALA49       0.0334
    107  N         10.9620 -130.9170   18.3450 N.am   50  ALA50      -0.1977
    108  CA        11.1130 -129.6470   19.0500 C.3    50  ALA50       0.1597
    109  C         12.2130 -128.7750   18.4540 C.2    50  ALA50       0.2287
    110  O         12.0040 -127.5830   18.2340 O.2    50  ALA50      -0.2864
    111  CB        11.4120 -129.9030   20.5130 C.3    50  ALA50       0.0319
    112  N         13.6200 -128.6590   15.4440 N.3    52  CYS52      -0.1235
    113  CA        13.2510 -128.0910   14.1460 C.3    52  CYS52       0.1677
    114  C         12.1060 -127.0940   14.2860 C.2    52  CYS52       0.2270
    115  O         12.2180 -125.9500   13.8470 O.2    52  CYS52      -0.2867
    116  CB        12.8500 -129.1940   13.1620 C.3    52  CYS52       0.0956
    117  SG        14.1770 -130.3440   12.7420 S.3    52  CYS52      -0.0801
    118  N         19.5140 -131.6760   17.0810 N.3    96  SER96      -0.1217
    119  CA        19.3810 -132.6920   16.0450 C.3    96  SER96       0.1889
    120  C         18.4360 -132.2130   14.9570 C.2    96  SER96       0.2288
    121  O         17.2190 -132.2030   15.1380 O.2    96  SER96      -0.2866
    122  CB        18.8790 -133.9980   16.6510 C.3    96  SER96       0.2089
    123  OG        18.7620 -134.9980   15.6580 O.3    96  SER96      -0.2183
    124  N         16.2450 -137.2830    6.2900 N.3   130  GLY130     -0.1210
    125  CA        15.4610 -138.1410    7.1690 C.3   130  GLY130      0.1956
    126  C         15.9210 -139.5840    7.1240 C.2   130  GLY130      0.2612
    127  O         16.7360 -139.9630    6.2850 O.2   130  GLY130     -0.2717
    128  N         15.3760 -140.3950    8.0250 N.am  131  SER131     -0.1952
    129  CA        15.7220 -141.8110    8.0970 C.3   131  SER131      0.1924
    130  C         15.2770 -142.5890    6.8530 C.2   131  SER131      0.2314
    131  O         15.7940 -143.6750    6.5800 O.2   131  SER131     -0.2863
    132  CB        15.1120 -142.4370    9.3540 C.3   131  SER131      0.2116
    133  OG        13.6940 -142.4540    9.2870 O.3   131  SER131     -0.2180
    134  N         10.0420 -145.6990   10.3480 N.3   170  TYR170     -0.1241
    135  CA         9.9090 -144.4420   11.0880 C.3   170  TYR170      0.1605
    136  C          9.2710 -143.3280   10.2470 C.2   170  TYR170      0.2264
    137  O          9.0370 -142.2240   10.7450 O.2   170  TYR170     -0.2867
    138  CB        11.2680 -144.0410   11.6840 C.3   170  TYR170      0.0534
    139  CG        11.7650 -145.0790   12.6790 C.ar  170  TYR170     -0.0201
    140  CD1       10.9410 -145.5180   13.7150 C.ar  170  TYR170     -0.0009
    141  CD2       13.0370 -145.6470   12.5730 C.ar  170  TYR170     -0.0009
    142  CE1       11.3640 -146.4770   14.6190 C.ar  170  TYR170      0.0417
    143  CE2       13.4690 -146.6080   13.4800 C.ar  170  TYR170      0.0417
    144  CZ        12.6270 -147.0190   14.5000 C.ar  170  TYR170      0.1957
    145  OH        13.0390 -147.9700   15.4070 O.3   170  TYR170     -0.2866
@<TRIPOS>BOND
     1   127   126    2
     2   124   125    1
     3   131   130    2
     4   130   129    1
     5   126   125    1
     6   126   128   am
     7     4     3    2
     8     3     2    1
     9    75    74    2
    10    74    73    1
    11    81    82    1
    12   128   129    1
    13   129   132    1
    14    76    73    1
    15    76    77    1
    16     7     5    1
    17    73    72    1
    18     2     5    1
    19     2     1    1
    20    84    83    2
    21    93    90    1
    22    78    77    1
    23    78    79    1
    24   133   132    1
    25    82    83    1
    26    82    85    1
    27    83    89   am
    28     5     6    1
    29    80    79    1
    30    68    67    2
    31    89    90    1
    32     8     9    1
    33    18    16    1
    34    90    91    1
    35   136   137    2
    36   136   135    1
    37   134   135    1
    38    85    86    1
    39    86    87    1
    40    16    17    1
    41    16    15    2
    42    12     9    1
    43    12    13    1
    44    67    66    1
    45    15    14    1
    46   135   138    1
    47     9    10    1
    48    91    92    2
    49    91    94   am
    50    88    87    1
    51    14    13    1
    52   138   139    1
    53    65    66    1
    54    11    10    2
    55    66    69    1
    56    94    95    1
    57    10    19   am
    58   141   139   ar
    59   141   143   ar
    60   139   140   ar
    61    69    70    1
    62    69    71    1
    63   117   116    1
    64   116   113    1
    65    95    96    1
    66    19    20    1
    67   143   144   ar
    68   140   142   ar
    69    62    61    2
    70   115   114    2
    71   113   114    1
    72   113   112    1
    73    61    60    1
    74   144   142   ar
    75   144   145    1
    76    20    23    1
    77    20    21    1
    78    96    97    2
    79    96    98   am
    80    30    28    1
    81    64    63    1
    82   120   121    2
    83   120   119    1
    84    29    28    1
    85    21    24   am
    86    21    22    2
    87    98    99    1
    88   123   122    1
    89    60    63    1
    90    60    59    1
    91    24    25    1
    92   101   100    2
    93    28    25    1
    94   119   122    1
    95   119   118    1
    96   105   104    2
    97   100    99    1
    98   100   102   am
    99   103   102    1
   100   103   106    1
   101   103   104    1
   102    59    56   am
   103    25    26    1
   104   104   107   am
   105    39    38    2
   106    54    55    1
   107    56    57    2
   108    56    55    1
   109    26    27    2
   110    26    31   am
   111   110   109    2
   112   107   108    1
   113    43    42    2
   114   109   108    1
   115    42    41    1
   116    55    58    1
   117    38    37    1
   118    31    32    1
   119   108   111    1
   120    40    41    1
   121    41    44    1
   122    37    36    1
   123    36    33   am
   124    32    33    1
   125    32    35    1
   126    33    34    2
   127    44    45    1
   128    45    47   ar
   129    45    46   ar
   130    50    47   ar
   131    50    52   ar
   132    47    49   ar
   133    46    48   ar
   134    52    53   ar
   135    49    48   ar
   136    49    51   ar
   137    53    51   ar
