@<TRIPOS>MOLECULE
tmp/4no7A01.pdb
 177 173 0 0 0
SMALL
GASTEIGER

@<TRIPOS>ATOM
      1  N        -15.4410   -4.5380   24.3860 N.3    57  TYR57      -0.1227
      2  CA       -14.0670   -4.5930   24.8590 C.3    57  TYR57       0.1736
      3  C        -13.1410   -3.6700   24.0990 C.2    57  TYR57       0.2595
      4  O        -11.9330   -3.7490   24.2510 O.2    57  TYR57      -0.2718
      5  CB       -13.5320   -6.0310   24.9170 C.3    57  TYR57       0.0548
      6  CG       -14.1830   -6.7580   26.0560 C.ar   57  TYR57      -0.0200
      7  CD1      -13.6120   -6.7490   27.3320 C.ar   57  TYR57      -0.0009
      8  CD2      -15.3940   -7.4090   25.8750 C.ar   57  TYR57      -0.0009
      9  CE1      -14.2250   -7.3930   28.3820 C.ar   57  TYR57       0.0417
     10  CE2      -16.0250   -8.0480   26.9270 C.ar   57  TYR57       0.0417
     11  CZ       -15.4300   -8.0420   28.1750 C.ar   57  TYR57       0.1957
     12  OH       -16.0410   -8.6850   29.2360 O.3    57  TYR57      -0.2866
     13  N        -13.7280   -2.7680   23.3220 N.am   58  VAL58      -0.1966
     14  CA       -12.9860   -1.6590   22.7310 C.3    58  VAL58       0.1727
     15  C        -12.9870   -0.5080   23.7270 C.2    58  VAL58       0.2616
     16  O        -14.0470    0.0410   24.0430 O.2    58  VAL58      -0.2715
     17  CB       -13.6390   -1.2100   21.3950 C.3    58  VAL58       0.0290
     18  CG1      -12.9400    0.0650   20.8520 C.3    58  VAL58       0.0023
     19  CG2      -13.5670   -2.3330   20.3670 C.3    58  VAL58       0.0023
     20  N        -11.7950   -0.1350   24.2040 N.am   59  ARG59      -0.1963
     21  CA       -11.6900    0.7830   25.3320 C.3    59  ARG59       0.1729
     22  C        -11.0690    2.0950   24.9070 C.2    59  ARG59       0.2617
     23  O        -10.3630    2.1560   23.9130 O.2    59  ARG59      -0.2715
     24  CB       -10.8430    0.1450   26.4480 C.3    59  ARG59       0.0348
     25  CG       -11.4320   -1.1490   27.0260 C.3    59  ARG59       0.0492
     26  CD       -10.4190   -1.8250   27.9580 C.3    59  ARG59       0.2205
     27  NE       -10.9180   -3.0690   28.5470 N.pl3  59  ARG59      -0.0865
     28  CZ       -11.5330   -3.1480   29.7240 C.cat  59  ARG59       0.5346
     29  NH1      -11.7350   -2.0560   30.4600 N.pl3  59  ARG59       0.1354
     30  NH2      -11.9320   -4.3320   30.1740 N.pl3  59  ARG59       0.1354
     31  N        -11.3780    3.1580   25.6410 N.am   60  SER60      -0.1936
     32  CA       -10.5630    4.3580   25.5640 C.3    60  SER60       0.2055
     33  C         -9.1630    3.9610   26.0210 C.2    60  SER60       0.2644
     34  O         -8.9870    3.2270   26.9970 O.2    60  SER60      -0.2714
     35  CB       -11.1400    5.4630   26.4440 C.3    60  SER60       0.2130
     36  OG       -11.3450    4.9820   27.7530 O.3    60  SER60      -0.2179
     37  N         -8.1650    4.4150   25.2920 N.am   61  THR61      -0.1937
     38  CA        -6.8090    4.0180   25.5950 C.3    61  THR61       0.2013
     39  C         -5.8980    5.1510   25.1290 C.2    61  THR61       0.2484
     40  O         -6.2910    5.9160   24.2380 O.2    61  THR61      -0.2729
     41  CB        -6.4860    2.6440   24.9300 C.3    61  THR61       0.1807
     42  OG1       -5.1930    2.1890   25.3450 O.3    61  THR61      -0.2208
     43  CG2       -6.5470    2.7250   23.4060 C.3    61  THR61       0.0379
     44  N         -4.7110    5.3000   25.7610 N.am   62  PRO62      -0.2715
     45  CA        -3.7390    6.3050   25.3240 C.3    62  PRO62       0.1536
     46  C         -3.4870    6.2760   23.8140 C.2    62  PRO62       0.2598
     47  O         -3.7090    5.2540   23.1570 O.2    62  PRO62      -0.2715
     48  CB        -2.4710    5.9080   26.0840 C.3    62  PRO62       0.0310
     49  CG        -2.9870    5.3200   27.3510 C.3    62  PRO62       0.0237
     50  CD        -4.2320    4.5670   26.9500 C.3    62  PRO62       0.0939
     51  N         -3.0250    7.4040   23.2800 N.am   63  GLU63      -0.1964
     52  CA        -2.7220    7.5540   21.8580 C.3    63  GLU63       0.1733
     53  C         -1.7510    6.4820   21.3650 C.2    63  GLU63       0.2617
     54  O         -0.9060    5.9940   22.1300 O.2    63  GLU63      -0.2715
     55  CB        -2.1070    8.9360   21.6110 C.3    63  GLU63       0.0429
     56  CG        -2.3730    9.5230   20.2270 C.3    63  GLU63       0.1163
     57  CD        -3.6160   10.3990   20.1880 C.2    63  GLU63       0.3649
     58  OE1       -4.5670   10.1390   20.9630 O.co2  63  GLU63      -0.2457
     59  OE2       -3.6420   11.3560   19.3810 O.co2  63  GLU63      -0.2457
     60  N         -1.8780    6.1200   20.0890 N.am   64  GLY64      -0.1940
     61  CA        -0.8860    5.2800   19.4280 C.3    64  GLY64       0.2014
     62  C         -1.3570    3.8840   19.0790 C.2    64  GLY64       0.2639
     63  O         -2.4590    3.4720   19.4560 O.2    64  GLY64      -0.2714
     64  N         -0.5000    3.1650   18.3550 N.am   65  SER65      -0.1949
     65  CA        -0.7750    1.8120   17.8940 C.3    65  SER65       0.1924
     66  C          0.4890    1.1960   17.3020 C.2    65  SER65       0.2314
     67  O          1.4430    1.9170   16.9650 O.2    65  SER65      -0.2863
     68  CB        -1.8890    1.8250   16.8350 C.3    65  SER65       0.2116
     69  OG        -1.4710    2.5000   15.6580 O.3    65  SER65      -0.2180
     70  N        -11.8700   -8.7250   23.3000 N.3   147  ILE147     -0.1245
     71  CA       -11.7950   -8.0810   21.9920 C.3   147  ILE147      0.1561
     72  C        -11.6960   -9.1280   20.8730 C.2   147  ILE147      0.2260
     73  O        -12.1690   -8.8880   19.7650 O.2   147  ILE147     -0.2867
     74  CB       -10.5880   -7.0860   21.9290 C.3   147  ILE147      0.0252
     75  CG1      -10.5200   -6.3740   20.5810 C.3   147  ILE147      0.0019
     76  CG2       -9.2650   -7.7830   22.1650 C.3   147  ILE147      0.0019
     77  CD1      -11.1650   -5.0790   20.5660 C.3   147  ILE147      0.0001
     78  N        -16.7600    3.7250   13.8390 N.3   198  MET198     -0.1230
     79  CA       -16.3400    4.6610   14.8620 C.3   198  MET198      0.1702
     80  C        -14.8090    4.7480   14.9690 C.2   198  MET198      0.2592
     81  O        -14.2550    5.8430   14.9540 O.2   198  MET198     -0.2718
     82  CB       -16.9820    4.2940   16.1880 C.3   198  MET198      0.0401
     83  CG       -16.7430    5.3200   17.2720 C.3   198  MET198      0.0596
     84  SD       -17.1710    4.6230   18.8600 S.3   198  MET198     -0.1393
     85  CE       -16.0600    3.2400   18.9730 C.3   198  MET198      0.0692
     86  N        -14.1200    3.6050   15.0390 N.am  199  ILE199     -0.1980
     87  CA       -12.6640    3.5810   15.1980 C.3   199  ILE199      0.1595
     88  C        -11.9740    4.2870   14.0190 C.2   199  ILE199      0.2287
     89  O        -11.0900    5.1260   14.2120 O.2   199  ILE199     -0.2864
     90  CB       -12.1410    2.1390   15.3750 C.3   199  ILE199      0.0276
     91  CG1      -12.6350    1.5880   16.7260 C.3   199  ILE199      0.0022
     92  CG2      -10.5840    2.0880   15.2550 C.3   199  ILE199      0.0022
     93  CD1      -12.6580    0.0910   16.8230 C.3   199  ILE199      0.0001
     94  N        -12.5980    7.8870   14.4570 N.3   202  TYR202     -0.1227
     95  CA       -11.8700    8.3360   15.6400 C.3   202  TYR202      0.1736
     96  C        -10.4130    8.6190   15.3120 C.2   202  TYR202      0.2595
     97  O         -9.8300    9.5820   15.8170 O.2   202  TYR202     -0.2718
     98  CB       -11.9520    7.2950   16.7470 C.3   202  TYR202      0.0548
     99  CG       -11.1360    7.6360   17.9700 C.ar  202  TYR202     -0.0200
    100  CD1      -11.6570    8.4340   18.9760 C.ar  202  TYR202     -0.0009
    101  CD2       -9.8470    7.1180   18.1230 C.ar  202  TYR202     -0.0009
    102  CE1      -10.9140    8.7240   20.1060 C.ar  202  TYR202      0.0417
    103  CE2       -9.0970    7.4020   19.2400 C.ar  202  TYR202      0.0417
    104  CZ        -9.6390    8.2030   20.2240 C.ar  202  TYR202      0.1957
    105  OH        -8.9040    8.4890   21.3360 O.3   202  TYR202     -0.2866
    106  N         -9.8320    7.7570   14.4850 N.am  203  TYR203     -0.1976
    107  CA        -8.4570    7.9120   14.0420 C.3   203  TYR203      0.1639
    108  C         -8.2090    9.3120   13.4720 C.2   203  TYR203      0.2290
    109  O         -7.1930    9.9340   13.7670 O.2   203  TYR203     -0.2864
    110  CB        -8.1400    6.8500   12.9980 C.3   203  TYR203      0.0560
    111  CG        -6.6760    6.7580   12.6330 C.ar  203  TYR203     -0.0198
    112  CD1       -5.7640    6.1250   13.4770 C.ar  203  TYR203     -0.0009
    113  CD2       -6.2050    7.2940   11.4400 C.ar  203  TYR203     -0.0009
    114  CE1       -4.4230    6.0270   13.1380 C.ar  203  TYR203      0.0417
    115  CE2       -4.8670    7.2060   11.0930 C.ar  203  TYR203      0.0417
    116  CZ        -3.9780    6.5790   11.9490 C.ar  203  TYR203      0.1957
    117  OH        -2.6390    6.4850   11.6020 O.3   203  TYR203     -0.2866
    118  N        -10.6400   12.6170   17.1150 N.3   206  HIS206     -0.1241
    119  CA       -10.7550   11.9590   18.4150 C.3   206  HIS206      0.1621
    120  C        -12.0390   12.2500   19.1650 C.2   206  HIS206      0.2264
    121  O        -12.3110   11.6270   20.1900 O.2   206  HIS206     -0.2867
    122  CB        -9.5340   12.2740   19.2850 C.3   206  HIS206      0.0745
    123  CG        -8.3160   11.4970   18.9070 C.ar  206  HIS206      0.0817
    124  ND1       -8.2080   10.8100   17.7180 N.ar  206  HIS206     -0.2268
    125  CD2       -7.1310   11.3370   19.5420 C.ar  206  HIS206      0.1154
    126  CE1       -7.0210   10.2330   17.6500 C.ar  206  HIS206      0.1986
    127  NE2       -6.3460   10.5430   18.7420 N.ar  206  HIS206     -0.2212
    128  N        -14.7910   11.5520   17.8320 N.3   208  CYS208     -0.1221
    129  CA       -15.7380   10.5290   17.3670 C.3   208  CYS208      0.1808
    130  C        -15.8670    9.3760   18.3650 C.2   208  CYS208      0.2601
    131  O        -14.9570    8.5710   18.5270 O.2   208  CYS208     -0.2717
    132  CB       -15.3890   10.0290   15.9800 C.3   208  CYS208      0.0970
    133  SG       -16.6080    8.8050   15.4600 S.3   208  CYS208     -0.0800
    134  N        -17.0140    9.3050   19.0260 N.am  209  GLU209     -0.1979
    135  CA       -17.2370    8.3030   20.0460 C.3   209  GLU209      0.1602
    136  C        -18.5790    7.6330   19.8380 C.2   209  GLU209      0.2287
    137  O        -19.1480    7.0490   20.7490 O.2   209  GLU209     -0.2864
    138  CB       -17.2240    8.9660   21.4080 C.3   209  GLU209      0.0415
    139  CG       -15.8310    9.3320   21.8340 C.3   209  GLU209      0.1163
    140  CD       -15.8260    9.7890   23.2620 C.2   209  GLU209      0.3649
    141  OE1      -15.8140    8.9130   24.1550 O.co2 209  GLU209     -0.2457
    142  OE2      -15.8670   11.0240   23.4860 O.co2 209  GLU209     -0.2457
    143  N        -19.2770    5.1380   22.9590 N.3   223  MET223     -0.1245
    144  CA       -18.3710    4.9780   24.0850 C.3   223  MET223      0.1570
    145  C        -19.0970    5.2580   25.4010 C.2   223  MET223      0.2261
    146  O        -19.4410    6.4040   25.7100 O.2   223  MET223     -0.2867
    147  CB       -17.1790    5.9240   23.9330 C.3   223  MET223      0.0387
    148  CG       -16.3120    5.6170   22.7240 C.3   223  MET223      0.0595
    149  SD       -15.6690    3.9440   22.6480 S.3   223  MET223     -0.1393
    150  CE       -14.5800    3.8920   24.0840 C.3   223  MET223      0.0692
    151  N         -7.1720   -0.9310   12.3340 N.3   439  LEU439     -0.1231
    152  CA        -6.7580    0.0210   13.3610 C.3   439  LEU439      0.1693
    153  C         -6.9100   -0.5410   14.7730 C.2   439  LEU439      0.2591
    154  O         -5.9730   -0.4570   15.5710 O.2   439  LEU439     -0.2718
    155  CB        -7.5030    1.3500   13.1990 C.3   439  LEU439      0.0284
    156  CG        -7.1550    2.1880   11.9600 C.3   439  LEU439      0.0019
    157  CD1       -8.1440    3.3290   11.7300 C.3   439  LEU439      0.0001
    158  CD2       -5.7120    2.7230   12.0210 C.3   439  LEU439      0.0001
    159  N         -8.0620   -1.1420   15.0750 N.am  440  VAL440     -0.1980
    160  CA        -8.2770   -1.7530   16.3880 C.3   440  VAL440      0.1595
    161  C         -7.2670   -2.8580   16.6570 C.2   440  VAL440      0.2287
    162  O         -6.8510   -3.0590   17.7940 O.2   440  VAL440     -0.2864
    163  CB        -9.6600   -2.4150   16.5550 C.3   440  VAL440      0.0276
    164  CG1      -10.0440   -2.3970   18.0220 C.3   440  VAL440      0.0022
    165  CG2      -10.7150   -1.7070   15.7540 C.3   440  VAL440      0.0022
    166  N         -3.9390   -1.2970   17.6310 N.3   443  VAL443     -0.1231
    167  CA        -4.0200   -0.8570   19.0240 C.3   443  VAL443      0.1692
    168  C         -4.0220   -2.0560   19.9730 C.2   443  VAL443      0.2591
    169  O         -3.3320   -2.0470   20.9970 O.2   443  VAL443     -0.2718
    170  CB        -5.2650    0.0330   19.2820 C.3   443  VAL443      0.0266
    171  CG1       -5.3460    0.4260   20.7490 C.3   443  VAL443      0.0020
    172  CG2       -5.2220    1.2810   18.4230 C.3   443  VAL443      0.0020
    173  N         -4.7910   -3.0860   19.6160 N.am  444  ALA444     -0.1980
    174  CA        -4.8630   -4.3240   20.3840 C.3   444  ALA444      0.1597
    175  C         -3.5060   -5.0120   20.3890 C.2   444  ALA444      0.2287
    176  O         -3.1820   -5.7460   21.3220 O.2   444  ALA444     -0.2864
    177  CB        -5.9210   -5.2540   19.8090 C.3   444  ALA444      0.0319
@<TRIPOS>BOND
     1   115   113   ar
     2   115   116   ar
     3   113   111   ar
     4   117   116    1
     5   157   156    1
     6   116   114   ar
     7   156   158    1
     8   156   155    1
     9   151   152    1
    10   111   110    1
    11   111   112   ar
    12   110   107    1
    13   114   112   ar
    14   155   152    1
    15   152   153    1
    16   108   109    2
    17   108   107    1
    18    78    79    1
    19    88    89    2
    20    88    87    1
    21   107   106    1
    22    94    95    1
    23   106    96   am
    24   153   159   am
    25   153   154    2
    26    79    80    1
    27    79    82    1
    28    81    80    2
    29    80    86   am
    30    86    87    1
    31   159   160    1
    32    87    90    1
    33    92    90    1
    34    96    95    1
    35    96    97    2
    36    90    91    1
    37   133   132    1
    38    95    98    1
    39    69    68    1
    40   165   163    1
    41   132   129    1
    42    82    83    1
    43   160   163    1
    44   160   161    1
    45   163   164    1
    46   161   162    2
    47    91    93    1
    48    98    99    1
    49    68    65    1
    50    67    66    2
    51   118   119    1
    52    83    84    1
    53    66    65    1
    54   129   128    1
    55   129   130    1
    56   166   167    1
    57   126   124   ar
    58   126   127   ar
    59   124   123   ar
    60    65    64    1
    61    99   101   ar
    62    99   100   ar
    63   101   103   ar
    64    64    62   am
    65   130   131    2
    66   130   134   am
    67   119   120    1
    68   119   122    1
    69   172   170    1
    70   127   125   ar
    71    84    85    1
    72   123   122    1
    73   123   125   ar
    74   100   102   ar
    75   167   170    1
    76   167   168    1
    77   134   135    1
    78    62    61    1
    79    62    63    2
    80   120   121    2
    81   103   104   ar
    82   170   171    1
    83    59    57   ar
    84    61    60    1
    85   173   168   am
    86   173   174    1
    87    73    72    2
    88   177   174    1
    89   136   135    1
    90   136   137    2
    91   168   169    2
    92   135   138    1
    93    60    53   am
    94   102   104   ar
    95    57    56    1
    96    57    58   ar
    97   104   105    1
    98    56    55    1
    99    19    17    1
   100   174   175    1
   101   175   176    2
   102    77    75    1
   103    75    74    1
   104    18    17    1
   105    72    71    1
   106    53    52    1
   107    53    54    2
   108    17    14    1
   109   138   139    1
   110    55    52    1
   111   139   140    1
   112    52    51    1
   113    74    71    1
   114    74    76    1
   115    71    70    1
   116   149   148    1
   117   149   150    1
   118   148   147    1
   119    14    13    1
   120    14    15    1
   121   143   144    1
   122    47    46    2
   123   140   142   ar
   124   140   141   ar
   125    51    46   am
   126    13     3   am
   127    43    41    1
   128    15    16    2
   129    15    20   am
   130    46    45    1
   131    23    22    2
   132   147   144    1
   133   144   145    1
   134     3     4    2
   135     3     2    1
   136    20    21    1
   137    40    39    2
   138     1     2    1
   139     2     5    1
   140    22    21    1
   141    22    31   am
   142     5     6    1
   143    41    42    1
   144    41    38    1
   145    39    38    1
   146    39    44   am
   147    37    38    1
   148    37    33   am
   149    45    44    1
   150    45    48    1
   151    21    24    1
   152   145   146    2
   153    32    31    1
   154    32    33    1
   155    32    35    1
   156    44    50    1
   157     8     6   ar
   158     8    10   ar
   159    33    34    2
   160     6     7   ar
   161    48    49    1
   162    35    36    1
   163    24    25    1
   164    10    11   ar
   165    50    49    1
   166    25    26    1
   167     7     9   ar
   168    26    27    1
   169    11     9   ar
   170    11    12    1
   171    27    28    2
   172    28    30    1
   173    28    29    1
