@<TRIPOS>MOLECULE
tmp/4no9H00.pdb
 133 124 0 0 0
SMALL
GASTEIGER

@<TRIPOS>ATOM
      1  N         64.0580 -139.8410   44.2290 N.3     1  THR1       -0.1218
      2  CA        64.4350 -139.0160   45.3940 C.3     1  THR1        0.1862
      3  C         64.5370 -139.7000   46.7870 C.2     1  THR1        0.2287
      4  O         63.6150 -140.3800   47.2340 O.2     1  THR1       -0.2866
      5  CB        63.5340 -137.7830   45.5790 C.3     1  THR1        0.1770
      6  OG1       63.3900 -137.0700   44.3600 O.3     1  THR1       -0.2211
      7  CG2       64.1770 -136.7990   46.5540 C.3     1  THR1        0.0375
      8  N         69.9400 -137.6700   42.1670 N.3    19  ARG19      -0.1231
      9  CA        69.4340 -138.3730   40.9840 C.3    19  ARG19       0.1694
     10  C         68.0750 -137.8240   40.5600 C.2    19  ARG19       0.2593
     11  O         67.2240 -137.5330   41.3980 O.2    19  ARG19      -0.2718
     12  CB        69.3180 -139.8780   41.2470 C.3    19  ARG19       0.0321
     13  CG        68.7120 -140.6630   40.0880 C.3    19  ARG19       0.0489
     14  CD        68.7150 -142.1610   40.3430 C.3    19  ARG19       0.2205
     15  NE        70.0630 -142.7230   40.3390 N.pl3  19  ARG19      -0.0865
     16  CZ        70.3440 -144.0210   40.4260 C.cat  19  ARG19       0.5346
     17  NH1       69.3750 -144.9260   40.5250 N.pl3  19  ARG19       0.1354
     18  NH2       71.6090 -144.4210   40.4110 N.pl3  19  ARG19       0.1354
     19  N         67.8810 -137.7020   39.2500 N.am   20  SER20      -0.1938
     20  CA        66.6120 -137.2640   38.6730 C.3    20  SER20       0.2055
     21  C         66.2280 -138.2420   37.5710 C.2    20  SER20       0.2644
     22  O         67.0460 -138.5400   36.7000 O.2    20  SER20      -0.2714
     23  CB        66.7550 -135.8580   38.0930 C.3    20  SER20       0.2130
     24  OG        65.4930 -135.2320   37.9510 O.3    20  SER20      -0.2179
     25  N         64.9950 -138.7410   37.6030 N.am   21  THR21      -0.1936
     26  CA        64.5840 -139.7950   36.6750 C.3    21  THR21       0.2028
     27  C         63.3880 -139.4510   35.7970 C.2    21  THR21       0.2642
     28  O         62.5450 -138.6250   36.1450 O.2    21  THR21      -0.2714
     29  CB        64.2490 -141.1070   37.4110 C.3    21  THR21       0.1808
     30  OG1       63.2380 -140.8670   38.4020 O.3    21  THR21      -0.2208
     31  CG2       65.4960 -141.6860   38.0640 C.3    21  THR21       0.0379
     32  N         63.3530 -140.1190   34.6480 N.am   22  GLN22      -0.1963
     33  CA        62.2270 -140.1170   33.7280 C.3    22  GLN22       0.1733
     34  C         61.9490 -141.5900   33.4490 C.2    22  GLN22       0.2616
     35  O         62.6150 -142.2110   32.6150 O.2    22  GLN22      -0.2715
     36  CB        62.6010 -139.3610   32.4490 C.3    22  GLN22       0.0408
     37  CG        61.6700 -139.5620   31.2540 C.3    22  GLN22       0.0908
     38  CD        60.5370 -138.5540   31.1900 C.2    22  GLN22       0.2608
     39  OE1       59.3630 -138.9250   31.2000 O.2    22  GLN22      -0.2717
     40  NE2       60.8830 -137.2730   31.1080 N.am   22  GLN22      -0.0878
     41  N         60.9840 -142.1540   34.1710 N.am   23  GLY23      -0.1955
     42  CA        60.7570 -143.5930   34.1420 C.3    23  GLY23       0.1869
     43  C         61.9790 -144.3160   34.6920 C.2    23  GLY23       0.2309
     44  O         62.4840 -143.9470   35.7520 O.2    23  GLY23      -0.2863
     45  N         67.8340 -139.0950   34.0770 N.3    27  ALA27      -0.1231
     46  CA        67.9320 -137.9210   33.2130 C.3    27  ALA27       0.1694
     47  C         69.0190 -136.9530   33.6830 C.2    27  ALA27       0.2592
     48  O         69.6650 -136.3030   32.8610 O.2    27  ALA27      -0.2718
     49  CB        66.5880 -137.2150   33.1280 C.3    27  ALA27       0.0304
     50  N         69.2120 -136.8580   34.9980 N.am   28  ASP28      -0.1974
     51  CA        70.2340 -135.9830   35.5810 C.3    28  ASP28       0.1709
     52  C         70.9330 -136.7020   36.7340 C.2    28  ASP28       0.2293
     53  O         70.2880 -137.0970   37.7050 O.2    28  ASP28      -0.2864
     54  CB        69.5940 -134.6780   36.0740 C.3    28  ASP28       0.1436
     55  CG        70.6180 -133.5960   36.4000 C.2    28  ASP28       0.3671
     56  OD1       70.2210 -132.4110   36.4570 O.co2  28  ASP28      -0.2456
     57  OD2       71.8100 -133.9150   36.6050 O.co2  28  ASP28      -0.2456
     58  N         71.6540 -133.2820   40.0280 N.3    31  CYS31      -0.1235
     59  CA        70.7440 -132.1500   40.1890 C.3    31  CYS31       0.1677
     60  C         70.7820 -131.6680   41.6320 C.2    31  CYS31       0.2270
     61  O         71.2960 -132.3590   42.5120 O.2    31  CYS31      -0.2867
     62  CB        69.3130 -132.5310   39.8020 C.3    31  CYS31       0.0956
     63  SG        68.5420 -133.7540   40.8850 S.3    31  CYS31      -0.0801
     64  N         68.5620 -130.6450   44.7630 N.3    33  LYS33      -0.1245
     65  CA        67.2310 -130.7390   45.3600 C.3    33  LYS33       0.1561
     66  C         67.0910 -129.8660   46.6030 C.2    33  LYS33       0.2260
     67  O         66.0000 -129.7510   47.1570 O.2    33  LYS33      -0.2867
     68  CB        66.9130 -132.1930   45.6940 C.3    33  LYS33       0.0271
     69  CG        67.0890 -133.1130   44.5000 C.3    33  LYS33       0.0035
     70  CD        66.6520 -134.5290   44.7990 C.3    33  LYS33       0.0206
     71  CE        67.0930 -135.4620   43.6850 C.3    33  LYS33       0.1093
     72  NZ        66.6480 -136.8560   43.9290 N.3    33  LYS33      -0.1314
     73  N         66.9650 -126.2030   48.1580 N.3    35  HIS35      -0.1241
     74  CA        66.5260 -124.9050   47.6600 C.3    35  HIS35       0.1621
     75  C         66.5940 -123.8480   48.7420 C.2    35  HIS35       0.2264
     76  O         66.1110 -124.0630   49.8510 O.2    35  HIS35      -0.2867
     77  CB        65.0860 -124.9920   47.1740 C.3    35  HIS35       0.0745
     78  CG        64.8600 -126.0460   46.1390 C.ar   35  HIS35       0.0817
     79  ND1       65.2750 -125.9060   44.8330 N.ar   35  HIS35      -0.2268
     80  CD2       64.2530 -127.2540   46.2150 C.ar   35  HIS35       0.1154
     81  CE1       64.9400 -126.9850   44.1490 C.ar   35  HIS35       0.1986
     82  NE2       64.3180 -127.8180   44.9640 N.ar   35  HIS35      -0.2212
     83  N         63.1720 -130.8890   48.3140 N.3    45  GLY45      -0.1210
     84  CA        61.9380 -131.2570   47.6240 C.3    45  GLY45       0.1956
     85  C         62.0090 -132.5620   46.8510 C.2    45  GLY45       0.2612
     86  O         62.9430 -132.7900   46.0820 O.2    45  GLY45      -0.2717
     87  N         61.0180 -133.4230   47.0760 N.am   46  ALA46      -0.1965
     88  CA        60.8180 -134.6340   46.2860 C.3    46  ALA46       0.1728
     89  C         59.5050 -134.5240   45.5270 C.2    46  ALA46       0.2617
     90  O         58.6760 -133.6660   45.8330 O.2    46  ALA46      -0.2715
     91  CB        60.7940 -135.8580   47.1860 C.3    46  ALA46       0.0334
     92  N         59.3170 -135.3970   44.5430 N.am   47  GLY47      -0.1940
     93  CA        58.0920 -135.4200   43.7470 C.3    47  GLY47       0.2014
     94  C         58.3200 -134.8940   42.3430 C.2    47  GLY47       0.2640
     95  O         59.3220 -135.2240   41.7060 O.2    47  GLY47      -0.2714
     96  N         57.3870 -134.0800   41.8570 N.am   48  THR48      -0.1936
     97  CA        57.4870 -133.4940   40.5230 C.3    48  THR48       0.2028
     98  C         58.5490 -132.3930   40.5370 C.2    48  THR48       0.2642
     99  O         58.3760 -131.3670   41.1950 O.2    48  THR48      -0.2714
    100  CB        56.1290 -132.9220   40.0690 C.3    48  THR48       0.1808
    101  OG1       55.1380 -133.9550   40.1160 O.3    48  THR48      -0.2208
    102  CG2       56.2060 -132.3660   38.6500 C.3    48  THR48       0.0379
    103  N         59.6420 -132.6150   39.8080 N.am   49  ALA49      -0.1963
    104  CA        60.8210 -131.7430   39.8750 C.3    49  ALA49       0.1728
    105  C         60.5070 -130.2730   39.5930 C.2    49  ALA49       0.2616
    106  O         60.9030 -129.3960   40.3610 O.2    49  ALA49      -0.2715
    107  CB        61.9010 -132.2400   38.9270 C.3    49  ALA49       0.0334
    108  N         59.7980 -130.0090   38.4990 N.am   50  ALA50      -0.1977
    109  CA        59.4110 -128.6390   38.1480 C.3    50  ALA50       0.1597
    110  C         58.5340 -127.9840   39.2130 C.2    50  ALA50       0.2287
    111  O         58.6260 -126.7760   39.4330 O.2    50  ALA50      -0.2864
    112  CB        58.6840 -128.6210   36.8210 C.3    50  ALA50       0.0319
    113  N         58.4120 -128.6960   42.6330 N.3    52  THR52      -0.1218
    114  CA        59.1710 -128.3780   43.8460 C.3    52  THR52       0.1862
    115  C         60.0370 -127.1470   43.6140 C.2    52  THR52       0.2287
    116  O         60.2300 -126.3500   44.5250 O.2    52  THR52      -0.2866
    117  CB        60.0750 -129.5360   44.3220 C.3    52  THR52       0.1770
    118  OG1       61.0870 -129.8060   43.3440 O.3    52  THR52      -0.2211
    119  CG2       59.2640 -130.7970   44.5810 C.3    52  THR52       0.0375
    120  N         60.2830 -139.0120   50.0750 N.3   128  GLY128     -0.1210
    121  CA        60.7750 -139.5190   48.7950 C.3   128  GLY128      0.1956
    122  C         60.7120 -141.0320   48.7010 C.2   128  GLY128      0.2612
    123  O         60.3760 -141.7100   49.6710 O.2   128  GLY128     -0.2717
    124  N         61.0380 -141.5630   47.5250 N.am  129  SER129     -0.1952
    125  CA        61.0280 -143.0100   47.2980 C.3   129  SER129      0.1924
    126  C         62.1010 -143.7280   48.1200 C.2   129  SER129      0.2314
    127  O         61.9840 -144.9210   48.3930 O.2   129  SER129     -0.2863
    128  CB        61.2140 -143.3260   45.8100 C.3   129  SER129      0.2116
    129  OG        62.4870 -142.9070   45.3450 O.3   129  SER129     -0.2180
    130  N         65.2950 -145.3080   42.8930 N.3   168  GLY168     -0.1225
    131  CA        64.8970 -143.9270   42.6310 C.3   168  GLY168      0.1811
    132  C         65.8990 -142.8850   43.1080 C.2   168  GLY168      0.2280
    133  O         65.6980 -141.6880   42.8930 O.2   168  GLY168     -0.2866
@<TRIPOS>BOND
     1    40    38   am
     2    38    39    2
     3    38    37    1
     4    37    36    1
     5    36    33    1
     6    35    34    2
     7    48    47    2
     8    49    46    1
     9    46    47    1
    10    46    45    1
    11    34    33    1
    12    34    41   am
    13    47    50   am
    14    33    32    1
    15    42    41    1
    16    42    43    1
    17    32    27   am
    18    43    44    2
    19    50    51    1
    20    51    54    1
    21    51    52    1
    22    27    28    2
    23    27    26    1
    24    54    55    1
    25    55    56   ar
    26    55    57   ar
    27    26    29    1
    28    26    25    1
    29    22    21    2
    30    52    53    2
    31   112   109    1
    32    29    31    1
    33    29    30    1
    34    21    25   am
    35    21    20    1
    36    24    23    1
    37    23    20    1
    38   109   108    1
    39   109   110    1
    40   108   105   am
    41   102   100    1
    42    20    19    1
    43   107   104    1
    44   110   111    2
    45    19    10   am
    46   105   104    1
    47   105   106    2
    48    62    59    1
    49    62    63    1
    50   103   104    1
    51   103    98   am
    52    58    59    1
    53   100   101    1
    54   100    97    1
    55    13    14    1
    56    13    12    1
    57    59    60    1
    58    15    14    1
    59    15    16    2
    60    18    16    1
    61    16    17    1
    62    97    98    1
    63    97    96    1
    64    98    99    2
    65    10     9    1
    66    10    11    2
    67     9    12    1
    68     9     8    1
    69    60    61    2
    70    95    94    2
    71    96    94   am
    72    94    93    1
    73   131   130    1
    74   131   132    1
    75   113   114    1
    76   133   132    2
    77   118   117    1
    78   115   114    1
    79   115   116    2
    80    71    72    1
    81    71    70    1
    82    93    92    1
    83   114   117    1
    84    81    79   ar
    85    81    82   ar
    86     1     2    1
    87   117   119    1
    88     6     5    1
    89    69    70    1
    90    69    68    1
    91    92    89   am
    92    64    65    1
    93    79    78   ar
    94    82    80   ar
    95   129   128    1
    96    65    68    1
    97    65    66    1
    98     2     5    1
    99     2     3    1
   100    89    90    2
   101    89    88    1
   102     5     7    1
   103   128   125    1
   104    86    85    2
   105    78    80   ar
   106    78    77    1
   107    88    87    1
   108    88    91    1
   109    66    67    2
   110     3     4    2
   111    85    87   am
   112    85    84    1
   113    77    74    1
   114   125   124    1
   115   125   126    1
   116   124   122   am
   117    84    83    1
   118    74    73    1
   119    74    75    1
   120   126   127    2
   121   122   121    1
   122   122   123    2
   123    75    76    2
   124   121   120    1
