@<TRIPOS>MOLECULE
tmp/4no9K00.pdb
 133 124 0 0 0
SMALL
GASTEIGER

@<TRIPOS>ATOM
      1  N         11.8200 -140.9030    9.0940 N.3     1  THR1       -0.1218
      2  CA        11.4280 -139.9890    8.0250 C.3     1  THR1        0.1862
      3  C         11.9290 -140.3790    6.6320 C.2     1  THR1        0.2287
      4  O         13.0230 -140.9130    6.4820 O.2     1  THR1       -0.2866
      5  CB        12.0450 -138.6160    8.3100 C.3     1  THR1        0.1770
      6  OG1       11.5580 -138.1020    9.5360 O.3     1  THR1       -0.2211
      7  CG2       11.6820 -137.6010    7.2280 C.3     1  THR1        0.0375
      8  N          6.9950 -137.6720    3.7090 N.3    17  ASP17      -0.1239
      9  CA         6.0340 -138.5240    4.4180 C.3    17  ASP17       0.1674
     10  C          5.5140 -137.7700    5.6490 C.2    17  ASP17       0.2266
     11  O          5.8220 -136.5880    5.8260 O.2    17  ASP17      -0.2867
     12  CB         6.6540 -139.8770    4.7950 C.3    17  ASP17       0.1410
     13  CG         7.5440 -139.8020    6.0220 C.2    17  ASP17       0.3668
     14  OD1        8.4620 -138.9570    6.0450 O.co2  17  ASP17      -0.2456
     15  OD2        7.3300 -140.5920    6.9660 O.co2  17  ASP17      -0.2456
     16  N          5.0940 -139.5520    9.0170 N.3    19  ARG19      -0.1231
     17  CA         5.2010 -140.4180   10.1930 C.3    19  ARG19       0.1694
     18  C          6.2130 -139.8930   11.2080 C.2    19  ARG19       0.2592
     19  O          7.2900 -139.4250   10.8400 O.2    19  ARG19      -0.2718
     20  CB         5.5810 -141.8450    9.7830 C.3    19  ARG19       0.0321
     21  CG         5.8280 -142.7820   10.9590 C.3    19  ARG19       0.0489
     22  CD         5.9650 -144.2270   10.5150 C.3    19  ARG19       0.2205
     23  NE         4.7000 -144.7810   10.0410 N.pl3  19  ARG19      -0.0865
     24  CZ         4.5410 -146.0220    9.5880 C.cat  19  ARG19       0.5346
     25  NH1        5.5690 -146.8660    9.5410 N.pl3  19  ARG19       0.1354
     26  NH2        3.3440 -146.4260    9.1780 N.pl3  19  ARG19       0.1354
     27  N          5.8530 -139.9870   12.4870 N.am   20  ALA20      -0.1966
     28  CA         6.7760 -139.7190   13.5890 C.3    20  ALA20       0.1728
     29  C          6.8110 -140.9240   14.5270 C.2    20  ALA20       0.2617
     30  O          5.7670 -141.4990   14.8410 O.2    20  ALA20      -0.2715
     31  CB         6.3590 -138.4700   14.3470 C.3    20  ALA20       0.0334
     32  N          8.0120 -141.2950   14.9680 N.am   21  THR21      -0.1937
     33  CA         8.2070 -142.4690   15.8190 C.3    21  THR21       0.2028
     34  C          8.9760 -142.1390   17.0950 C.2    21  THR21       0.2642
     35  O          9.7170 -141.1590   17.1540 O.2    21  THR21      -0.2714
     36  CB         8.9840 -143.5800   15.0770 C.3    21  THR21       0.1808
     37  OG1       10.3010 -143.1180   14.7430 O.3    21  THR21      -0.2208
     38  CG2        8.2500 -144.0000   13.8060 C.3    21  THR21       0.0379
     39  N          8.7790 -142.9680   18.1150 N.am   22  ALA22      -0.1963
     40  CA         9.6090 -142.9560   19.3170 C.3    22  ALA22       0.1728
     41  C          9.9940 -144.3990   19.6190 C.2    22  ALA22       0.2616
     42  O          9.2090 -145.1530   20.1920 O.2    22  ALA22      -0.2715
     43  CB         8.8590 -142.3430   20.4860 C.3    22  ALA22       0.0334
     44  N         11.2020 -144.7810   19.2190 N.am   23  GLY23      -0.1955
     45  CA        11.6120 -146.1760   19.2710 C.3    23  GLY23       0.1869
     46  C         10.8770 -146.9210   18.1750 C.2    23  GLY23       0.2309
     47  O         10.9680 -146.5480   17.0090 O.2    23  GLY23      -0.2863
     48  N          4.1650 -142.8620   16.6520 N.3    27  ALA27      -0.1231
     49  CA         3.5470 -141.8150   17.4630 C.3    27  ALA27       0.1694
     50  C          2.5150 -141.0110   16.6870 C.2    27  ALA27       0.2592
     51  O          1.4650 -140.6550   17.2260 O.2    27  ALA27      -0.2718
     52  CB         4.6130 -140.8900   18.0180 C.3    27  ALA27       0.0304
     53  N          2.8190 -140.7230   15.4270 N.am   28  SER28      -0.1952
     54  CA         1.9210 -139.9540   14.5750 C.3    28  SER28       0.1924
     55  C          2.0420 -140.4050   13.1270 C.2    28  SER28       0.2314
     56  O          3.1060 -140.8410   12.6940 O.2    28  SER28      -0.2863
     57  CB         2.2360 -138.4600   14.6880 C.3    28  SER28       0.2116
     58  OG         1.4730 -137.6990   13.7670 O.3    28  SER28      -0.2180
     59  N          2.0350 -135.8080   10.5210 N.3    31  VAL31      -0.1245
     60  CA         2.9280 -134.6770   10.7960 C.3    31  VAL31       0.1561
     61  C          3.1860 -133.8410    9.5380 C.2    31  VAL31       0.2260
     62  O          3.4640 -134.3820    8.4650 O.2    31  VAL31      -0.2867
     63  CB         4.2750 -135.1510   11.3980 C.3    31  VAL31       0.0252
     64  CG1        5.2880 -134.0150   11.4620 C.3    31  VAL31       0.0019
     65  CG2        4.0560 -135.7190   12.7910 C.3    31  VAL31       0.0019
     66  N          5.6780 -132.1400    7.7610 N.3    33  LYS33      -0.1245
     67  CA         7.1410 -132.0840    7.6730 C.3    33  LYS33       0.1561
     68  C          7.6350 -131.0270    6.6890 C.2    33  LYS33       0.2260
     69  O          8.8410 -130.8790    6.4950 O.2    33  LYS33      -0.2867
     70  CB         7.7180 -133.4490    7.3040 C.3    33  LYS33       0.0271
     71  CG         7.3460 -134.5420    8.2860 C.3    33  LYS33       0.0035
     72  CD         8.2400 -135.7570    8.1250 C.3    33  LYS33       0.0206
     73  CE         7.7450 -136.9110    8.9780 C.3    33  LYS33       0.1093
     74  NZ         8.5230 -138.1490    8.7160 N.3    33  LYS33      -0.1314
     75  N         11.6380 -131.1130    7.0070 N.3    45  MET45      -0.1230
     76  CA        12.0420 -131.5720    8.3350 C.3    45  MET45       0.1702
     77  C         12.3590 -133.0690    8.3710 C.2    45  MET45       0.2592
     78  O         11.6100 -133.8900    7.8370 O.2    45  MET45      -0.2718
     79  CB        10.9350 -131.2770    9.3430 C.3    45  MET45       0.0401
     80  CG        10.5740 -129.8080    9.4650 C.3    45  MET45       0.0596
     81  SD         9.2620 -129.5830   10.6770 S.3    45  MET45      -0.1393
     82  CE         8.6540 -127.9670   10.2100 C.3    45  MET45       0.0692
     83  N         13.4740 -133.4090    9.0140 N.am   46  ALA46      -0.1966
     84  CA        13.8700 -134.8020    9.2320 C.3    46  ALA46       0.1728
     85  C         14.8710 -134.8810   10.3820 C.2    46  ALA46       0.2617
     86  O         15.7360 -134.0150   10.5140 O.2    46  ALA46      -0.2715
     87  CB        14.4710 -135.3960    7.9680 C.3    46  ALA46       0.0334
     88  N         14.7500 -135.9240   11.2000 N.am   47  GLY47      -0.1940
     89  CA        15.5630 -136.0750   12.4080 C.3    47  GLY47       0.2014
     90  C         14.7300 -135.8140   13.6520 C.2    47  GLY47       0.2639
     91  O         13.6530 -136.3920   13.8170 O.2    47  GLY47      -0.2714
     92  N         15.2230 -134.9420   14.5270 N.am   48  GLY48      -0.1939
     93  CA        14.4940 -134.5600   15.7340 C.3    48  GLY48       0.2014
     94  C         13.2820 -133.7060   15.4030 C.2    48  GLY48       0.2639
     95  O         13.4090 -132.6410   14.7930 O.2    48  GLY48      -0.2714
     96  N         12.1040 -134.1790   15.7990 N.am   49  ALA49      -0.1963
     97  CA        10.8520 -133.4740   15.5280 C.3    49  ALA49       0.1728
     98  C         10.8770 -132.0470   16.0680 C.2    49  ALA49       0.2616
     99  O         10.6140 -131.0960   15.3360 O.2    49  ALA49      -0.2715
    100  CB         9.6790 -134.2390   16.1220 C.3    49  ALA49       0.0334
    101  N         11.2050 -131.9080   17.3490 N.am   50  ALA50      -0.1977
    102  CA        11.2130 -130.6020   18.0090 C.3    50  ALA50       0.1597
    103  C         12.3320 -129.7070   17.4920 C.2    50  ALA50       0.2287
    104  O         12.1350 -128.5070   17.3260 O.2    50  ALA50      -0.2864
    105  CB        11.3310 -130.7690   19.5160 C.3    50  ALA50       0.0319
    106  N         19.5920 -132.7710   16.1660 N.3    96  SER96      -0.1217
    107  CA        19.4930 -133.7570   15.0960 C.3    96  SER96       0.1889
    108  C         18.5440 -133.2400   14.0210 C.2    96  SER96       0.2288
    109  O         17.3240 -133.2470   14.2060 O.2    96  SER96      -0.2866
    110  CB        19.0040 -135.0920   15.6600 C.3    96  SER96       0.2089
    111  OG        18.8710 -136.0660   14.6420 O.3    96  SER96      -0.2183
    112  N         16.6510 -138.4630    5.2870 N.3   130  GLY130     -0.1210
    113  CA        15.9170 -139.1850    6.3270 C.3   130  GLY130      0.1956
    114  C         16.2190 -140.6720    6.3230 C.2   130  GLY130      0.2612
    115  O         16.9510 -141.1660    5.4670 O.2   130  GLY130     -0.2717
    116  N         15.6360 -141.3870    7.2810 N.am  131  SER131     -0.1952
    117  CA        15.8460 -142.8320    7.4280 C.3   131  SER131      0.1924
    118  C         15.5130 -143.6330    6.1690 C.2   131  SER131      0.2314
    119  O         16.0940 -144.6920    5.9390 O.2   131  SER131     -0.2863
    120  CB        15.0320 -143.3720    8.6120 C.3   131  SER131      0.2116
    121  OG        13.6730 -142.9780    8.5290 O.3   131  SER131     -0.2180
    122  N         10.2670 -146.8770    9.4200 N.3   170  TYR170     -0.1241
    123  CA        10.1720 -145.5840   10.1060 C.3   170  TYR170      0.1605
    124  C          9.7190 -144.4440    9.1870 C.2   170  TYR170      0.2264
    125  O          9.9390 -143.2670    9.4840 O.2   170  TYR170     -0.2867
    126  CB        11.5150 -145.2650   10.7670 C.3   170  TYR170      0.0534
    127  CG        11.8960 -146.3130   11.7840 C.ar  170  TYR170     -0.0201
    128  CD1       11.3100 -146.3230   13.0420 C.ar  170  TYR170     -0.0009
    129  CD2       12.8130 -147.3150   11.4800 C.ar  170  TYR170     -0.0009
    130  CE1       11.6370 -147.2880   13.9760 C.ar  170  TYR170      0.0417
    131  CE2       13.1470 -148.2850   12.4110 C.ar  170  TYR170      0.0417
    132  CZ        12.5550 -148.2670   13.6560 C.ar  170  TYR170      0.1957
    133  OH        12.8790 -149.2280   14.5850 O.3   170  TYR170     -0.2866
@<TRIPOS>BOND
     1     8     9    1
     2     9    12    1
     3     9    10    1
     4    12    13    1
     5   112   113    1
     6   115   114    2
     7    10    11    2
     8   119   118    2
     9    13    14   ar
    10    13    15   ar
    11   118   117    1
    12   114   113    1
    13   114   116   am
    14     4     3    2
    15    69    68    2
    16     3     2    1
    17    68    67    1
    18    75    76    1
    19     7     5    1
    20   116   117    1
    21    70    67    1
    22    70    71    1
    23   117   120    1
    24    67    66    1
    25    78    77    2
    26    87    84    1
    27     2     5    1
    28     2     1    1
    29    72    71    1
    30    72    73    1
    31     5     6    1
    32    76    77    1
    33    76    79    1
    34    77    83   am
    35    62    61    2
    36   121   120    1
    37    74    73    1
    38    83    84    1
    39    16    17    1
    40    26    24    1
    41   124   125    2
    42   124   123    1
    43    84    85    1
    44    79    80    1
    45   122   123    1
    46    80    81    1
    47    61    60    1
    48    25    24    1
    49    24    23    2
    50    20    17    1
    51    20    21    1
    52    23    22    1
    53   123   126    1
    54    17    18    1
    55    82    81    1
    56    85    86    2
    57    85    88   am
    58    22    21    1
    59    59    60    1
    60   126   127    1
    61    60    63    1
    62    19    18    2
    63    88    89    1
    64    18    27   am
    65    63    64    1
    66    63    65    1
    67   129   127   ar
    68   129   131   ar
    69   127   128   ar
    70    89    90    1
    71   131   132   ar
    72    27    28    1
    73    56    55    2
    74   128   130   ar
    75    55    54    1
    76    28    31    1
    77    28    29    1
    78    90    91    2
    79    90    92   am
    80   132   130   ar
    81   132   133    1
    82    58    57    1
    83    38    36    1
    84   108   109    2
    85   108   107    1
    86    29    30    2
    87    29    32   am
    88    92    93    1
    89    54    57    1
    90    54    53    1
    91   111   110    1
    92    37    36    1
    93    95    94    2
    94    32    33    1
    95    36    33    1
    96   107   110    1
    97   107   106    1
    98    99    98    2
    99    94    93    1
   100    94    96   am
   101    53    50   am
   102    97    96    1
   103    97    98    1
   104    97   100    1
   105    33    34    1
   106    98   101   am
   107    48    49    1
   108    50    51    2
   109    50    49    1
   110    47    46    2
   111    34    35    2
   112    34    39   am
   113   104   103    2
   114   101   102    1
   115    49    52    1
   116   103   102    1
   117   102   105    1
   118    39    40    1
   119    46    45    1
   120    44    45    1
   121    44    41   am
   122    40    41    1
   123    40    43    1
   124    41    42    2
