@<TRIPOS>MOLECULE
tmp/4no9V00.pdb
 133 124 0 0 0
SMALL
GASTEIGER

@<TRIPOS>ATOM
      1  N          4.2560 -159.7670   43.2480 N.3     1  THR1       -0.1218
      2  CA         3.7350 -161.0830   43.6350 C.3     1  THR1        0.1862
      3  C          3.6670 -161.0880   45.1530 C.2     1  THR1        0.2287
      4  O          4.6420 -160.7610   45.8230 O.2     1  THR1       -0.2866
      5  CB         4.6300 -162.2230   43.1250 C.3     1  THR1        0.1770
      6  OG1        4.4610 -162.3520   41.6960 O.3     1  THR1       -0.2211
      7  CG2        4.2210 -163.5380   43.8020 C.3     1  THR1        0.0375
      8  N         -1.7410 -162.3910   40.1130 N.3    19  ARG19      -0.1231
      9  CA        -1.2260 -161.5100   39.0610 C.3    19  ARG19       0.1694
     10  C          0.1330 -161.9890   38.5560 C.2    19  ARG19       0.2593
     11  O          0.9800 -162.4170   39.3390 O.2    19  ARG19      -0.2718
     12  CB        -1.1060 -160.0680   39.5620 C.3    19  ARG19       0.0321
     13  CG        -0.4950 -159.1070   38.5460 C.3    19  ARG19       0.0489
     14  CD        -0.5030 -157.6680   39.0370 C.3    19  ARG19       0.2205
     15  NE        -1.8530 -157.1120   39.1120 N.pl3  19  ARG19      -0.0865
     16  CZ        -2.1370 -155.8440   39.4070 C.cat  19  ARG19       0.5346
     17  NH1       -1.1680 -154.9670   39.6580 N.pl3  19  ARG19       0.1354
     18  NH2       -3.4020 -155.4480   39.4490 N.pl3  19  ARG19       0.1354
     19  N          0.3310 -161.8950   37.2440 N.am   20  SER20      -0.1938
     20  CA         1.6040 -162.2330   36.6110 C.3    20  SER20       0.2055
     21  C          1.9980 -161.0930   35.6830 C.2    20  SER20       0.2644
     22  O          1.1880 -160.6620   34.8610 O.2    20  SER20      -0.2714
     23  CB         1.4670 -163.5260   35.8110 C.3    20  SER20       0.2130
     24  OG         2.7340 -164.1120   35.5760 O.3    20  SER20      -0.2179
     25  N          3.2310 -160.6060   35.8050 N.am   21  THR21      -0.1936
     26  CA         3.6470 -159.4160   35.0610 C.3    21  THR21       0.2028
     27  C          4.8480 -159.6120   34.1440 C.2    21  THR21       0.2642
     28  O          5.6890 -160.4840   34.3570 O.2    21  THR21      -0.2714
     29  CB         3.9760 -158.2420   36.0010 C.3    21  THR21       0.1808
     30  OG1        4.9740 -158.6440   36.9490 O.3    21  THR21      -0.2208
     31  CG2        2.7260 -157.7750   36.7310 C.3    21  THR21       0.0379
     32  N          4.8870 -158.7660   33.1180 N.am   22  GLN22      -0.1963
     33  CA         6.0180 -158.6200   32.2150 C.3    22  GLN22       0.1733
     34  C          6.3030 -157.1230   32.1750 C.2    22  GLN22       0.2616
     35  O          5.6470 -156.3770   31.4450 O.2    22  GLN22      -0.2715
     36  CB         5.6500 -159.1580   30.8280 C.3    22  GLN22       0.0408
     37  CG         6.5880 -158.7670   29.6860 C.3    22  GLN22       0.0908
     38  CD         7.7230 -159.7520   29.4630 C.2    22  GLN22       0.2608
     39  OE1        8.8970 -159.3860   29.5360 O.2    22  GLN22      -0.2717
     40  NE2        7.3790 -161.0050   29.1770 N.am   22  GLN22      -0.0878
     41  N          7.2640 -156.6840   32.9820 N.am   23  GLY23      -0.1955
     42  CA         7.4910 -155.2600   33.1880 C.3    23  GLY23       0.1869
     43  C          6.2710 -154.6330   33.8480 C.2    23  GLY23       0.2309
     44  O          5.7730 -155.1620   34.8440 O.2    23  GLY23      -0.2863
     45  N          0.4080 -159.6850   32.3620 N.3    27  ALA27      -0.1231
     46  CA         0.3170 -160.7050   31.3180 C.3    27  ALA27       0.1694
     47  C         -0.7700 -161.7400   31.6170 C.2    27  ALA27       0.2592
     48  O         -1.4040 -162.2520   30.6960 O.2    27  ALA27      -0.2718
     49  CB         1.6630 -161.3870   31.1280 C.3    27  ALA27       0.0304
     50  N         -0.9730 -162.0440   32.8980 N.am   28  ASP28      -0.1974
     51  CA        -1.9950 -163.0010   33.3290 C.3    28  ASP28       0.1709
     52  C         -2.6990 -162.4770   34.5820 C.2    28  ASP28       0.2293
     53  O         -2.0580 -162.2520   35.6100 O.2    28  ASP28      -0.2864
     54  CB        -1.3530 -164.3660   33.6060 C.3    28  ASP28       0.1436
     55  CG        -2.3700 -165.4890   33.7370 C.2    28  ASP28       0.3671
     56  OD1       -1.9670 -166.6620   33.5900 O.co2  28  ASP28      -0.2456
     57  OD2       -3.5630 -165.2130   33.9890 O.co2  28  ASP28      -0.2456
     58  N         -3.4380 -166.3780   37.2760 N.3    31  CYS31      -0.1235
     59  CA        -2.5290 -167.5220   37.2590 C.3    31  CYS31       0.1677
     60  C         -2.5700 -168.2280   38.6090 C.2    31  CYS31       0.2270
     61  O         -3.0780 -167.6810   39.5890 O.2    31  CYS31      -0.2867
     62  CB        -1.0990 -167.0850   36.9390 C.3    31  CYS31       0.0956
     63  SG        -0.3290 -166.0470   38.2000 S.3    31  CYS31      -0.0801
     64  N         -0.3770 -169.7490   41.5430 N.3    33  LYS33      -0.1245
     65  CA         0.9510 -169.7510   42.1530 C.3    33  LYS33       0.1561
     66  C          1.0890 -170.8090   43.2410 C.2    33  LYS33       0.2260
     67  O          2.1780 -171.0050   43.7770 O.2    33  LYS33      -0.2867
     68  CB         1.2690 -168.3690   42.7160 C.3    33  LYS33       0.0271
     69  CG         1.1050 -167.2680   41.6840 C.3    33  LYS33       0.0035
     70  CD         1.5430 -165.9190   42.2110 C.3    33  LYS33       0.0206
     71  CE         1.1070 -164.8170   41.2610 C.3    33  LYS33       0.1093
     72  NZ         1.5440 -163.4760   41.7320 N.3    33  LYS33      -0.1314
     73  N          1.2010 -174.6810   44.1880 N.3    35  HIS35      -0.1241
     74  CA         1.6400 -175.8810   43.4910 C.3    35  HIS35       0.1621
     75  C          1.5580 -177.0940   44.3940 C.2    35  HIS35       0.2264
     76  O          2.0180 -177.0520   45.5330 O.2    35  HIS35      -0.2867
     77  CB         3.0850 -175.7200   43.0300 C.3    35  HIS35       0.0745
     78  CG         3.3170 -174.5130   42.1790 C.ar   35  HIS35       0.0817
     79  ND1        2.9080 -174.4400   40.8640 N.ar   35  HIS35      -0.2268
     80  CD2        3.9230 -173.3330   42.4510 C.ar   35  HIS35       0.1154
     81  CE1        3.2480 -173.2660   40.3650 C.ar   35  HIS35       0.1986
     82  NE2        3.8660 -172.5750   41.3070 N.ar   35  HIS35      -0.2212
     83  N          4.9870 -170.0850   45.1140 N.3    45  GLY45      -0.1210
     84  CA         6.2280 -169.6130   44.5000 C.3    45  GLY45       0.1956
     85  C          6.1620 -168.2000   43.9510 C.2    45  GLY45       0.2612
     86  O          5.2330 -167.8510   43.2260 O.2    45  GLY45      -0.2717
     87  N          7.1510 -167.3880   44.3170 N.am   46  ALA46      -0.1965
     88  CA         7.3550 -166.0660   43.7290 C.3    46  ALA46       0.1728
     89  C          8.6790 -166.0530   42.9740 C.2    46  ALA46       0.2617
     90  O          9.5120 -166.9440   43.1520 O.2    46  ALA46      -0.2715
     91  CB         7.3630 -165.0010   44.8110 C.3    46  ALA46       0.0334
     92  N          8.8690 -165.0360   42.1380 N.am   47  GLY47      -0.1940
     93  CA        10.1010 -164.8800   41.3660 C.3    47  GLY47       0.2014
     94  C          9.8890 -165.1610   39.8920 C.2    47  GLY47       0.2640
     95  O          8.9050 -164.7120   39.3070 O.2    47  GLY47      -0.2714
     96  N         10.8180 -165.8980   39.2880 N.am   48  THR48      -0.1936
     97  CA        10.7240 -166.2610   37.8760 C.3    48  THR48       0.2028
     98  C          9.6600 -167.3470   37.7050 C.2    48  THR48       0.2642
     99  O          9.8290 -168.4650   38.1850 O.2    48  THR48      -0.2714
    100  CB        12.0830 -166.7580   37.3440 C.3    48  THR48       0.1808
    101  OG1       13.0770 -165.7490   37.5620 O.3    48  THR48      -0.2208
    102  CG2       12.0170 -167.0800   35.8530 C.3    48  THR48       0.0379
    103  N          8.5710 -167.0080   37.0180 N.am   49  ALA49      -0.1963
    104  CA         7.3920 -167.8800   36.9360 C.3    49  ALA49       0.1728
    105  C          7.7070 -169.2850   36.4270 C.2    49  ALA49       0.2616
    106  O          7.3100 -170.2730   37.0470 O.2    49  ALA49      -0.2715
    107  CB         6.3160 -167.2390   36.0710 C.3    49  ALA49       0.0334
    108  N          8.4190 -169.3710   35.3060 N.am   50  ALA50      -0.1977
    109  CA         8.8070 -170.6660   34.7390 C.3    50  ALA50       0.1597
    110  C          9.6750 -171.4850   35.6930 C.2    50  ALA50       0.2287
    111  O          9.5770 -172.7100   35.7190 O.2    50  ALA50      -0.2864
    112  CB         9.5430 -170.4710   33.4300 C.3    50  ALA50       0.0319
    113  N          9.7870 -171.3370   39.1760 N.3    52  THR52      -0.1218
    114  CA         9.0220 -171.8460   40.3160 C.3    52  THR52       0.1862
    115  C          8.1630 -173.0260   39.8810 C.2    52  THR52       0.2287
    116  O          7.9730 -173.9650   40.6430 O.2    52  THR52      -0.2866
    117  CB         8.1130 -170.7770   40.9620 C.3    52  THR52       0.1770
    118  OG1        7.1130 -170.3550   40.0270 O.3    52  THR52      -0.2211
    119  CG2        8.9240 -169.5750   41.4330 C.3    52  THR52       0.0375
    120  N          7.8810 -162.3610   48.1830 N.3   128  GLY128     -0.1210
    121  CA         7.4020 -161.6530   46.9950 C.3   128  GLY128      0.1956
    122  C          7.4630 -160.1450   47.1460 C.2   128  GLY128      0.2612
    123  O          7.7950 -159.6330   48.2140 O.2   128  GLY128     -0.2717
    124  N          7.1360 -159.4310   46.0720 N.am  129  SER129     -0.1952
    125  CA         7.1480 -157.9660   46.0830 C.3   129  SER129      0.1924
    126  C          6.0730 -157.3890   47.0030 C.2   129  SER129      0.2314
    127  O          6.1920 -156.2560   47.4700 O.2   129  SER129     -0.2863
    128  CB         6.9700 -157.4140   44.6670 C.3   129  SER129      0.2116
    129  OG         5.7040 -157.7620   44.1350 O.3   129  SER129     -0.2180
    130  N          2.9030 -154.9810   42.0820 N.3   168  GLY168     -0.1225
    131  CA         3.3000 -156.3010   41.5990 C.3   168  GLY168      0.1811
    132  C          2.2920 -157.4020   41.8830 C.2   168  GLY168      0.2280
    133  O          2.4890 -158.5430   41.4630 O.2   168  GLY168     -0.2866
@<TRIPOS>BOND
     1    40    38   am
     2    38    39    2
     3    38    37    1
     4    37    36    1
     5    48    47    2
     6    36    33    1
     7    49    46    1
     8    46    47    1
     9    46    45    1
    10    35    34    2
    11    47    50   am
    12    34    33    1
    13    34    41   am
    14    33    32    1
    15    50    51    1
    16    41    42    1
    17    32    27   am
    18    42    43    1
    19    51    54    1
    20    51    52    1
    21   112   109    1
    22    56    55   ar
    23    54    55    1
    24    55    57   ar
    25    43    44    2
    26    27    28    2
    27    27    26    1
    28    52    53    2
    29   109   108    1
    30   109   110    1
    31    22    21    2
    32    26    25    1
    33    26    29    1
    34   108   105   am
    35    24    23    1
    36    21    25   am
    37    21    20    1
    38   110   111    2
    39    23    20    1
    40   102   100    1
    41    29    31    1
    42    29    30    1
    43   107   104    1
    44   105   104    1
    45   105   106    2
    46    20    19    1
    47   104   103    1
    48    62    59    1
    49    62    63    1
    50   103    98   am
    51    19    10   am
    52    59    58    1
    53    59    60    1
    54   100   101    1
    55   100    97    1
    56    98    97    1
    57    98    99    2
    58    97    96    1
    59    13    14    1
    60    13    12    1
    61    10     9    1
    62    10    11    2
    63    60    61    2
    64    14    15    1
    65     9    12    1
    66     9     8    1
    67    15    16    2
    68   113   114    1
    69    96    94   am
    70    95    94    2
    71    16    18    1
    72    16    17    1
    73   115   114    1
    74   115   116    2
    75    94    93    1
    76   118   117    1
    77   114   117    1
    78    81    79   ar
    79    81    82   ar
    80    79    78   ar
    81   117   119    1
    82    71    72    1
    83    71    70    1
    84    82    80   ar
    85    93    92    1
    86   133   132    2
    87    64    65    1
    88   131   132    1
    89   131   130    1
    90    69    70    1
    91    69    68    1
    92     6     5    1
    93    92    89   am
    94    65    68    1
    95    65    66    1
    96    78    80   ar
    97    78    77    1
    98    89    90    2
    99    89    88    1
   100    77    74    1
   101     5     2    1
   102     5     7    1
   103    86    85    2
   104    66    67    2
   105     1     2    1
   106    74    73    1
   107    74    75    1
   108     2     3    1
   109    88    87    1
   110    88    91    1
   111    85    87   am
   112    85    84    1
   113   129   128    1
   114    75    76    2
   115    84    83    1
   116   128   125    1
   117     3     4    2
   118   124   125    1
   119   124   122   am
   120   125   126    1
   121   121   122    1
   122   121   120    1
   123   126   127    2
   124   122   123    2
