@<TRIPOS>MOLECULE
tmp/4nogB02.pdb
 85 84 0 0 0
SMALL
GASTEIGER

@<TRIPOS>ATOM
      1  N         54.6480   12.3100   59.8630 N.3   107  GLU107     -0.1231
      2  CA        55.8880   13.0410   60.0990 C.3   107  GLU107      0.1699
      3  C         55.8820   13.8070   61.4060 C.2   107  GLU107      0.2592
      4  O         56.9050   13.8750   62.0840 O.2   107  GLU107     -0.2718
      5  CB        56.1680   13.9990   58.9400 C.3   107  GLU107      0.0402
      6  CG        56.4750   13.3250   57.6280 C.3   107  GLU107      0.1161
      7  CD        56.6610   14.2890   56.4610 C.2   107  GLU107      0.3649
      8  OE1       56.2600   15.4960   56.4930 O.co2 107  GLU107     -0.2457
      9  OE2       57.1450   13.7730   55.4350 O.co2 107  GLU107     -0.2457
     10  N         54.7600   14.3780   61.7920 N.am  108  MET108     -0.1965
     11  CA        54.6980   15.1460   63.0110 C.3   108  MET108      0.1736
     12  C         54.9120   14.2410   64.2170 C.2   108  MET108      0.2616
     13  O         55.5310   14.6610   65.1950 O.2   108  MET108     -0.2715
     14  CB        53.3380   15.8480   63.1040 C.3   108  MET108      0.0427
     15  CG        53.1800   16.6710   64.4040 C.3   108  MET108      0.0599
     16  SD        51.7350   17.7490   64.2910 S.3   108  MET108     -0.1393
     17  CE        52.3510   19.1550   63.4470 C.3   108  MET108      0.0692
     18  N         54.3960   13.0280   64.1900 N.am  109  PHE109     -0.1960
     19  CA        54.4050   12.1640   65.3760 C.3   109  PHE109      0.1771
     20  C         55.4130   11.0160   65.3040 C.2   109  PHE109      0.2620
     21  O         55.6420   10.3480   66.2790 O.2   109  PHE109     -0.2715
     22  CB        52.9980   11.6760   65.6630 C.3   109  PHE109      0.0574
     23  CG        52.0620   12.7650   66.0060 C.ar  109  PHE109     -0.0200
     24  CD1       52.0690   13.3010   67.2970 C.ar  109  PHE109     -0.0042
     25  CD2       51.2030   13.3560   65.0650 C.ar  109  PHE109     -0.0042
     26  CE1       51.2660   14.3600   67.6490 C.ar  109  PHE109     -0.0003
     27  CE2       50.4120   14.4270   65.4260 C.ar  109  PHE109     -0.0003
     28  CZ        50.4460   14.9310   66.7200 C.ar  109  PHE109     -0.0000
     29  N         56.0170   10.8180   64.1300 N.am  110  GLY110     -0.1940
     30  CA        57.0620    9.8410   63.9900 C.3   110  GLY110      0.2014
     31  C         56.5980    8.4030   63.8300 C.2   110  GLY110      0.2638
     32  O         57.1460    7.4830   64.3920 O.2   110  GLY110     -0.2714
     33  N         55.5340    8.2090   63.0470 N.am  111  TYR111     -0.1973
     34  CA        54.9780    6.8600   62.7730 C.3   111  TYR111      0.1639
     35  C         54.9510    6.5540   61.2990 C.2   111  TYR111      0.2290
     36  O         54.8650    7.4270   60.4630 O.2   111  TYR111     -0.2864
     37  CB        53.5520    6.7630   63.3300 C.3   111  TYR111      0.0560
     38  CG        53.5450    6.7300   64.8370 C.ar  111  TYR111     -0.0198
     39  CD1       53.8030    5.5390   65.4650 C.ar  111  TYR111     -0.0009
     40  CD2       53.3590    7.8760   65.6350 C.ar  111  TYR111     -0.0009
     41  CE1       53.8410    5.4530   66.8460 C.ar  111  TYR111      0.0417
     42  CE2       53.4630    7.8050   66.9840 C.ar  111  TYR111      0.0417
     43  CZ        53.6890    6.6050   67.6130 C.ar  111  TYR111      0.1957
     44  OH        53.8030    6.5710   68.9880 O.3   111  TYR111     -0.2866
     45  N         54.0280   18.0080   73.4800 N.3   253  LEU253     -0.1231
     46  CA        53.2490   17.5560   72.3500 C.3   253  LEU253      0.1693
     47  C         52.4060   16.3100   72.6880 C.2   253  LEU253      0.2591
     48  O         51.1880   16.3360   72.4450 O.2   253  LEU253     -0.2718
     49  CB        54.1230   17.3300   71.1350 C.3   253  LEU253      0.0284
     50  CG        53.3310   16.8080   69.8950 C.3   253  LEU253      0.0019
     51  CD1       52.2670   17.8280   69.4550 C.3   253  LEU253      0.0001
     52  CD2       54.3310   16.6120   68.7730 C.3   253  LEU253      0.0001
     53  N         53.0180   15.3200   73.3470 N.am  254  LEU254     -0.1980
     54  CA        52.3330   14.1670   73.8830 C.3   254  LEU254      0.1596
     55  C         52.6140   14.0960   75.3510 C.2   254  LEU254      0.2287
     56  O         53.7710   14.3240   75.7460 O.2   254  LEU254     -0.2864
     57  CB        52.8060   12.8480   73.2230 C.3   254  LEU254      0.0297
     58  CG        52.4990   12.7440   71.7320 C.3   254  LEU254      0.0022
     59  CD1       53.0140   11.4390   71.1980 C.3   254  LEU254      0.0001
     60  CD2       51.0360   12.9540   71.3530 C.3   254  LEU254      0.0001
     61  N         55.5960   12.2430   76.3730 N.3   257  ASP257     -0.1239
     62  CA        56.9310   12.8650   76.2700 C.3   257  ASP257      0.1674
     63  C         57.5160   13.1940   77.6640 C.2   257  ASP257      0.2266
     64  O         58.7450   13.2910   77.7940 O.2   257  ASP257     -0.2867
     65  CB        56.8470   14.1550   75.4870 C.3   257  ASP257      0.1410
     66  CG        56.5100   13.9700   74.0420 C.2   257  ASP257      0.3668
     67  OD1       56.6750   12.8670   73.4830 O.co2 257  ASP257     -0.2456
     68  OD2       56.0370   14.9480   73.4450 O.co2 257  ASP257     -0.2456
     69  N         58.6620    8.4950   76.1860 N.3   261  VAL261     -0.1231
     70  CA        58.0680    7.2730   75.6340 C.3   261  VAL261      0.1692
     71  C         57.4730    7.5730   74.2660 C.2   261  VAL261      0.2592
     72  O         56.6210    8.4790   74.1440 O.2   261  VAL261     -0.2718
     73  CB        56.9970    6.7370   76.5900 C.3   261  VAL261      0.0266
     74  CG1       56.0640    5.7150   75.9260 C.3   261  VAL261      0.0020
     75  CG2       57.6210    6.0920   77.8410 C.3   261  VAL261      0.0020
     76  N         57.8290    6.7720   73.2670 N.am  262  HIS262     -0.1976
     77  CA        57.2170    6.7800   71.9740 C.3   262  HIS262      0.1656
     78  C         56.2860    5.5550   71.9540 C.2   262  HIS262      0.2291
     79  O         56.7290    4.4060   71.9000 O.2   262  HIS262     -0.2864
     80  CB        58.2980    6.6770   70.8780 C.3   262  HIS262      0.0771
     81  CG        57.7470    6.6930   69.4950 C.ar  262  HIS262      0.0820
     82  ND1       57.2970    7.8370   68.8850 N.ar  262  HIS262     -0.2267
     83  CD2       57.5940    5.7040   68.5860 C.ar  262  HIS262      0.1154
     84  CE1       56.8610    7.5550   67.6630 C.ar  262  HIS262      0.1986
     85  NE2       57.0490    6.2680   67.4540 N.ar  262  HIS262     -0.2212
@<TRIPOS>BOND
     1     9     7   ar
     2     7     8   ar
     3     7     6    1
     4     6     5    1
     5     5     2    1
     6     1     2    1
     7     2     3    1
     8    36    35    2
     9    35    34    1
    10     3    10   am
    11     3     4    2
    12    10    11    1
    13    34    33    1
    14    34    37    1
    15    11    14    1
    16    11    12    1
    17    33    31   am
    18    14    15    1
    19    37    38    1
    20    17    16    1
    21    31    30    1
    22    31    32    2
    23    30    29    1
    24    29    20   am
    25    18    12   am
    26    18    19    1
    27    12    13    2
    28    16    15    1
    29    38    39   ar
    30    38    40   ar
    31    25    27   ar
    32    25    23   ar
    33    20    19    1
    34    20    21    2
    35    19    22    1
    36    27    28   ar
    37    39    41   ar
    38    40    42   ar
    39    22    23    1
    40    23    24   ar
    41    28    26   ar
    42    41    43   ar
    43    42    43   ar
    44    24    26   ar
    45    85    84   ar
    46    85    83   ar
    47    43    44    1
    48    84    82   ar
    49    83    81   ar
    50    52    50    1
    51    82    81   ar
    52    51    50    1
    53    81    80    1
    54    50    49    1
    55    80    77    1
    56    49    46    1
    57    59    58    1
    58    60    58    1
    59    58    57    1
    60    79    78    2
    61    78    77    1
    62    77    76    1
    63    46    47    1
    64    46    45    1
    65    48    47    2
    66    47    53   am
    67    57    54    1
    68    76    71   am
    69    53    54    1
    70    68    66   ar
    71    67    66   ar
    72    54    55    1
    73    66    65    1
    74    72    71    2
    75    71    70    1
    76    55    56    2
    77    65    62    1
    78    70    69    1
    79    70    73    1
    80    74    73    1
    81    62    61    1
    82    62    63    1
    83    73    75    1
    84    63    64    2
