@<TRIPOS>MOLECULE
tmp/4novA00.pdb
 99 94 0 0 0
SMALL
GASTEIGER

@<TRIPOS>ATOM
      1  N         31.4440   24.2340   21.9910 N.3    17  ASP17      -0.1239
      2  CA        30.8250   23.6810   20.7920 C.3    17  ASP17       0.1674
      3  C         30.9680   22.1690   20.7330 C.2    17  ASP17       0.2266
      4  O         31.4170   21.6210   19.7270 O.2    17  ASP17      -0.2867
      5  CB        31.4550   24.3040   19.5420 C.3    17  ASP17       0.1410
      6  CG        31.3540   25.8310   19.5400 C.2    17  ASP17       0.3668
      7  OD1       30.3010   26.3550   19.9680 O.co2  17  ASP17      -0.2456
      8  OD2       32.3300   26.4910   19.0990 O.co2  17  ASP17      -0.2456
      9  N         35.7330   22.7820   19.9210 N.3    31  THR31      -0.1218
     10  CA        36.5970   23.8700   19.5380 C.3    31  THR31       0.1862
     11  C         37.4490   24.2370   20.7590 C.2    31  THR31       0.2287
     12  O         37.2670   23.6780   21.8700 O.2    31  THR31      -0.2866
     13  CB        35.7850   25.0760   19.0830 C.3    31  THR31       0.1770
     14  OG1       34.8440   25.4110   20.0940 O.3    31  THR31      -0.2211
     15  CG2       35.0460   24.7900   17.7590 C.3    31  THR31       0.0375
     16  N         37.3380   36.2710   20.4170 N.3    42  TYR42      -0.1241
     17  CA        37.4580   34.8240   20.1260 C.3    42  TYR42       0.1605
     18  C         38.7290   34.5180   19.3670 C.2    42  TYR42       0.2264
     19  O         39.0290   35.1510   18.3490 O.2    42  TYR42      -0.2867
     20  CB        36.2870   34.3010   19.2820 C.3    42  TYR42       0.0534
     21  CG        34.9300   34.4000   19.9280 C.ar   42  TYR42      -0.0201
     22  CD1       34.5070   33.4660   20.8750 C.ar   42  TYR42      -0.0009
     23  CD2       34.0470   35.4070   19.5680 C.ar   42  TYR42      -0.0009
     24  CE1       33.2500   33.5520   21.4580 C.ar   42  TYR42       0.0417
     25  CE2       32.8020   35.4950   20.1430 C.ar   42  TYR42       0.0417
     26  CZ        32.4040   34.5690   21.0840 C.ar   42  TYR42       0.1957
     27  OH        31.1490   34.6810   21.6370 O.3    42  TYR42      -0.2866
     28  N         35.8510   26.6690   13.7360 N.3    76  TRP76      -0.1227
     29  CA        34.5240   26.7320   14.3560 C.3    76  TRP76       0.1737
     30  C         33.9170   25.3390   14.5740 C.2    76  TRP76       0.2595
     31  O         34.5670   24.3410   14.3300 O.2    76  TRP76      -0.2718
     32  CB        33.6380   27.7220   13.5800 C.3    76  TRP76       0.0564
     33  CG        33.9530   29.1860   13.8990 C.ar   76  TRP76       0.0003
     34  CD1       34.9600   29.6800   14.7040 C.ar   76  TRP76       0.0946
     35  CD2       33.2340   30.3230   13.4100 C.ar   76  TRP76       0.0152
     36  NE1       34.8900   31.0680   14.7350 N.ar   76  TRP76      -0.2442
     37  CE2       33.8320   31.4780   13.9670 C.ar   76  TRP76       0.0810
     38  CE3       32.1230   30.4720   12.5760 C.ar   76  TRP76       0.0012
     39  CZ2       33.3610   32.7690   13.6860 C.ar   76  TRP76       0.0191
     40  CZ3       31.6400   31.7400   12.3190 C.ar   76  TRP76       0.0001
     41  CH2       32.2640   32.8740   12.8690 C.ar   76  TRP76       0.0015
     42  N         32.6870   25.2870   15.0740 N.am   77  ALA77      -0.1980
     43  CA        32.1090   24.0740   15.6520 C.3    77  ALA77       0.1597
     44  C         32.0920   22.8710   14.7060 C.2    77  ALA77       0.2287
     45  O         31.4260   22.9050   13.6780 O.2    77  ALA77      -0.2864
     46  CB        30.7050   24.3710   16.0800 C.3    77  ALA77       0.0319
     47  N         27.9350   27.4990    8.4480 N.3   129  ILE129     -0.1231
     48  CA        28.7530   27.1450    9.5960 C.3   129  ILE129      0.1692
     49  C         28.1140   26.0030   10.3810 C.2   129  ILE129      0.2592
     50  O         26.9930   25.5590   10.0800 O.2   129  ILE129     -0.2718
     51  CB        29.0030   28.3720   10.5140 C.3   129  ILE129      0.0266
     52  CG1       27.7170   28.8560   11.1930 C.3   129  ILE129      0.0019
     53  CG2       29.6720   29.4870    9.7030 C.3   129  ILE129      0.0020
     54  CD1       27.9820   29.8700   12.3290 C.3   129  ILE129      0.0001
     55  N         28.8730   25.4660   11.3390 N.am  130  ASP130     -0.1974
     56  CA        28.3110   24.5660   12.3630 C.3   130  ASP130      0.1709
     57  C         27.6560   23.3040   11.7810 C.2   130  ASP130      0.2293
     58  O         26.4980   23.0040   12.0710 O.2   130  ASP130     -0.2864
     59  CB        27.2980   25.3190   13.2230 C.3   130  ASP130      0.1436
     60  CG        27.9170   26.4350   14.0270 C.2   130  ASP130      0.3671
     61  OD1       29.1130   26.7220   13.8540 O.co2 130  ASP130     -0.2456
     62  OD2       27.1850   27.0440   14.8400 O.co2 130  ASP130     -0.2456
     63  N         21.9250   28.9080   15.3380 N.3   189  GLU189     -0.1245
     64  CA        23.0690   28.2120   14.7470 C.3   189  GLU189      0.1567
     65  C         23.2180   26.8850   15.4870 C.2   189  GLU189      0.2260
     66  O         22.3100   26.4570   16.2040 O.2   189  GLU189     -0.2867
     67  CB        24.3580   29.0520   14.8650 C.3   189  GLU189      0.0388
     68  CG        24.7920   29.3290   16.3260 C.3   189  GLU189      0.1160
     69  CD        25.9970   30.2660   16.4420 C.2   189  GLU189      0.3649
     70  OE1       26.4830   30.7810   15.4120 O.co2 189  GLU189     -0.2457
     71  OE2       26.4670   30.5020   17.5880 O.co2 189  GLU189     -0.2457
     72  N         26.9420   32.6270   23.9210 N.3   241  THR241     -0.1218
     73  CA        26.7170   31.4250   23.1400 C.3   241  THR241      0.1862
     74  C         26.3870   30.2270   24.0070 C.2   241  THR241      0.2287
     75  O         26.8320   30.1210   25.1500 O.2   241  THR241     -0.2866
     76  CB        27.9430   31.0740   22.2680 C.3   241  THR241      0.1770
     77  OG1       29.0970   30.8260   23.0980 O.3   241  THR241     -0.2211
     78  CG2       28.2330   32.1980   21.2540 C.3   241  THR241      0.0375
     79  N         25.7670   25.7940   22.7740 N.3   243  HIS243     -0.1241
     80  CA        25.9210   24.9890   21.5630 C.3   243  HIS243      0.1621
     81  C         25.6890   23.5420   21.9570 C.2   243  HIS243      0.2264
     82  O         26.3570   23.0610   22.8690 O.2   243  HIS243     -0.2867
     83  CB        27.3350   25.1800   20.9900 C.3   243  HIS243      0.0745
     84  CG        27.4940   24.6750   19.5930 C.ar  243  HIS243      0.0817
     85  ND1       27.4530   25.5220   18.5100 N.ar  243  HIS243     -0.2268
     86  CD2       27.6670   23.4230   19.1000 C.ar  243  HIS243      0.1154
     87  CE1       27.6090   24.8120   17.4010 C.ar  243  HIS243      0.1986
     88  NE2       27.7570   23.5380   17.7290 N.ar  243  HIS243     -0.2212
     89  N         35.4240   29.5800   27.1410 N.3   270  ARG270     -0.1245
     90  CA        34.3240   28.7260   27.5320 C.3   270  ARG270      0.1563
     91  C         34.7950   27.3720   28.0280 C.2   270  ARG270      0.2260
     92  O         35.9660   27.0360   27.9270 O.2   270  ARG270     -0.2867
     93  CB        33.4100   28.5630   26.3090 C.3   270  ARG270      0.0307
     94  CG        32.7300   29.8980   25.9430 C.3   270  ARG270      0.0489
     95  CD        32.1840   29.9330   24.5150 C.3   270  ARG270      0.2205
     96  NE        33.2550   29.8890   23.5260 N.pl3 270  ARG270     -0.0865
     97  CZ        33.0380   29.8490   22.2120 C.cat 270  ARG270      0.5346
     98  NH1       31.7890   29.8660   21.7390 N.pl3 270  ARG270      0.1354
     99  NH2       34.0620   29.7900   21.3740 N.pl3 270  ARG270      0.1354
@<TRIPOS>BOND
     1    47    48    1
     2    48    49    1
     3    48    51    1
     4    53    51    1
     5    50    49    2
     6    49    55   am
     7    51    52    1
     8    52    54    1
     9    55    56    1
    10    57    58    2
    11    57    56    1
    12    40    38   ar
    13    40    41   ar
    14    56    59    1
    15    38    35   ar
    16    41    39   ar
    17    59    60    1
    18    35    33   ar
    19    35    37   ar
    20    32    33    1
    21    32    29    1
    22    45    44    2
    23    39    37   ar
    24    28    29    1
    25    61    60   ar
    26    33    34   ar
    27    37    36   ar
    28    60    62   ar
    29    31    30    2
    30    29    30    1
    31    30    42   am
    32    34    36   ar
    33    44    43    1
    34    64    67    1
    35    64    63    1
    36    64    65    1
    37    67    68    1
    38    42    43    1
    39    70    69   ar
    40    65    66    2
    41    43    46    1
    42    68    69    1
    43    69    71   ar
    44    87    88   ar
    45    87    85   ar
    46    88    86   ar
    47    15    13    1
    48    19    18    2
    49    85    84   ar
    50    13    10    1
    51    13    14    1
    52     8     6   ar
    53    86    84   ar
    54    20    21    1
    55    20    17    1
    56    18    17    1
    57    10     9    1
    58    10    11    1
    59     6     5    1
    60     6     7   ar
    61     5     2    1
    62    23    21   ar
    63    23    25   ar
    64    84    83    1
    65     4     3    2
    66    21    22   ar
    67    17    16    1
    68    25    26   ar
    69     3     2    1
    70    11    12    2
    71     2     1    1
    72    22    24   ar
    73    83    80    1
    74    26    24   ar
    75    26    27    1
    76    78    76    1
    77    99    97    1
    78    80    81    1
    79    80    79    1
    80    98    97    1
    81    81    82    2
    82    97    96    2
    83    76    77    1
    84    76    73    1
    85    73    72    1
    86    73    74    1
    87    96    95    1
    88    74    75    2
    89    95    94    1
    90    94    93    1
    91    93    90    1
    92    89    90    1
    93    90    91    1
    94    92    91    2
