@<TRIPOS>MOLECULE
tmp/4np3A00.pdb
 82 77 0 0 0
SMALL
GASTEIGER

@<TRIPOS>ATOM
      1  N          9.3260    1.4800    0.0400 N.3     6  ASN6       -0.1225
      2  CA         9.3860    0.2350   -0.7200 C.3     6  ASN6        0.1785
      3  C          7.9740   -0.2570   -0.9710 C.2     6  ASN6        0.2597
      4  O          7.2200   -0.4350   -0.0140 O.2     6  ASN6       -0.2718
      5  CB        10.1830   -0.8560    0.0210 C.3     6  ASN6        0.1169
      6  CG        11.6010   -0.4360    0.3660 C.2     6  ASN6        0.2627
      7  OD1       12.1920    0.4290   -0.2910 O.2     6  ASN6       -0.2716
      8  ND2       12.1370   -1.0040    1.4550 N.am    6  ASN6       -0.0877
      9  N          7.6150   -0.4540   -2.2260 N.am    7  VAL7       -0.1966
     10  CA         6.2360   -0.8450   -2.5580 C.3     7  VAL7        0.1727
     11  C          6.1610   -2.2240   -3.2360 C.2     7  VAL7        0.2616
     12  O          7.0980   -2.6670   -3.9270 O.2     7  VAL7       -0.2715
     13  CB         5.5470    0.2060   -3.4310 C.3     7  VAL7        0.0290
     14  CG1        5.5070    1.5510   -2.6990 C.3     7  VAL7        0.0023
     15  CG2        6.2620    0.3600   -4.7880 C.3     7  VAL7        0.0023
     16  N          5.0180   -2.8650   -3.0830 N.am    8  THR8       -0.1951
     17  CA         4.7560   -4.1490   -3.7370 C.3     8  THR8        0.1897
     18  C          3.8690   -4.0080   -4.9690 C.2     8  THR8        0.2313
     19  O          3.3190   -2.9440   -5.2340 O.2     8  THR8       -0.2863
     20  CB         4.0660   -5.1760   -2.7850 C.3     8  THR8        0.1794
     21  OG1        2.7380   -4.7430   -2.4570 O.3     8  THR8       -0.2208
     22  CG2        4.8540   -5.3570   -1.5040 C.3     8  THR8        0.0378
     23  N          1.3740   -3.2210   -0.3470 N.3    16  HIS16      -0.1241
     24  CA         2.1080   -3.0320    0.9080 C.3    16  HIS16       0.1621
     25  C          3.1710   -1.9470    0.7030 C.2    16  HIS16       0.2264
     26  O          3.8270   -1.9070   -0.3450 O.2    16  HIS16      -0.2867
     27  CB         2.7580   -4.3720    1.2920 C.3    16  HIS16       0.0745
     28  CG         3.7770   -4.2860    2.3850 C.ar   16  HIS16       0.0817
     29  ND1        5.1370   -4.3200    2.1380 N.ar   16  HIS16      -0.2268
     30  CD2        3.6380   -4.2100    3.7300 C.ar   16  HIS16       0.1154
     31  CE1        5.7920   -4.2690    3.2890 C.ar   16  HIS16       0.1986
     32  NE2        4.9040   -4.2040    4.2730 N.ar   16  HIS16      -0.2212
     33  N          6.4650   -0.1190    2.9110 N.3    18  GLU18      -0.1245
     34  CA         7.2860   -0.0090    4.1100 C.3    18  GLU18       0.1567
     35  C          8.2460    1.1500    3.9980 C.2    18  GLU18       0.2260
     36  O          8.7500    1.4210    2.9040 O.2    18  GLU18      -0.2867
     37  CB         8.0150   -1.3190    4.3960 C.3    18  GLU18       0.0388
     38  CG         9.0180   -1.6280    3.3490 C.3    18  GLU18       0.1160
     39  CD         9.6920   -2.9640    3.4820 C.2    18  GLU18       0.3649
     40  OE1        9.2600   -3.8390    4.2550 O.co2  18  GLU18      -0.2457
     41  OE2       10.6870   -3.1270    2.7470 O.co2  18  GLU18      -0.2457
     42  N         12.5200    0.1850    4.6790 N.3    21  GLY21      -0.1225
     43  CA        12.6430   -1.2540    4.7970 C.3    21  GLY21       0.1811
     44  C         12.5930   -1.8350    6.2080 C.2    21  GLY21       0.2280
     45  O         13.0100   -2.9980    6.4150 O.2    21  GLY21      -0.2866
     46  N          5.0090   -9.3560    6.3350 N.3    59  ARG59      -0.1245
     47  CA         5.1420   -8.1100    7.1240 C.3    59  ARG59       0.1563
     48  C          3.8170   -7.6520    7.7370 C.2    59  ARG59       0.2260
     49  O          2.7860   -7.6080    7.0380 O.2    59  ARG59      -0.2867
     50  CB         5.6790   -6.9650    6.2280 C.3    59  ARG59       0.0307
     51  CG         7.0530   -7.2710    5.5850 C.3    59  ARG59       0.0489
     52  CD         8.2250   -7.1800    6.5900 C.3    59  ARG59       0.2205
     53  NE         8.4210   -5.7850    7.0080 N.pl3  59  ARG59      -0.0865
     54  CZ         9.3110   -5.3700    7.9050 C.cat  59  ARG59       0.5346
     55  NH1       10.1020   -6.2430    8.4820 N.pl3  59  ARG59       0.1354
     56  NH2        9.4140   -4.0690    8.1800 N.pl3  59  ARG59       0.1354
     57  N         10.6400    2.9250   -4.1300 N.3   130  VAL130     -0.1231
     58  CA        11.4940    1.8220   -4.5360 C.3   130  VAL130      0.1692
     59  C         10.6400    0.5830   -4.8560 C.2   130  VAL130      0.2592
     60  O          9.9290    0.0590   -3.9860 O.2   130  VAL130     -0.2718
     61  CB        12.5530    1.4900   -3.4530 C.3   130  VAL130      0.0266
     62  CG1       13.5440    0.4410   -4.0080 C.3   130  VAL130      0.0020
     63  CG2       13.3150    2.7500   -3.0040 C.3   130  VAL130      0.0020
     64  N         10.7090    0.1170   -6.1010 N.am  131  ASN131     -0.1960
     65  CA         9.9690   -1.0840   -6.4910 C.3   131  ASN131      0.1819
     66  C         10.8240   -2.3050   -6.2520 C.2   131  ASN131      0.2621
     67  O         12.0640   -2.1970   -6.1070 O.2   131  ASN131     -0.2715
     68  CB         9.5930   -0.9610   -7.9590 C.3   131  ASN131      0.1195
     69  CG         8.5500    0.1210   -8.1830 C.2   131  ASN131      0.2630
     70  OD1        7.3600   -0.1120   -7.9760 O.2   131  ASN131     -0.2716
     71  ND2        8.9810    1.3050   -8.5970 N.am  131  ASN131     -0.0877
     72  N         10.1870   -3.4630   -6.1610 N.am  132  ARG132     -0.1977
     73  CA        10.9240   -4.6930   -5.8550 C.3   132  ARG132      0.1597
     74  C         11.9470   -5.0500   -6.9470 C.2   132  ARG132      0.2287
     75  O         13.0010   -5.6220   -6.6480 O.2   132  ARG132     -0.2864
     76  CB         9.9430   -5.8560   -5.5360 C.3   132  ARG132      0.0334
     77  CG        10.6110   -7.1640   -5.1260 C.3   132  ARG132      0.0492
     78  CD        11.4050   -7.1000   -3.8220 C.3   132  ARG132      0.2205
     79  NE        12.7280   -6.4910   -4.0110 N.pl3 132  ARG132     -0.0865
     80  CZ        13.6950   -6.5370   -3.0990 C.cat 132  ARG132      0.5346
     81  NH1       14.8590   -5.9400   -3.3130 N.pl3 132  ARG132      0.1354
     82  NH2       13.4980   -7.2070   -1.9660 N.pl3 132  ARG132      0.1354
@<TRIPOS>BOND
     1    71    69   am
     2    69    70    2
     3    69    68    1
     4    68    65    1
     5    74    75    2
     6    74    73    1
     7    65    66    1
     8    65    64    1
     9    66    72   am
    10    66    67    2
    11    72    73    1
    12    64    59   am
    13    73    76    1
    14    76    77    1
    15    19    18    2
    16    77    78    1
    17    18    17    1
    18    59    58    1
    19    59    60    2
    20    15    13    1
    21    58    57    1
    22    58    61    1
    23    79    78    1
    24    79    80    2
    25    62    61    1
    26    12    11    2
    27    17    16    1
    28    17    20    1
    29    61    63    1
    30    13    14    1
    31    13    10    1
    32    81    80    1
    33    11    16   am
    34    11    10    1
    35    80    82    1
    36    20    21    1
    37    20    22    1
    38    10     9    1
    39     9     3   am
    40     3     2    1
    41     3     4    2
    42     2     5    1
    43     2     1    1
    44    23    24    1
    45    26    25    2
    46     7     6    2
    47     5     6    1
    48     6     8   am
    49    25    24    1
    50    24    27    1
    51    27    28    1
    52    29    28   ar
    53    29    31   ar
    54    28    30   ar
    55    41    39   ar
    56    36    35    2
    57    33    34    1
    58    31    32   ar
    59    38    39    1
    60    38    37    1
    61    39    40   ar
    62    30    32   ar
    63    35    34    1
    64    34    37    1
    65    42    43    1
    66    43    44    1
    67    51    50    1
    68    51    52    1
    69    44    45    2
    70    50    47    1
    71    46    47    1
    72    52    53    1
    73    53    54    2
    74    49    48    2
    75    47    48    1
    76    54    56    1
    77    54    55    1
