@<TRIPOS>MOLECULE
tmp/4np9A00.pdb
 90 87 0 0 0
SMALL
GASTEIGER

@<TRIPOS>ATOM
      1  N         11.8900   12.2100   40.7380 N.3    40  TYR40      -0.1241
      2  CA        12.7270   11.6470   39.6910 C.3    40  TYR40       0.1605
      3  C         11.8270   11.1050   38.5930 C.2    40  TYR40       0.2264
      4  O         10.6190   10.9590   38.7800 O.2    40  TYR40      -0.2867
      5  CB        13.6410   10.5490   40.2310 C.3    40  TYR40       0.0534
      6  CG        12.9200    9.3330   40.7740 C.ar   40  TYR40      -0.0201
      7  CD1       12.2660    9.3820   41.9960 C.ar   40  TYR40      -0.0009
      8  CD2       12.9090    8.1340   40.0720 C.ar   40  TYR40      -0.0009
      9  CE1       11.6110    8.2780   42.5020 C.ar   40  TYR40       0.0417
     10  CE2       12.2560    7.0200   40.5700 C.ar   40  TYR40       0.0417
     11  CZ        11.6120    7.0980   41.7910 C.ar   40  TYR40       0.1957
     12  OH        10.9580    6.0010   42.3000 O.3    40  TYR40      -0.2866
     13  N         11.2300    8.1080   35.5850 N.3    42  LYS42      -0.1245
     14  CA        11.5250    6.7600   35.1310 C.3    42  LYS42       0.1561
     15  C         11.0250    6.5560   33.7110 C.2    42  LYS42       0.2260
     16  O          9.8930    6.9070   33.3870 O.2    42  LYS42      -0.2867
     17  CB        10.8820    5.7290   36.0560 C.3    42  LYS42       0.0271
     18  CG        11.5270    5.6340   37.4190 C.3    42  LYS42       0.0035
     19  CD        10.6440    4.8820   38.3840 C.3    42  LYS42       0.0206
     20  CE         9.4840    5.7320   38.8510 C.3    42  LYS42       0.1093
     21  NZ         8.4720    4.9470   39.6040 N.3    42  LYS42      -0.1314
     22  N         10.2990    3.7080   30.6690 N.3    44  HIS44      -0.1241
     23  CA        10.0820    2.2970   30.3610 C.3    44  HIS44       0.1621
     24  C          9.7130    2.1450   28.8890 C.2    44  HIS44       0.2264
     25  O          8.8490    2.8620   28.3870 O.2    44  HIS44      -0.2867
     26  CB         8.9680    1.6970   31.2260 C.3    44  HIS44       0.0745
     27  CG         9.2990    1.6030   32.6810 C.ar   44  HIS44       0.0817
     28  ND1        9.7900    0.4490   33.2550 N.ar   44  HIS44      -0.2268
     29  CD2        9.1870    2.5040   33.6850 C.ar   44  HIS44       0.1154
     30  CE1        9.9770    0.6480   34.5470 C.ar   44  HIS44       0.1986
     31  NE2        9.6190    1.8870   34.8350 N.ar   44  HIS44      -0.2212
     32  N         14.3510   -0.2200   31.3530 N.3    54  LYS54      -0.1231
     33  CA        14.1840    0.8630   32.3150 C.3    54  LYS54       0.1693
     34  C         15.3950    1.7810   32.3880 C.2    54  LYS54       0.2592
     35  O         16.5360    1.3200   32.4450 O.2    54  LYS54      -0.2718
     36  CB        13.9020    0.2900   33.7050 C.3    54  LYS54       0.0285
     37  CG        12.9560   -0.8840   33.6940 C.3    54  LYS54       0.0035
     38  CD        12.5450   -1.3170   35.0770 C.3    54  LYS54       0.0206
     39  CE        11.4180   -2.3500   34.9670 C.3    54  LYS54       0.1093
     40  NZ        10.8330   -2.7390   36.2840 N.3    54  LYS54      -0.1314
     41  N         15.1340    3.0840   32.3770 N.am   55  LEU55      -0.1966
     42  CA        16.1500    4.0730   32.7120 C.3    55  LEU55       0.1728
     43  C         15.5570    5.0330   33.7310 C.2    55  LEU55       0.2616
     44  O         14.3450    5.0610   33.9280 O.2    55  LEU55      -0.2715
     45  CB        16.6340    4.8180   31.4710 C.3    55  LEU55       0.0311
     46  CG        17.3260    3.9280   30.4350 C.3    55  LEU55       0.0022
     47  CD1       17.4990    4.6840   29.1360 C.3    55  LEU55       0.0001
     48  CD2       18.6700    3.4250   30.9480 C.3    55  LEU55       0.0001
     49  N         16.4140    5.8160   34.3720 N.am   56  ARG56      -0.1977
     50  CA        15.9980    6.6200   35.5120 C.3    56  ARG56       0.1597
     51  C         16.8860    7.8480   35.6720 C.2    56  ARG56       0.2287
     52  O         18.1050    7.7540   35.5660 O.2    56  ARG56      -0.2864
     53  CB        16.0370    5.7580   36.7730 C.3    56  ARG56       0.0334
     54  CG        15.5800    6.4300   38.0480 C.3    56  ARG56       0.0492
     55  CD        16.2560    5.7580   39.2260 C.3    56  ARG56       0.2205
     56  NE        15.5570    5.9480   40.4920 N.pl3  56  ARG56      -0.0865
     57  CZ        15.6710    7.0290   41.2550 C.cat  56  ARG56       0.5346
     58  NH1       16.4400    8.0410   40.8690 N.pl3  56  ARG56       0.1354
     59  NH2       15.0050    7.1060   42.3980 N.pl3  56  ARG56       0.1354
     60  N         10.6160   10.0690   45.6260 N.3    94  GLU94      -0.1245
     61  CA        11.2740    9.1060   46.5030 C.3    94  GLU94       0.1567
     62  C         10.9790    9.4730   47.9550 C.2    94  GLU94       0.2260
     63  O         11.0400   10.6450   48.3230 O.2    94  GLU94      -0.2867
     64  CB        12.7830    9.0800   46.2460 C.3    94  GLU94       0.0388
     65  CG        13.4900    7.8860   46.8660 C.3    94  GLU94       0.1160
     66  CD        14.9280    7.7320   46.3990 C.2    94  GLU94       0.3649
     67  OE1       15.3270    8.4060   45.4260 O.co2  94  GLU94      -0.2457
     68  OE2       15.6600    6.9270   47.0100 O.co2  94  GLU94      -0.2457
     69  N         13.5300    5.1950   50.5990 N.3    98  GLY98      -0.1210
     70  CA        13.9810    4.8330   49.2670 C.3    98  GLY98       0.1956
     71  C         12.8840    4.2250   48.4120 C.2    98  GLY98       0.2612
     72  O         13.0930    3.9480   47.2330 O.2    98  GLY98      -0.2717
     73  N         11.7170    4.0070   49.0080 N.am   99  HIS99      -0.1961
     74  CA        10.5340    3.6420   48.2420 C.3    99  HIS99       0.1787
     75  C         10.0030    4.9150   47.5950 C.2    99  HIS99       0.2620
     76  O         10.6970    5.9310   47.5800 O.2    99  HIS99      -0.2715
     77  CB         9.4830    2.9790   49.1320 C.3    99  HIS99       0.0785
     78  CG         9.9570    1.7190   49.7860 C.ar   99  HIS99       0.0821
     79  ND1        9.9700    1.5500   51.1530 N.ar   99  HIS99      -0.2267
     80  CD2       10.4350    0.5660   49.2590 C.ar   99  HIS99       0.1154
     81  CE1       10.4350    0.3470   51.4420 C.ar   99  HIS99       0.1986
     82  NE2       10.7250   -0.2690   50.3110 N.ar   99  HIS99      -0.2212
     83  N          8.7910    4.8810   47.0550 N.am  100  ASN100     -0.1972
     84  CA         8.3070    6.0380   46.3170 C.3   100  ASN100      0.1688
     85  C          6.7990    6.1260   46.1770 C.2   100  ASN100      0.2292
     86  O          6.0730    5.1700   46.4540 O.2   100  ASN100     -0.2864
     87  CB         8.9310    6.0510   44.9230 C.3   100  ASN100      0.1181
     88  CG         8.3880    4.9540   44.0370 C.2   100  ASN100      0.2629
     89  OD1        7.3580    5.1250   43.3830 O.2   100  ASN100     -0.2716
     90  ND2        9.0770    3.8190   44.0080 N.am  100  ASN100     -0.0877
@<TRIPOS>BOND
     1    25    24    2
     2    24    23    1
     3    47    46    1
     4    23    22    1
     5    23    26    1
     6    46    48    1
     7    46    45    1
     8    26    27    1
     9    32    33    1
    10    45    42    1
    11    33    34    1
    12    33    36    1
    13    41    34   am
    14    41    42    1
    15    34    35    2
    16    27    28   ar
    17    27    29   ar
    18    42    43    1
    19    28    30   ar
    20    16    15    2
    21    29    31   ar
    22    37    36    1
    23    37    38    1
    24    15    14    1
    25    43    44    2
    26    43    49   am
    27    49    50    1
    28    30    31   ar
    29    39    38    1
    30    39    40    1
    31    14    13    1
    32    14    17    1
    33    50    51    1
    34    50    53    1
    35    52    51    2
    36    17    18    1
    37    53    54    1
    38    18    19    1
    39    54    55    1
    40    19    20    1
    41     3     4    2
    42     3     2    1
    43    20    21    1
    44    55    56    1
    45     2     5    1
    46     2     1    1
    47     8    10   ar
    48     8     6   ar
    49     5     6    1
    50    56    57    2
    51    10    11   ar
    52     6     7   ar
    53    58    57    1
    54    57    59    1
    55    11    12    1
    56    11     9   ar
    57     7     9   ar
    58    89    88    2
    59    90    88   am
    60    88    87    1
    61    87    84    1
    62    67    66   ar
    63    60    61    1
    64    85    84    1
    65    85    86    2
    66    64    61    1
    67    64    65    1
    68    84    83    1
    69    66    65    1
    70    66    68   ar
    71    61    62    1
    72    83    75   am
    73    72    71    2
    74    76    75    2
    75    75    74    1
    76    62    63    2
    77    74    73    1
    78    74    77    1
    79    71    73   am
    80    71    70    1
    81    77    78    1
    82    80    78   ar
    83    80    82   ar
    84    70    69    1
    85    78    79   ar
    86    82    81   ar
    87    79    81   ar
