@<TRIPOS>MOLECULE
tmp/4nplB00.pdb
 138 125 0 0 0
SMALL
GASTEIGER

@<TRIPOS>ATOM
      1  N        -14.5660  -23.0730  -11.2970 N.3    55  LYS55      -0.1245
      2  CA       -14.3930  -21.7000  -10.8500 C.3    55  LYS55       0.1561
      3  C        -15.5790  -21.3230   -9.9960 C.2    55  LYS55       0.2260
      4  O        -16.7220  -21.6090  -10.3500 O.2    55  LYS55      -0.2867
      5  CB       -14.2790  -20.7290  -12.0200 C.3    55  LYS55       0.0271
      6  CG       -13.0010  -20.8250  -12.8140 C.3    55  LYS55       0.0035
      7  CD       -12.8470  -19.5840  -13.6820 C.3    55  LYS55       0.0206
      8  CE       -11.6030  -19.6460  -14.5430 C.3    55  LYS55       0.1093
      9  NZ       -11.4590  -18.4070  -15.3640 N.3    55  LYS55      -0.1314
     10  N        -12.6070  -14.8190   -6.9420 N.3   105  VAL105     -0.1245
     11  CA       -12.8750  -16.0580   -7.6410 C.3   105  VAL105      0.1561
     12  C        -11.9580  -17.1410   -7.1080 C.2   105  VAL105      0.2260
     13  O        -10.7550  -16.9170   -6.9870 O.2   105  VAL105     -0.2867
     14  CB       -12.6380  -15.9460   -9.1600 C.3   105  VAL105      0.0252
     15  CG1      -13.0540  -17.2330   -9.8390 C.3   105  VAL105      0.0019
     16  CG2      -13.3900  -14.7710   -9.7400 C.3   105  VAL105      0.0019
     17  N        -10.4150  -20.6100   -8.1500 N.3   107  ASN107     -0.1240
     18  CA       -10.1650  -21.6340   -9.1750 C.3   107  ASN107      0.1653
     19  C         -9.6910  -22.9210   -8.5190 C.2   107  ASN107      0.2266
     20  O         -8.7110  -22.9050   -7.7770 O.2   107  ASN107     -0.2867
     21  CB        -9.0820  -21.2160  -10.1770 C.3   107  ASN107      0.1155
     22  CG        -9.4630  -20.0400  -11.0450 C.2   107  ASN107      0.2627
     23  OD1      -10.4990  -19.4050  -10.8730 O.2   107  ASN107     -0.2716
     24  ND2       -8.5910  -19.7380  -11.9980 N.am  107  ASN107     -0.0877
     25  N         -8.2770  -26.5960   -9.4460 N.3   109  TYR109     -0.1241
     26  CA        -7.7510  -27.4210  -10.5320 C.3   109  TYR109      0.1605
     27  C         -7.5100  -28.8560  -10.1250 C.2   109  TYR109      0.2264
     28  O         -6.8740  -29.1070   -9.1000 O.2   109  TYR109     -0.2867
     29  CB        -6.4020  -26.8860  -11.0330 C.3   109  TYR109      0.0534
     30  CG        -6.3760  -25.4520  -11.4720 C.ar  109  TYR109     -0.0201
     31  CD1       -6.6760  -25.0990  -12.7850 C.ar  109  TYR109     -0.0009
     32  CD2       -6.0290  -24.4430  -10.5800 C.ar  109  TYR109     -0.0009
     33  CE1       -6.6320  -23.7710  -13.1940 C.ar  109  TYR109      0.0417
     34  CE2       -5.9880  -23.1150  -10.9850 C.ar  109  TYR109      0.0417
     35  CZ        -6.2960  -22.7860  -12.2860 C.ar  109  TYR109      0.1957
     36  OH        -6.2470  -21.4610  -12.6800 O.3   109  TYR109     -0.2866
     37  N         -5.2090  -23.0410  -17.2930 N.3   115  ILE115     -0.1245
     38  CA        -5.9550  -21.8720  -17.7530 C.3   115  ILE115      0.1561
     39  C         -5.1900  -21.2680  -18.9320 C.2   115  ILE115      0.2260
     40  O         -3.9900  -20.9920  -18.8420 O.2   115  ILE115     -0.2867
     41  CB        -6.2140  -20.8380  -16.6200 C.3   115  ILE115      0.0252
     42  CG1       -7.1700  -19.7480  -17.1150 C.3   115  ILE115      0.0019
     43  CG2       -4.9310  -20.2380  -16.0620 C.3   115  ILE115      0.0019
     44  CD1       -8.0170  -19.1300  -16.0030 C.3   115  ILE115      0.0001
     45  N         -4.3380  -15.4330  -21.1970 N.3   118  HIS118     -0.1241
     46  CA        -5.2880  -14.3420  -21.2670 C.3   118  HIS118      0.1621
     47  C         -4.7380  -13.1140  -20.5650 C.2   118  HIS118      0.2264
     48  O         -3.7450  -13.1750  -19.8250 O.2   118  HIS118     -0.2867
     49  CB        -6.5900  -14.7490  -20.5910 C.3   118  HIS118      0.0745
     50  CG        -6.4030  -15.0700  -19.1470 C.ar  118  HIS118      0.0817
     51  ND1       -5.9360  -16.2940  -18.7150 N.ar  118  HIS118     -0.2268
     52  CD2       -6.5820  -14.3170  -18.0350 C.ar  118  HIS118      0.1154
     53  CE1       -5.8460  -16.2830  -17.3950 C.ar  118  HIS118      0.1986
     54  NE2       -6.2250  -15.0930  -16.9610 N.ar  118  HIS118     -0.2212
     55  N         -6.4890  -10.3130  -17.9460 N.3   120  ASP120     -0.1239
     56  CA        -7.7090  -10.0200  -17.1960 C.3   120  ASP120      0.1674
     57  C         -8.2580   -8.7040  -17.7640 C.2   120  ASP120      0.2266
     58  O         -7.5280   -7.7070  -17.7940 O.2   120  ASP120     -0.2867
     59  CB        -7.4400   -9.8880  -15.6870 C.3   120  ASP120      0.1410
     60  CG        -7.0270  -11.2040  -15.0120 C.2   120  ASP120      0.3668
     61  OD1       -6.6410  -12.1830  -15.6890 O.co2 120  ASP120     -0.2456
     62  OD2       -7.1040  -11.2700  -13.7660 O.co2 120  ASP120     -0.2456
     63  N         -3.4140  -12.8310   -6.4190 N.3   131  SER131     -0.1217
     64  CA        -3.7920  -14.2220   -6.3030 C.3   131  SER131      0.1889
     65  C         -3.0880  -14.8390   -5.1110 C.2   131  SER131      0.2288
     66  O         -1.9510  -14.4910   -4.7950 O.2   131  SER131     -0.2866
     67  CB        -3.4600  -14.9970   -7.5830 C.3   131  SER131      0.2089
     68  OG        -2.0690  -15.0630   -7.8150 O.3   131  SER131     -0.2183
     69  N          3.2420  -19.8230  -12.5380 N.3   140  LEU140     -0.1245
     70  CA         2.4610  -18.9310  -13.3890 C.3   140  LEU140      0.1561
     71  C          3.3450  -18.5390  -14.5620 C.2   140  LEU140      0.2260
     72  O          4.4640  -18.0650  -14.3630 O.2   140  LEU140     -0.2867
     73  CB         2.0130  -17.6860  -12.6130 C.3   140  LEU140      0.0270
     74  CG         1.2030  -16.6120  -13.3440 C.3   140  LEU140      0.0019
     75  CD1       -0.1290  -17.1820  -13.7430 C.3   140  LEU140      0.0001
     76  CD2        1.0360  -15.3780  -12.4470 C.3   140  LEU140      0.0001
     77  N          5.2010  -20.4990   -8.2130 N.3   162  VAL162     -0.1245
     78  CA         4.1990  -20.0610   -7.2560 C.3   162  VAL162      0.1561
     79  C          3.9480  -21.1900   -6.2680 C.2   162  VAL162      0.2260
     80  O          3.2060  -22.1230   -6.5460 O.2   162  VAL162     -0.2867
     81  CB         2.8910  -19.6550   -7.9480 C.3   162  VAL162      0.0252
     82  CG1        1.8530  -19.2400   -6.9220 C.3   162  VAL162      0.0019
     83  CG2        3.1500  -18.5180   -8.9350 C.3   162  VAL162      0.0019
     84  N         -0.9730  -14.1480  -19.2830 N.3   180  HIS180     -0.1241
     85  CA        -0.4970  -15.1740  -18.3500 C.3   180  HIS180      0.1621
     86  C         -1.3690  -16.4130  -18.4480 C.2   180  HIS180      0.2264
     87  O         -2.4590  -16.3660  -19.0070 O.2   180  HIS180     -0.2867
     88  CB        -0.4470  -14.6680  -16.9000 C.3   180  HIS180      0.0745
     89  CG        -1.7580  -14.1910  -16.3540 C.ar  180  HIS180      0.0817
     90  ND1       -2.2300  -12.9140  -16.5680 N.ar  180  HIS180     -0.2268
     91  CD2       -2.6710  -14.8040  -15.5620 C.ar  180  HIS180      0.1154
     92  CE1       -3.3900  -12.7650  -15.9500 C.ar  180  HIS180      0.1986
     93  NE2       -3.6820  -13.8980  -15.3330 N.ar  180  HIS180     -0.2212
     94  N         -1.7170  -20.8760  -16.8230 N.3   182  ILE182     -0.1245
     95  CA        -1.2240  -22.0050  -16.0550 C.3   182  ILE182      0.1561
     96  C         -1.1730  -23.1720  -17.0250 C.2   182  ILE182      0.2260
     97  O         -2.1830  -23.4920  -17.6550 O.2   182  ILE182     -0.2867
     98  CB        -2.1280  -22.3300  -14.8500 C.3   182  ILE182      0.0252
     99  CG1       -2.1780  -21.1550  -13.8700 C.3   182  ILE182      0.0019
    100  CG2       -1.6330  -23.5760  -14.1460 C.3   182  ILE182      0.0019
    101  CD1       -0.9360  -20.9650  -13.0490 C.3   182  ILE182      0.0001
    102  N         -4.6410  -28.1080   -7.0270 N.3   191  ARG191     -0.1245
    103  CA        -4.2050  -26.7740   -6.6780 C.3   191  ARG191      0.1563
    104  C         -5.4200  -25.8740   -6.7300 C.2   191  ARG191      0.2260
    105  O         -6.2620  -26.0160   -7.6170 O.2   191  ARG191     -0.2867
    106  CB        -3.1330  -26.2670   -7.6450 C.3   191  ARG191      0.0307
    107  CG        -2.8480  -24.7680   -7.5020 C.3   191  ARG191      0.0489
    108  CD        -1.7140  -24.3150   -8.4100 C.3   191  ARG191      0.2205
    109  NE        -1.4330  -22.8880   -8.2490 N.pl3 191  ARG191     -0.0865
    110  CZ        -1.9130  -21.9390   -9.0440 C.cat 191  ARG191      0.5346
    111  NH1       -2.7130  -22.2580  -10.0610 N.pl3 191  ARG191      0.1354
    112  NH2       -1.6150  -20.6650   -8.8110 N.pl3 191  ARG191      0.1354
    113  N         -6.6590  -21.6000   -6.2350 N.3   193  VAL193     -0.1245
    114  CA        -6.1650  -20.2310   -6.1440 C.3   193  VAL193      0.1561
    115  C         -7.3220  -19.3050   -5.8610 C.2   193  VAL193      0.2260
    116  O         -8.3960  -19.4600   -6.4350 O.2   193  VAL193     -0.2867
    117  CB        -5.4780  -19.7550   -7.4360 C.3   193  VAL193      0.0252
    118  CG1       -4.4680  -18.6480   -7.1270 C.3   193  VAL193      0.0019
    119  CG2       -4.7980  -20.8990   -8.1290 C.3   193  VAL193      0.0019
    120  N         -8.4000  -15.6290   -6.4290 N.3   195  ILE195     -0.1245
    121  CA        -8.0630  -14.4170   -7.1650 C.3   195  ILE195      0.1561
    122  C         -8.9020  -13.2450   -6.6610 C.2   195  ILE195      0.2260
    123  O        -10.1380  -13.2720   -6.7040 O.2   195  ILE195     -0.2867
    124  CB        -8.2720  -14.5960   -8.6670 C.3   195  ILE195      0.0252
    125  CG1       -7.5210  -15.8320   -9.1480 C.3   195  ILE195      0.0019
    126  CG2       -7.7930  -13.3550   -9.4320 C.3   195  ILE195      0.0019
    127  CD1       -8.2110  -16.5340  -10.2440 C.3   195  ILE195      0.0001
    128  N         -9.8150   -9.2020   -6.7940 N.3   197  ARG197     -0.1245
    129  CA        -9.7630   -8.0930   -7.7380 C.3   197  ARG197      0.1563
    130  C        -10.7590   -7.0050   -7.3860 C.2   197  ARG197      0.2260
    131  O        -11.7400   -7.2370   -6.6740 O.2   197  ARG197     -0.2867
    132  CB       -10.0080   -8.5850   -9.1770 C.3   197  ARG197      0.0307
    133  CG        -8.8930   -9.4990   -9.7260 C.3   197  ARG197      0.0489
    134  CD        -9.1710  -10.0470  -11.1210 C.3   197  ARG197      0.2205
    135  NE       -10.2870  -10.9730  -11.0920 N.pl3 197  ARG197     -0.0865
    136  CZ       -10.6110  -11.7990  -12.0750 C.cat 197  ARG197      0.5346
    137  NH1       -9.8970  -11.8180  -13.1980 N.pl3 197  ARG197      0.1354
    138  NH2      -11.6710  -12.5860  -11.9400 N.pl3 197  ARG197      0.1354
@<TRIPOS>BOND
     1    46    45    1
     2    46    49    1
     3    46    47    1
     4    49    50    1
     5    47    48    2
     6    84    85    1
     7    50    51   ar
     8    50    52   ar
     9    87    86    2
    10    39    40    2
    11    39    38    1
    12    51    53   ar
    13    86    85    1
    14    85    88    1
    15    52    54   ar
    16    55    56    1
    17    58    57    2
    18    57    56    1
    19    38    37    1
    20    38    41    1
    21    97    96    2
    22    53    54   ar
    23    56    59    1
    24    42    41    1
    25    42    44    1
    26    96    95    1
    27    88    89    1
    28    94    95    1
    29    41    43    1
    30    90    89   ar
    31    90    92   ar
    32    89    91   ar
    33    95    98    1
    34    92    93   ar
    35    61    60   ar
    36    59    60    1
    37    91    93   ar
    38     9     8    1
    39    60    62   ar
    40    98   100    1
    41    98    99    1
    42    71    72    2
    43    71    70    1
    44     8     7    1
    45    99   101    1
    46    75    74    1
    47     7     6    1
    48    70    73    1
    49    70    69    1
    50    74    73    1
    51    74    76    1
    52   137   136    1
    53    33    31   ar
    54    33    35   ar
    55     6     5    1
    56    31    30   ar
    57    36    35    1
    58    35    34   ar
    59   136   138    1
    60   136   135    2
    61     5     2    1
    62    24    22   am
    63    30    29    1
    64    30    32   ar
    65     1     2    1
    66   134   135    1
    67   134   133    1
    68    22    23    2
    69    22    21    1
    70    29    26    1
    71    34    32   ar
    72     2     3    1
    73    26    27    1
    74    26    25    1
    75     4     3    2
    76   127   125    1
    77    21    18    1
    78    27    28    2
    79   111   110    1
    80    15    14    1
    81    16    14    1
    82   133   132    1
    83   126   124    1
    84   132   129    1
    85    18    19    1
    86    18    17    1
    87    14    11    1
    88   125   124    1
    89   110   112    1
    90   110   109    2
    91    83    81    1
    92   124   121    1
    93    19    20    2
    94   108   109    1
    95   108   107    1
    96    77    78    1
    97   119   117    1
    98    81    78    1
    99    81    82    1
   100    68    67    1
   101   129   130    1
   102   129   128    1
   103   106   107    1
   104   106   103    1
   105    11    12    1
   106    11    10    1
   107   105   104    2
   108    67    64    1
   109   117   118    1
   110   117   114    1
   111   130   131    2
   112    78    79    1
   113   121   122    1
   114   121   120    1
   115    12    13    2
   116   102   103    1
   117   104   103    1
   118   123   122    2
   119    80    79    2
   120   116   115    2
   121    63    64    1
   122    64    65    1
   123   113   114    1
   124   114   115    1
   125    65    66    2
