@<TRIPOS>MOLECULE
tmp/4npmB00.pdb
 124 113 0 0 0
SMALL
GASTEIGER

@<TRIPOS>ATOM
      1  N         14.2700   23.7720  -11.1050 N.3    55  LYS55      -0.1245
      2  CA        14.0200   22.3950  -10.6900 C.3    55  LYS55       0.1561
      3  C         15.1780   21.9260   -9.8310 C.2    55  LYS55       0.2260
      4  O         16.3450   22.2030  -10.1370 O.2    55  LYS55      -0.2867
      5  CB        13.8870   21.4690  -11.8930 C.3    55  LYS55       0.0271
      6  CG        12.7540   21.8390  -12.8240 C.3    55  LYS55       0.0035
      7  CD        12.5730   20.7580  -13.8540 C.3    55  LYS55       0.0206
      8  CE        11.1400   20.7310  -14.3420 C.3    55  LYS55       0.1093
      9  NZ        10.8430   19.4520  -15.0550 N.3    55  LYS55      -0.1314
     10  N          9.8690   21.3470   -8.2760 N.3   105  ASN105     -0.1240
     11  CA         9.7160   22.3760   -9.2950 C.3   105  ASN105      0.1653
     12  C          9.2220   23.6320   -8.6120 C.2   105  ASN105      0.2266
     13  O          8.2380   23.5880   -7.8760 O.2   105  ASN105     -0.2867
     14  CB         8.6660   21.9900  -10.3410 C.3   105  ASN105      0.1155
     15  CG         9.1370   20.9340  -11.3200 C.2   105  ASN105      0.2627
     16  OD1       10.0880   20.2020  -11.0700 O.2   105  ASN105     -0.2716
     17  ND2        8.4390   20.8380  -12.4450 N.am  105  ASN105     -0.0877
     18  N          7.9730   27.4290   -9.4090 N.3   107  TYR107     -0.1241
     19  CA         7.5350   28.3370  -10.4610 C.3   107  TYR107      0.1605
     20  C          7.3380   29.7580   -9.9390 C.2   107  TYR107      0.2264
     21  O          6.6790   29.9620   -8.9110 O.2   107  TYR107     -0.2867
     22  CB         6.1960   27.8740  -11.0300 C.3   107  TYR107      0.0534
     23  CG         6.1580   26.4470  -11.5070 C.ar  107  TYR107     -0.0201
     24  CD1        6.5170   26.1200  -12.8060 C.ar  107  TYR107     -0.0009
     25  CD2        5.7410   25.4230  -10.6600 C.ar  107  TYR107     -0.0009
     26  CE1        6.4710   24.8120  -13.2490 C.ar  107  TYR107      0.0417
     27  CE2        5.6820   24.1220  -11.0980 C.ar  107  TYR107      0.0417
     28  CZ         6.0480   23.8240  -12.3890 C.ar  107  TYR107      0.1957
     29  OH         5.9970   22.5220  -12.8270 O.3   107  TYR107     -0.2866
     30  N          5.2450   24.5640  -17.4520 N.3   113  ILE113     -0.1245
     31  CA         6.0060   23.4540  -18.0120 C.3   113  ILE113      0.1561
     32  C          5.2810   22.9090  -19.2390 C.2   113  ILE113      0.2260
     33  O          4.0950   22.5760  -19.1860 O.2   113  ILE113     -0.2867
     34  CB         6.3650   22.3540  -16.9650 C.3   113  ILE113      0.0252
     35  CG1        7.3580   21.3540  -17.5640 C.3   113  ILE113      0.0019
     36  CG2        5.1160   21.6570  -16.4320 C.3   113  ILE113      0.0019
     37  CD1        8.1110   20.5190  -16.5220 C.3   113  ILE113      0.0001
     38  N          4.3750   17.2220  -21.7510 N.3   116  HIS116     -0.1241
     39  CA         5.3320   16.1310  -21.8260 C.3   116  HIS116      0.1621
     40  C          4.7480   14.9020  -21.1560 C.2   116  HIS116      0.2264
     41  O          3.7310   14.9810  -20.4520 O.2   116  HIS116     -0.2867
     42  CB         6.6070   16.5220  -21.0850 C.3   116  HIS116      0.0745
     43  CG         6.4020   16.6790  -19.6130 C.ar  116  HIS116      0.0817
     44  ND1        5.9490   17.8540  -19.0460 N.ar  116  HIS116     -0.2268
     45  CD2        6.5470   15.8000  -18.5920 C.ar  116  HIS116      0.1154
     46  CE1        5.8420   17.6950  -17.7370 C.ar  116  HIS116      0.1986
     47  NE2        6.1980   16.4570  -17.4360 N.ar  116  HIS116     -0.2212
     48  N          6.2910   11.9380  -18.5780 N.3   118  ASP118     -0.1239
     49  CA         7.4780   11.5820  -17.7870 C.3   118  ASP118      0.1674
     50  C          8.1190   10.3360  -18.3920 C.2   118  ASP118      0.2266
     51  O          7.4330    9.3340  -18.5770 O.2   118  ASP118     -0.2867
     52  CB         7.1000   11.2870  -16.3320 C.3   118  ASP118      0.1410
     53  CG         6.6720   12.5300  -15.5590 C.2   118  ASP118      0.3668
     54  OD1        6.3580   13.5590  -16.1890 O.co2 118  ASP118     -0.2456
     55  OD2        6.6320   12.4630  -14.3060 O.co2 118  ASP118     -0.2456
     56  N          2.7200   13.5590   -6.9110 N.3   129  SER129     -0.1217
     57  CA         3.1750   14.9390   -6.6970 C.3   129  SER129      0.1889
     58  C          2.3950   15.5780   -5.5570 C.2   129  SER129      0.2288
     59  O          1.2360   15.2310   -5.3220 O.2   129  SER129     -0.2866
     60  CB         3.0450   15.7730   -7.9740 C.3   129  SER129      0.2089
     61  OG         1.6890   15.9290   -8.3760 O.3   129  SER129     -0.2183
     62  N         -3.4420   21.1520  -13.2570 N.3   138  LEU138     -0.1245
     63  CA        -2.6030   20.2940  -14.0830 C.3   138  LEU138      0.1561
     64  C         -3.4510   19.9540  -15.2980 C.2   138  LEU138      0.2260
     65  O         -4.5900   19.4970  -15.1550 O.2   138  LEU138     -0.2867
     66  CB        -2.2580   19.0230  -13.3040 C.3   138  LEU138      0.0270
     67  CG        -1.3460   17.9750  -13.9410 C.3   138  LEU138      0.0019
     68  CD1        0.0500   18.5480  -14.2160 C.3   138  LEU138      0.0001
     69  CD2       -1.2700   16.7290  -13.0490 C.3   138  LEU138      0.0001
     70  N          1.0180   15.7640  -19.9230 N.3   178  HIS178     -0.1241
     71  CA         0.5050   16.7280  -18.9490 C.3   178  HIS178      0.1621
     72  C          1.3470   18.0050  -18.9750 C.2   178  HIS178      0.2264
     73  O          2.4880   18.0080  -19.4570 O.2   178  HIS178     -0.2867
     74  CB         0.4050   16.1380  -17.5340 C.3   178  HIS178      0.0745
     75  CG         1.7100   15.6700  -16.9760 C.ar  178  HIS178      0.0817
     76  ND1        2.1870   14.3920  -17.1720 N.ar  178  HIS178     -0.2268
     77  CD2        2.6400   16.3050  -16.2210 C.ar  178  HIS178      0.1154
     78  CE1        3.3560   14.2610  -16.5670 C.ar  178  HIS178      0.1986
     79  NE2        3.6540   15.4090  -15.9830 N.ar  178  HIS178     -0.2212
     80  N          1.6460   22.3880  -17.1770 N.3   180  ILE180     -0.1245
     81  CA         1.1580   23.4840  -16.3530 C.3   180  ILE180      0.1561
     82  C          1.1300   24.6910  -17.2680 C.2   180  ILE180      0.2260
     83  O          2.1470   25.0190  -17.8750 O.2   180  ILE180     -0.2867
     84  CB         2.1220   23.7830  -15.1950 C.3   180  ILE180      0.0252
     85  CG1        2.2060   22.5960  -14.2300 C.3   180  ILE180      0.0019
     86  CG2        1.7070   25.0580  -14.4770 C.3   180  ILE180      0.0019
     87  CD1        0.9660   22.3980  -13.3830 C.3   180  ILE180      0.0001
     88  N          4.3050   28.9930   -7.1030 N.3   189  ARG189     -0.1245
     89  CA         3.8450   27.6490   -6.7920 C.3   189  ARG189      0.1563
     90  C          5.0320   26.7140   -6.8250 C.2   189  ARG189      0.2260
     91  O          5.9230   26.8730   -7.6590 O.2   189  ARG189     -0.2867
     92  CB         2.8400   27.1750   -7.8360 C.3   189  ARG189      0.0307
     93  CG         2.4460   25.7110   -7.6760 C.3   189  ARG189      0.0489
     94  CD         1.3990   25.3110   -8.6820 C.3   189  ARG189      0.2205
     95  NE         1.0410   23.9040   -8.5500 N.pl3 189  ARG189     -0.0865
     96  CZ         1.5170   22.9500   -9.3410 C.cat 189  ARG189      0.5346
     97  NH1        2.3630   23.2610  -10.3230 N.pl3 189  ARG189      0.1354
     98  NH2        1.1700   21.6850   -9.1450 N.pl3 189  ARG189      0.1354
     99  N          6.0670   22.3350   -6.4700 N.3   191  VAL191     -0.1245
    100  CA         5.5550   20.9630   -6.4560 C.3   191  VAL191      0.1561
    101  C          6.6800   20.0250   -6.1120 C.2   191  VAL191      0.2260
    102  O          7.7970   20.2080   -6.6020 O.2   191  VAL191     -0.2867
    103  CB         5.0800   20.5110   -7.8350 C.3   191  VAL191      0.0252
    104  CG1        4.2550   19.2280   -7.7250 C.3   191  VAL191      0.0019
    105  CG2        4.2990   21.5830   -8.4960 C.3   191  VAL191      0.0019
    106  N          7.7080   16.2700   -6.7300 N.3   193  ILE193     -0.1245
    107  CA         7.3720   15.0950   -7.5220 C.3   193  ILE193      0.1561
    108  C          8.1750   13.9280   -6.9840 C.2   193  ILE193      0.2260
    109  O          9.4110   13.9970   -6.8950 O.2   193  ILE193     -0.2867
    110  CB         7.6940   15.3120   -9.0030 C.3   193  ILE193      0.0252
    111  CG1        6.9970   16.5830   -9.4980 C.3   193  ILE193      0.0019
    112  CG2        7.2540   14.1110   -9.8400 C.3   193  ILE193      0.0019
    113  CD1        7.4840   17.0430  -10.8500 C.3   193  ILE193      0.0001
    114  N          9.0380    9.9120   -7.3030 N.3   195  ARG195     -0.1245
    115  CA         8.9850    8.8200   -8.2720 C.3   195  ARG195      0.1563
    116  C          9.9640    7.7170   -7.9260 C.2   195  ARG195      0.2260
    117  O         10.8820    7.9100   -7.1200 O.2   195  ARG195     -0.2867
    118  CB         9.2700    9.3420   -9.6860 C.3   195  ARG195      0.0307
    119  CG         8.1230   10.1910  -10.2620 C.3   195  ARG195      0.0489
    120  CD         8.5150   10.8980  -11.5570 C.3   195  ARG195      0.2205
    121  NE         9.5800   11.8720  -11.3390 N.pl3 195  ARG195     -0.0865
    122  CZ         9.8850   12.8570  -12.1770 C.cat 195  ARG195      0.5346
    123  NH1        9.1920   13.0280  -13.2960 N.pl3 195  ARG195      0.1354
    124  NH2       10.8800   13.6850  -11.8890 N.pl3 195  ARG195      0.1354
@<TRIPOS>BOND
     1    39    38    1
     2    39    40    1
     3    39    42    1
     4    40    41    2
     5    42    43    1
     6    70    71    1
     7    43    44   ar
     8    43    45   ar
     9    73    72    2
    10    32    33    2
    11    32    31    1
    12    44    46   ar
    13    72    71    1
    14    71    74    1
    15    45    47   ar
    16    48    49    1
    17    51    50    2
    18    50    49    1
    19    31    30    1
    20    31    34    1
    21    83    82    2
    22    49    52    1
    23    46    47   ar
    24    35    34    1
    25    35    37    1
    26    74    75    1
    27    82    81    1
    28    80    81    1
    29    76    75   ar
    30    76    78   ar
    31    75    77   ar
    32    34    36    1
    33    78    79   ar
    34    81    84    1
    35    52    53    1
    36    77    79   ar
    37    54    53   ar
    38    53    55   ar
    39    64    65    2
    40    64    63    1
    41    84    86    1
    42    84    85    1
    43     9     8    1
    44     8     7    1
    45    85    87    1
    46    68    67    1
    47    63    66    1
    48    63    62    1
    49    67    66    1
    50    67    69    1
    51     7     6    1
    52   123   122    1
    53    26    24   ar
    54    26    28   ar
    55    29    28    1
    56     6     5    1
    57    24    23   ar
    58    17    15   am
    59    28    27   ar
    60   122   124    1
    61   122   121    2
    62     5     2    1
    63   120   121    1
    64   120   119    1
    65    23    22    1
    66    23    25   ar
    67    15    16    2
    68    15    14    1
    69     1     2    1
    70    27    25   ar
    71    22    19    1
    72   113   111    1
    73     2     3    1
    74    19    20    1
    75    19    18    1
    76    14    11    1
    77    97    96    1
    78   119   118    1
    79     4     3    2
    80    20    21    2
    81   112   110    1
    82   118   115    1
    83   111   110    1
    84    96    98    1
    85    96    95    2
    86    11    12    1
    87    11    10    1
    88   110   107    1
    89    94    95    1
    90    94    93    1
    91    12    13    2
    92   105   103    1
    93    61    60    1
    94   115   116    1
    95   115   114    1
    96    60    57    1
    97   116   117    2
    98    92    93    1
    99    92    89    1
   100   103   104    1
   101   103   100    1
   102    91    90    2
   103   107   108    1
   104   107   106    1
   105    88    89    1
   106   108   109    2
   107    56    57    1
   108    90    89    1
   109    57    58    1
   110   102   101    2
   111    99   100    1
   112   100   101    1
   113    58    59    2
