@<TRIPOS>MOLECULE
tmp/4nq3A00.pdb
 76 68 0 0 0
SMALL
GASTEIGER

@<TRIPOS>ATOM
      1  N        152.2770   81.3740   46.0980 N.3    44  GLY44      -0.1225
      2  CA       152.3530   81.1520   44.6700 C.3    44  GLY44       0.1811
      3  C        152.8790   82.3370   43.8750 C.2    44  GLY44       0.2280
      4  O        152.7720   82.3530   42.6580 O.2    44  GLY44      -0.2866
      5  N        157.9380   76.5110   47.7620 N.3    51  ARG51      -0.1245
      6  CA       158.3430   75.8270   46.5320 C.3    51  ARG51       0.1563
      7  C        159.7640   75.2910   46.6650 C.2    51  ARG51       0.2260
      8  O        160.0160   74.1030   46.4610 O.2    51  ARG51      -0.2867
      9  CB       158.2600   76.7720   45.3180 C.3    51  ARG51       0.0307
     10  CG       156.8400   77.1460   44.8960 C.3    51  ARG51       0.0489
     11  CD       156.7950   78.0790   43.6990 C.3    51  ARG51       0.2205
     12  NE       157.6530   79.2300   43.9060 N.pl3  51  ARG51      -0.0865
     13  CZ       157.2630   80.4920   43.8260 C.cat  51  ARG51       0.5346
     14  NH1      156.0050   80.7830   43.5260 N.pl3  51  ARG51       0.1354
     15  NH2      158.1360   81.4630   44.0320 N.pl3  51  ARG51       0.1354
     16  N        154.3590   74.0730   42.1640 N.3    75  SER75      -0.1202
     17  CA       153.4940   75.2300   41.9860 C.3    75  SER75       0.2020
     18  C        152.8580   75.6060   43.2960 C.2    75  SER75       0.2619
     19  O        152.1310   74.7980   43.8780 O.2    75  SER75      -0.2717
     20  CB       152.4080   74.9590   40.9630 C.3    75  SER75       0.2103
     21  OG       151.6730   76.1410   40.7420 O.3    75  SER75      -0.2182
     22  N        153.1770   76.8090   43.7770 N.am   76  GLY76      -0.1956
     23  CA       152.6720   77.3060   45.0450 C.3    76  GLY76       0.1869
     24  C        151.2660   77.8490   44.9100 C.2    76  GLY76       0.2309
     25  O        150.7430   78.0180   43.8000 O.2    76  GLY76      -0.2863
     26  N        155.8360   83.1380   32.2130 N.3   174  ARG174     -0.1245
     27  CA       154.8270   82.1410   31.8750 C.3   174  ARG174      0.1563
     28  C        154.4220   82.3090   30.4130 C.2   174  ARG174      0.2260
     29  O        154.3040   81.3290   29.6710 O.2   174  ARG174     -0.2867
     30  CB       153.5810   82.2520   32.7750 C.3   174  ARG174      0.0307
     31  CG       153.7220   81.7820   34.2190 C.3   174  ARG174      0.0489
     32  CD       152.3820   81.8310   34.9610 C.3   174  ARG174      0.2205
     33  NE       151.8830   83.1970   34.9990 N.pl3 174  ARG174     -0.0865
     34  CZ       151.9040   83.9750   36.0810 C.cat 174  ARG174      0.5346
     35  NH1      152.3780   83.5050   37.2280 N.pl3 174  ARG174      0.1354
     36  NH2      151.4390   85.2190   36.0260 N.pl3 174  ARG174      0.1354
     37  N        154.2360   77.5870   35.0780 N.3   212  SER212     -0.1202
     38  CA       154.3000   77.9340   36.4870 C.3   212  SER212      0.2020
     39  C        155.6820   78.5220   36.7770 C.2   212  SER212      0.2619
     40  O        156.7170   77.8930   36.4960 O.2   212  SER212     -0.2717
     41  CB       154.0260   76.6990   37.3460 C.3   212  SER212      0.2103
     42  OG       154.1490   76.9820   38.7200 O.3   212  SER212     -0.2182
     43  N        155.6950   79.7450   37.2970 N.am  213  SER213     -0.1951
     44  CA       156.9330   80.4810   37.5020 C.3   213  SER213      0.1924
     45  C        157.3830   80.3140   38.9630 C.2   213  SER213      0.2314
     46  O        156.5700   80.0580   39.8350 O.2   213  SER213     -0.2863
     47  CB       156.7260   81.9510   37.1240 C.3   213  SER213      0.2116
     48  OG       157.9300   82.6990   37.1510 O.3   213  SER213     -0.2180
     49  N        146.2990   86.2620   40.7260 N.3   293  THR293     -0.1218
     50  CA       146.3380   84.8070   40.5780 C.3   293  THR293      0.1862
     51  C        145.8990   84.0660   41.8250 C.2   293  THR293      0.2287
     52  O        145.3560   82.9590   41.7420 O.2   293  THR293     -0.2866
     53  CB       147.7020   84.3550   40.2700 C.3   293  THR293      0.1770
     54  OG1      148.6080   85.1820   41.0180 O.3   293  THR293     -0.2211
     55  CG2      147.9510   84.5090   38.7990 C.3   293  THR293      0.0375
     56  N        143.0290   81.2980   41.3790 N.3   297  ARG297     -0.1245
     57  CA       143.2310   79.9300   41.8380 C.3   297  ARG297      0.1563
     58  C        142.1100   79.4810   42.7680 C.2   297  ARG297      0.2260
     59  O        141.4510   78.4760   42.4990 O.2   297  ARG297     -0.2867
     60  CB       144.5770   79.7720   42.5440 C.3   297  ARG297      0.0307
     61  CG       145.7780   79.5080   41.6460 C.3   297  ARG297      0.0489
     62  CD       146.9860   79.0660   42.4940 C.3   297  ARG297      0.2205
     63  NE       147.3670   80.0920   43.4530 N.pl3 297  ARG297     -0.0865
     64  CZ       148.2960   81.0080   43.2180 C.cat 297  ARG297      0.5346
     65  NH1      148.9660   80.9860   42.0630 N.pl3 297  ARG297      0.1354
     66  NH2      148.5690   81.9260   44.1390 N.pl3 297  ARG297      0.1354
     67  N        146.7080   76.1060   38.8540 N.3   316  SER316     -0.1202
     68  CA       147.8490   76.9970   38.7250 C.3   316  SER316      0.2020
     69  C        147.3810   78.3420   38.1420 C.2   316  SER316      0.2619
     70  O        146.5770   78.3610   37.2160 O.2   316  SER316     -0.2717
     71  CB       148.8980   76.3400   37.8340 C.3   316  SER316      0.2103
     72  OG       149.8910   77.2650   37.4730 O.3   316  SER316     -0.2182
     73  N        147.8520   79.4580   38.6890 N.am  317  GLY317     -0.1956
     74  CA       147.3190   80.7650   38.3120 C.3   317  GLY317      0.1869
     75  C        148.1110   81.4570   37.2210 C.2   317  GLY317      0.2309
     76  O        149.2900   81.1980   37.0610 O.2   317  GLY317     -0.2863
@<TRIPOS>BOND
     1    29    28    2
     2    28    27    1
     3    27    26    1
     4    27    30    1
     5    30    31    1
     6    31    32    1
     7    32    33    1
     8    33    34    2
     9    37    38    1
    10    36    34    1
    11    34    35    1
    12    38    39    1
    13    38    41    1
    14    40    39    2
    15    39    43   am
    16    76    75    2
    17    47    48    1
    18    47    44    1
    19    70    69    2
    20    75    74    1
    21    43    44    1
    22    41    42    1
    23    72    71    1
    24    44    45    1
    25    71    68    1
    26    69    73   am
    27    69    68    1
    28    74    73    1
    29    68    67    1
    30    55    53    1
    31    45    46    2
    32    53    50    1
    33    53    54    1
    34    50    49    1
    35    50    51    1
    36    21    20    1
    37    20    17    1
    38    56    57    1
    39    61    62    1
    40    61    60    1
    41    52    51    2
    42    57    60    1
    43    57    58    1
    44    17    16    1
    45    17    18    1
    46    65    64    1
    47    62    63    1
    48    59    58    2
    49     4     3    2
    50    64    63    2
    51    64    66    1
    52    18    22   am
    53    18    19    2
    54    14    13    1
    55    11    12    1
    56    11    10    1
    57    22    23    1
    58    25    24    2
    59    13    12    2
    60    13    15    1
    61     3     2    1
    62     2     1    1
    63    10     9    1
    64    24    23    1
    65     9     6    1
    66     8     7    2
    67     6     7    1
    68     6     5    1
