@<TRIPOS>MOLECULE
tmp/4nq5A00.pdb
 96 92 0 0 0
SMALL
GASTEIGER

@<TRIPOS>ATOM
      1  N         14.2390   15.7540   19.7430 N.3    28  VAL28      -0.1245
      2  CA        14.6170   14.3980   20.2330 C.3    28  VAL28       0.1561
      3  C         14.4110   13.2610   19.2100 C.2    28  VAL28       0.2260
      4  O         13.3230   13.1420   18.6120 O.2    28  VAL28      -0.2867
      5  CB        13.9140   14.0620   21.5890 C.3    28  VAL28       0.0252
      6  CG1       12.5720   14.7700   21.7030 C.3    28  VAL28       0.0019
      7  CG2       13.7540   12.5580   21.8340 C.3    28  VAL28       0.0019
      8  N          6.4020   10.6380   15.5930 N.3    48  TRP48      -0.1241
      9  CA         5.8440   11.6950   16.4850 C.3    48  TRP48       0.1605
     10  C          4.4590   12.2290   16.0940 C.2    48  TRP48       0.2264
     11  O          3.5780   12.4000   16.9280 O.2    48  TRP48      -0.2867
     12  CB         6.8390   12.8770   16.5680 C.3    48  TRP48       0.0550
     13  CG         8.1220   12.5000   17.2500 C.ar   48  TRP48       0.0003
     14  CD1        9.2820   12.0700   16.6610 C.ar   48  TRP48       0.0946
     15  CD2        8.3480   12.4620   18.6590 C.ar   48  TRP48       0.0152
     16  NE1       10.2270   11.7790   17.6240 N.ar   48  TRP48      -0.2442
     17  CE2        9.6760   12.0170   18.8580 C.ar   48  TRP48       0.0810
     18  CE3        7.5480   12.7640   19.7800 C.ar   48  TRP48       0.0012
     19  CZ2       10.2230   11.8670   20.1180 C.ar   48  TRP48       0.0191
     20  CZ3        8.0910   12.6340   21.0270 C.ar   48  TRP48       0.0001
     21  CH2        9.4220   12.1790   21.1920 C.ar   48  TRP48       0.0015
     22  N          3.7960    1.0970   22.2050 N.3    75  HIS75      -0.1241
     23  CA         2.9880    1.6360   23.3070 C.3    75  HIS75       0.1621
     24  C          2.3110    2.9370   22.8580 C.2    75  HIS75       0.2264
     25  O          2.4970    3.3510   21.7160 O.2    75  HIS75      -0.2867
     26  CB         3.7760    1.8200   24.6270 C.3    75  HIS75       0.0745
     27  CG         4.8360    2.8700   24.5600 C.ar   75  HIS75       0.0817
     28  ND1        6.0560    2.6480   23.9680 N.ar   75  HIS75      -0.2268
     29  CD2        4.8700    4.1340   25.0300 C.ar   75  HIS75       0.1154
     30  CE1        6.7900    3.7390   24.0560 C.ar   75  HIS75       0.1986
     31  NE2        6.0880    4.6600   24.6830 N.ar   75  HIS75      -0.2212
     32  N          2.3780    6.2220   23.7490 N.3    77  HIS77      -0.1241
     33  CA         2.9220    7.5690   23.7260 C.3    77  HIS77       0.1621
     34  C          2.9810    8.0520   22.3130 C.2    77  HIS77       0.2264
     35  O          3.0630    7.2560   21.3640 O.2    77  HIS77      -0.2867
     36  CB         4.3200    7.6090   24.3150 C.3    77  HIS77       0.0745
     37  CG         4.3280    7.6230   25.8130 C.ar   77  HIS77       0.0817
     38  ND1        5.4540    7.3240   26.5640 N.ar   77  HIS77      -0.2268
     39  CD2        3.3390    7.9030   26.7070 C.ar   77  HIS77       0.1154
     40  CE1        5.1670    7.4490   27.8510 C.ar   77  HIS77       0.1986
     41  NE2        3.8910    7.7950   27.9650 N.ar   77  HIS77      -0.2212
     42  N          5.3020    9.3280   20.4270 N.3    79  ASP79      -0.1239
     43  CA         6.3820    8.9480   19.4940 C.3    79  ASP79       0.1674
     44  C          6.1140    7.6270   18.8350 C.2    79  ASP79       0.2266
     45  O          6.5780    7.3890   17.7250 O.2    79  ASP79      -0.2867
     46  CB         7.7890    8.9510   20.1110 C.3    79  ASP79       0.1410
     47  CG         7.9220    8.0650   21.3350 C.2    79  ASP79       0.3668
     48  OD1        6.9650    7.9030   22.1380 O.co2  79  ASP79      -0.2456
     49  OD2        9.0530    7.5570   21.5120 O.co2  79  ASP79      -0.2456
     50  N          8.6040    1.0680   31.2000 N.3   138  HIS138     -0.1241
     51  CA         8.5700    2.4630   30.8100 C.3   138  HIS138      0.1621
     52  C          7.1090    2.9570   30.6930 C.2   138  HIS138      0.2264
     53  O          6.7860    4.0770   31.0860 O.2   138  HIS138     -0.2867
     54  CB         9.3320    2.6260   29.5020 C.3   138  HIS138      0.0745
     55  CG         8.9630    3.8590   28.7420 C.ar  138  HIS138      0.0817
     56  ND1        9.4350    5.1080   29.0740 N.ar  138  HIS138     -0.2268
     57  CD2        8.1460    4.0320   27.6800 C.ar  138  HIS138      0.1154
     58  CE1        8.9510    5.9950   28.2310 C.ar  138  HIS138      0.1986
     59  NE2        8.1620    5.3670   27.3760 N.ar  138  HIS138     -0.2212
     60  N         10.8450    1.7410   24.0280 N.3   157  CYS157     -0.1235
     61  CA        11.1900    2.7340   25.0540 C.3   157  CYS157      0.1677
     62  C         11.3640    2.1020   26.4610 C.2   157  CYS157      0.2270
     63  O         11.7890    2.7780   27.3830 O.2   157  CYS157     -0.2867
     64  CB        10.2010    3.8950   24.9790 C.3   157  CYS157      0.0956
     65  SG        10.1330    4.4950   23.2570 S.3   157  CYS157     -0.0801
     66  N         16.8450    1.4500   27.1500 N.3   160  LYS160     -0.1245
     67  CA        17.6340    2.6480   27.0400 C.3   160  LYS160      0.1561
     68  C         18.9050    2.3780   26.2650 C.2   160  LYS160      0.2260
     69  O         19.4540    1.2770   26.2840 O.2   160  LYS160     -0.2867
     70  CB        17.9810    3.1400   28.4270 C.3   160  LYS160      0.0271
     71  CG        16.7570    3.4880   29.2630 C.3   160  LYS160      0.0035
     72  CD        15.8840    4.5180   28.5590 C.3   160  LYS160      0.0206
     73  CE        14.7760    5.0200   29.4670 C.3   160  LYS160      0.1093
     74  NZ        13.9890    6.1270   28.8470 N.3   160  LYS160     -0.1314
     75  N         14.6140    8.9270   31.8890 N.3   168  GLY168     -0.1210
     76  CA        13.7750    9.7670   31.0440 C.3   168  GLY168      0.1956
     77  C         12.4970   10.1310   31.7850 C.2   168  GLY168      0.2611
     78  O         12.5220   10.3050   33.0040 O.2   168  GLY168     -0.2717
     79  N         11.3650   10.2230   31.0740 N.am  169  ASN169     -0.1974
     80  CA        10.0710   10.4560   31.7360 C.3   169  ASN169      0.1688
     81  C          9.4610    9.1930   32.3590 C.2   169  ASN169      0.2292
     82  O          9.1320    8.2280   31.6660 O.2   169  ASN169     -0.2864
     83  CB         9.0510   11.0980   30.8020 C.3   169  ASN169      0.1181
     84  CG         7.8980   11.7360   31.5680 C.2   169  ASN169      0.2629
     85  OD1        8.0160   12.8570   32.0830 O.2   169  ASN169     -0.2716
     86  ND2        6.7780   11.0230   31.6520 N.am  169  ASN169     -0.0877
     87  N         14.9460    5.1190   21.8440 N.3   199  HIS199     -0.1241
     88  CA        15.6250    6.3860   21.6730 C.3   199  HIS199      0.1621
     89  C         17.1240    6.1170   21.7960 C.2   199  HIS199      0.2264
     90  O         17.5760    5.5960   22.8300 O.2   199  HIS199     -0.2867
     91  CB        15.1840    7.3740   22.7560 C.3   199  HIS199      0.0745
     92  CG        13.7320    7.7030   22.6940 C.ar  199  HIS199      0.0817
     93  ND1       13.2200    8.6330   21.8180 N.ar  199  HIS199     -0.2268
     94  CD2       12.6750    7.1940   23.3700 C.ar  199  HIS199      0.1154
     95  CE1       11.9070    8.6920   21.9670 C.ar  199  HIS199      0.1986
     96  NE2       11.5510    7.8230   22.8990 N.ar  199  HIS199     -0.2212
@<TRIPOS>BOND
     1     8     9    1
     2    10     9    1
     3    10    11    2
     4     9    12    1
     5    12    13    1
     6    14    13   ar
     7    14    16   ar
     8    13    15   ar
     9    16    17   ar
    10    45    44    2
    11     4     3    2
    12    15    17   ar
    13    15    18   ar
    14    44    43    1
    15    17    19   ar
    16     3     2    1
    17    43    46    1
    18    43    42    1
    19     1     2    1
    20    18    20   ar
    21    46    47    1
    22    19    21   ar
    23     2     5    1
    24    20    21   ar
    25    47    49   ar
    26    47    48   ar
    27    35    34    2
    28     5     6    1
    29     5     7    1
    30    88    89    1
    31    88    87    1
    32    88    91    1
    33    25    24    2
    34    89    90    2
    35    93    95   ar
    36    93    92   ar
    37    95    96   ar
    38    22    23    1
    39    34    33    1
    40    92    91    1
    41    92    94   ar
    42    24    23    1
    43    96    94   ar
    44    65    64    1
    45    23    26    1
    46    33    32    1
    47    33    36    1
    48    28    30   ar
    49    28    27   ar
    50    60    61    1
    51    30    31   ar
    52    36    37    1
    53    27    26    1
    54    27    29   ar
    55    31    29   ar
    56    64    61    1
    57    61    62    1
    58    37    38   ar
    59    37    39   ar
    60    68    69    2
    61    68    67    1
    62    62    63    2
    63    38    40   ar
    64    39    41   ar
    65    67    66    1
    66    67    70    1
    67    59    57   ar
    68    59    58   ar
    69    57    55   ar
    70    40    41   ar
    71    58    56   ar
    72    70    71    1
    73    72    71    1
    74    72    73    1
    75    55    56   ar
    76    55    54    1
    77    74    73    1
    78    54    51    1
    79    52    51    1
    80    52    53    2
    81    83    84    1
    82    83    80    1
    83    51    50    1
    84    76    77    1
    85    76    75    1
    86    79    80    1
    87    79    77   am
    88    84    86   am
    89    84    85    2
    90    82    81    2
    91    80    81    1
    92    77    78    2
