@<TRIPOS>MOLECULE
tmp/4nq8B00.pdb
 111 102 0 0 0
SMALL
GASTEIGER

@<TRIPOS>ATOM
      1  N         -0.0170   51.0290    2.1140 N.3     9  ALA9       -0.1231
      2  CA        -1.0460   50.0550    2.4370 C.3     9  ALA9        0.1694
      3  C         -0.5620   48.6240    2.6660 C.2     9  ALA9        0.2591
      4  O         -1.2200   47.8550    3.4060 O.2     9  ALA9       -0.2718
      5  CB        -2.0920   50.0360    1.3200 C.3     9  ALA9        0.0304
      6  N          0.5510   48.2690    2.0320 N.am   10  LEU10      -0.1980
      7  CA         0.9460   46.8860    1.8600 C.3    10  LEU10       0.1596
      8  C          2.2140   46.5700    2.6340 C.2    10  LEU10       0.2287
      9  O          2.7110   47.4190    3.3840 O.2    10  LEU10      -0.2864
     10  CB         1.1600   46.6350    0.3580 C.3    10  LEU10       0.0297
     11  CG        -0.0690   46.8870   -0.5090 C.3    10  LEU10       0.0022
     12  CD1        0.2350   46.5440   -1.9730 C.3    10  LEU10       0.0001
     13  CD2       -1.2430   46.0930   -0.0070 C.3    10  LEU10       0.0001
     14  N          5.2140   48.6900   -2.8830 N.3    16  TYR16      -0.1241
     15  CA         5.2010   49.9120   -2.0790 C.3    16  TYR16       0.1605
     16  C          6.3840   49.9230   -1.1340 C.2    16  TYR16       0.2264
     17  O          6.9940   50.9690   -0.9160 O.2    16  TYR16      -0.2867
     18  CB         3.8910   50.0390   -1.3080 C.3    16  TYR16       0.0534
     19  CG         2.7400   50.4630   -2.2050 C.ar   16  TYR16      -0.0201
     20  CD1        2.9410   50.6990   -3.5940 C.ar   16  TYR16      -0.0009
     21  CD2        1.4840   50.6580   -1.7010 C.ar   16  TYR16      -0.0009
     22  CE1        1.8960   51.0680   -4.4080 C.ar   16  TYR16       0.0417
     23  CE2        0.4420   51.0410   -2.5180 C.ar   16  TYR16       0.0417
     24  CZ         0.6410   51.2400   -3.8520 C.ar   16  TYR16       0.1957
     25  OH        -0.4280   51.6140   -4.6250 O.3    16  TYR16      -0.2866
     26  N         -6.3540   54.3780    2.4720 N.3    48  GLU48      -0.1245
     27  CA        -5.6500   55.4000    1.6690 C.3    48  GLU48       0.1567
     28  C         -6.2940   56.7880    1.7400 C.2    48  GLU48       0.2260
     29  O         -5.6030   57.7990    1.7830 O.2    48  GLU48      -0.2867
     30  CB        -5.5110   54.9270    0.2220 C.3    48  GLU48       0.0388
     31  CG        -4.5650   53.7300    0.0730 C.3    48  GLU48       0.1160
     32  CD        -4.2310   53.3850   -1.3610 C.2    48  GLU48       0.3649
     33  OE1       -5.1130   53.5310   -2.2430 O.co2  48  GLU48      -0.2457
     34  OE2       -3.0790   52.9280   -1.5980 O.co2  48  GLU48      -0.2457
     35  N         -2.3640   54.1680   -4.2550 N.3    66  SER66      -0.1217
     36  CA        -2.9500   53.8600   -5.5730 C.3    66  SER66       0.1889
     37  C         -3.8270   55.0520   -5.9810 C.2    66  SER66       0.2288
     38  O         -3.9370   56.0280   -5.2460 O.2    66  SER66      -0.2866
     39  CB        -3.8010   52.5920   -5.4900 C.3    66  SER66       0.2089
     40  OG        -5.0270   52.8590   -4.8100 O.3    66  SER66      -0.2183
     41  N         -6.8890   54.5600   -6.1580 N.3    68  GLY68      -0.1225
     42  CA        -8.1700   54.1100   -5.6470 C.3    68  GLY68       0.1811
     43  C         -8.9630   55.1890   -4.9420 C.2    68  GLY68       0.2280
     44  O        -10.1730   55.2220   -5.0720 O.2    68  GLY68      -0.2866
     45  N          1.6480   50.1440   -9.9620 N.3   121  GLN121     -0.1245
     46  CA         1.3120   48.8230   -9.4430 C.3   121  GLN121      0.1566
     47  C          1.2420   47.7820  -10.5530 C.2   121  GLN121      0.2260
     48  O          1.4470   46.6070  -10.2960 O.2   121  GLN121     -0.2867
     49  CB        -0.0570   48.8190   -8.7740 C.3   121  GLN121      0.0367
     50  CG        -0.2380   49.7970   -7.6490 C.3   121  GLN121      0.0905
     51  CD        -1.2530   49.3200   -6.6490 C.2   121  GLN121      0.2608
     52  OE1       -0.9250   48.5940   -5.7180 O.2   121  GLN121     -0.2717
     53  NE2       -2.4950   49.7510   -6.8140 N.am  121  GLN121     -0.0878
     54  N         -4.4350   45.7940  -13.5290 N.3   124  ARG124     -0.1245
     55  CA        -5.3620   45.1500  -12.5970 C.3   124  ARG124      0.1563
     56  C         -6.0920   43.9810  -13.2620 C.2   124  ARG124      0.2260
     57  O         -6.4020   44.0260  -14.4410 O.2   124  ARG124     -0.2867
     58  CB        -6.3800   46.1750  -12.0700 C.3   124  ARG124      0.0307
     59  CG        -5.6950   47.3960  -11.4390 C.3   124  ARG124      0.0489
     60  CD        -6.6810   48.4590  -10.9470 C.3   124  ARG124      0.2205
     61  NE        -7.3420   48.0480   -9.7030 N.pl3 124  ARG124     -0.0865
     62  CZ        -6.9300   48.3450   -8.4700 C.cat 124  ARG124      0.5346
     63  NH1       -5.8580   49.1040   -8.2410 N.pl3 124  ARG124      0.1354
     64  NH2       -7.6180   47.9070   -7.4370 N.pl3 124  ARG124      0.1354
     65  N        -15.7930   43.7960   -5.2770 N.3   145  ARG145     -0.1245
     66  CA       -15.2920   45.0220   -4.6630 C.3   145  ARG145      0.1563
     67  C        -14.4350   45.8430   -5.6390 C.2   145  ARG145      0.2260
     68  O        -13.5780   45.2870   -6.3520 O.2   145  ARG145     -0.2867
     69  CB       -14.4720   44.6970   -3.4200 C.3   145  ARG145      0.0307
     70  CG       -13.8240   45.9240   -2.7550 C.3   145  ARG145      0.0489
     71  CD       -12.4240   46.1570   -3.2940 C.3   145  ARG145      0.2205
     72  NE       -11.7730   47.2790   -2.6330 N.pl3 145  ARG145     -0.0865
     73  CZ       -10.5400   47.6740   -2.9190 C.cat 145  ARG145      0.5346
     74  NH1       -9.8300   47.0320   -3.8490 N.pl3 145  ARG145      0.1354
     75  NH2      -10.0190   48.6910   -2.2530 N.pl3 145  ARG145      0.1354
     76  N        -12.2200   49.7840   -5.7820 N.3   147  THR147     -0.1218
     77  CA       -11.7580   50.9380   -5.0490 C.3   147  THR147      0.1862
     78  C        -12.8330   52.0330   -5.1100 C.2   147  THR147      0.2287
     79  O        -13.9340   51.8310   -5.6670 O.2   147  THR147     -0.2866
     80  CB       -10.4540   51.4810   -5.5980 C.3   147  THR147      0.1770
     81  OG1      -10.6870   52.0300   -6.8890 O.3   147  THR147     -0.2211
     82  CG2       -9.3800   50.4010   -5.6560 C.3   147  THR147      0.0375
     83  N         -9.5380   49.6370    1.3120 N.3   168  TRP168     -0.1241
     84  CA        -8.7310   48.4270    1.3550 C.3   168  TRP168      0.1605
     85  C         -8.7960   47.6520    2.6800 C.2   168  TRP168      0.2264
     86  O         -8.8990   46.4240    2.6600 O.2   168  TRP168     -0.2867
     87  CB        -7.2890   48.7670    0.9540 C.3   168  TRP168      0.0550
     88  CG        -6.3830   47.6070    0.9870 C.ar  168  TRP168      0.0003
     89  CD1       -5.3600   47.4030    1.8530 C.ar  168  TRP168      0.0946
     90  CD2       -6.4170   46.4750    0.1240 C.ar  168  TRP168      0.0152
     91  NE1       -4.7370   46.2110    1.5720 N.ar  168  TRP168     -0.2442
     92  CE2       -5.3720   45.6240    0.5130 C.ar  168  TRP168      0.0810
     93  CE3       -7.2140   46.1100   -0.9610 C.ar  168  TRP168      0.0012
     94  CZ2       -5.1160   44.4200   -0.1400 C.ar  168  TRP168      0.0191
     95  CZ3       -6.9700   44.9070   -1.5910 C.ar  168  TRP168      0.0001
     96  CH2       -5.9190   44.0910   -1.1910 C.ar  168  TRP168      0.0015
     97  N         -7.1770   43.6040   -8.8250 N.3   185  ASN185     -0.1240
     98  CA        -5.9020   44.2220   -8.4790 C.3   185  ASN185      0.1653
     99  C         -4.7850   43.6040   -9.3470 C.2   185  ASN185      0.2266
    100  O         -4.9780   42.5360   -9.9470 O.2   185  ASN185     -0.2867
    101  CB        -5.5890   44.0360   -6.9590 C.3   185  ASN185      0.1155
    102  CG        -5.8050   45.3190   -6.1250 C.2   185  ASN185      0.2627
    103  OD1       -5.1600   46.3390   -6.3530 O.2   185  ASN185     -0.2716
    104  ND2       -6.6660   45.2350   -5.1070 N.am  185  ASN185     -0.0877
    105  N         -0.1450   43.0900   -6.1870 N.3   189  VAL189     -0.1245
    106  CA        -0.9830   43.0750   -4.9890 C.3   189  VAL189      0.1561
    107  C         -1.5220   41.6700   -4.6670 C.2   189  VAL189      0.2260
    108  O         -1.5490   41.2350   -3.5070 O.2   189  VAL189     -0.2867
    109  CB        -2.1840   44.0410   -5.1510 C.3   189  VAL189      0.0252
    110  CG1       -3.1880   43.8800   -4.0080 C.3   189  VAL189      0.0019
    111  CG2       -1.7280   45.4910   -5.2900 C.3   189  VAL189      0.0019
@<TRIPOS>BOND
     1    57    56    2
     2    54    55    1
     3    56    55    1
     4    55    58    1
     5    58    59    1
     6    59    60    1
     7    60    61    1
     8    47    48    2
     9    47    46    1
    10    45    46    1
    11   100    99    2
    12    61    62    2
    13    46    49    1
    14    99    98    1
    15    97    98    1
    16    49    50    1
    17    98   101    1
    18    62    63    1
    19    62    64    1
    20    50    51    1
    21   101   102    1
    22    81    80    1
    23    53    51   am
    24    51    52    2
    25   103   102    2
    26    68    67    2
    27   105   106    1
    28    41    42    1
    29   102   104   am
    30    37    36    1
    31    37    38    2
    32    76    77    1
    33    79    78    2
    34    82    80    1
    35    42    43    1
    36    67    66    1
    37    80    77    1
    38    36    39    1
    39    36    35    1
    40    39    40    1
    41   111   109    1
    42    65    66    1
    43   109   106    1
    44   109   110    1
    45    78    77    1
    46    44    43    2
    47   106   107    1
    48   107   108    2
    49    66    69    1
    50    25    24    1
    51    22    24   ar
    52    22    20   ar
    53    24    23   ar
    54    74    73    1
    55    20    19   ar
    56    69    70    1
    57    71    70    1
    58    71    72    1
    59    73    72    2
    60    73    75    1
    61    14    15    1
    62    23    21   ar
    63    33    32   ar
    64    19    21   ar
    65    19    18    1
    66    15    18    1
    67    15    16    1
    68    12    11    1
    69    34    32   ar
    70    95    96   ar
    71    95    93   ar
    72    32    31    1
    73    96    94   ar
    74    16    17    2
    75    93    90   ar
    76    11    13    1
    77    11    10    1
    78    94    92   ar
    79    31    30    1
    80    90    92   ar
    81    90    88   ar
    82    30    27    1
    83    10     7    1
    84    92    91   ar
    85    87    88    1
    86    87    84    1
    87    88    89   ar
    88    83    84    1
    89     5     2    1
    90    84    85    1
    91    91    89   ar
    92    27    28    1
    93    27    26    1
    94    28    29    2
    95     7     6    1
    96     7     8    1
    97     6     3   am
    98     1     2    1
    99     2     3    1
   100     8     9    2
   101    86    85    2
   102     3     4    2
