@<TRIPOS>MOLECULE
tmp/4nqaG00.pdb
 189 179 0 0 0
SMALL
GASTEIGER

@<TRIPOS>ATOM
      1  N         -7.3120   53.8180  -63.6250 N.3   126  VAL126     -0.1245
      2  CA        -7.1220   52.3820  -63.4460 C.3   126  VAL126      0.1561
      3  C         -6.5370   51.7430  -64.7010 C.2   126  VAL126      0.2260
      4  O         -5.6360   50.9090  -64.6200 O.2   126  VAL126     -0.2867
      5  CB        -8.4520   51.6800  -63.0960 C.3   126  VAL126      0.0252
      6  CG1       -8.2570   50.1740  -63.0010 C.3   126  VAL126      0.0019
      7  CG2       -9.0190   52.2330  -61.7980 C.3   126  VAL126      0.0019
      8  N         -2.9530   52.4730  -64.8380 N.3   129  ILE129     -0.1231
      9  CA        -2.2350   51.6580  -63.8630 C.3   129  ILE129      0.1692
     10  C         -2.0100   50.2400  -64.3870 C.2   129  ILE129      0.2592
     11  O         -0.9140   49.6910  -64.2710 O.2   129  ILE129     -0.2718
     12  CB        -2.9820   51.6000  -62.5140 C.3   129  ILE129      0.0266
     13  CG1       -3.1600   53.0080  -61.9440 C.3   129  ILE129      0.0019
     14  CG2       -2.2350   50.7190  -61.5240 C.3   129  ILE129      0.0020
     15  CD1       -3.8730   53.0440  -60.6100 C.3   129  ILE129      0.0001
     16  N         -3.0540   49.6560  -64.9690 N.am  130  CYS130     -0.1970
     17  CA        -2.9650   48.3240  -65.5570 C.3   130  CYS130      0.1712
     18  C         -1.9900   48.3180  -66.7280 C.2   130  CYS130      0.2296
     19  O         -1.2590   47.3490  -66.9390 O.2   130  CYS130     -0.2864
     20  CB        -4.3430   47.8510  -66.0250 C.3   130  CYS130      0.0983
     21  SG        -5.5530   47.6320  -64.7010 S.3   130  CYS130     -0.0798
     22  N          0.6020   50.3220  -67.0650 N.3   132  ALA132     -0.1231
     23  CA         1.9340   50.4080  -66.4810 C.3   132  ALA132      0.1694
     24  C          2.3720   49.0570  -65.9240 C.2   132  ALA132      0.2591
     25  O          3.5410   48.6770  -66.0300 O.2   132  ALA132     -0.2718
     26  CB         1.9650   51.4690  -65.3950 C.3   132  ALA132      0.0304
     27  N          1.4220   48.3360  -65.3330 N.am  133  ALA133     -0.1980
     28  CA         1.6860   47.0060  -64.7980 C.3   133  ALA133      0.1597
     29  C          2.1220   46.0580  -65.9080 C.2   133  ALA133      0.2287
     30  O          3.1890   45.4450  -65.8280 O.2   133  ALA133     -0.2864
     31  CB         0.4540   46.4650  -64.0890 C.3   133  ALA133      0.0319
     32  N          5.4810   46.8690  -67.2500 N.3   136  GLN136     -0.1245
     33  CA         6.5930   46.5480  -66.3630 C.3   136  GLN136      0.1566
     34  C          6.6680   45.0830  -65.9420 C.2   136  GLN136      0.2260
     35  O          7.5230   44.7150  -65.1410 O.2   136  GLN136     -0.2867
     36  CB         6.5850   47.4610  -65.1380 C.3   136  GLN136      0.0367
     37  CG         7.0070   48.8820  -65.4510 C.3   136  GLN136      0.0905
     38  CD         8.4860   49.0030  -65.7530 C.2   136  GLN136      0.2608
     39  OE1        8.8830   49.2030  -66.9010 O.2   136  GLN136     -0.2717
     40  NE2        9.3120   48.8870  -64.7190 N.am  136  GLN136     -0.0878
     41  N          4.3960   38.8860  -58.4620 N.3   166  TRP166     -0.1227
     42  CA         4.4550   40.0020  -59.4130 C.3   166  TRP166      0.1737
     43  C          3.7600   41.2710  -58.9180 C.2   166  TRP166      0.2595
     44  O          4.2840   42.3770  -59.0780 O.2   166  TRP166     -0.2718
     45  CB         3.8840   39.5940  -60.7760 C.3   166  TRP166      0.0564
     46  CG         2.4060   39.3470  -60.7700 C.ar  166  TRP166      0.0003
     47  CD1        1.7700   38.1850  -60.4480 C.ar  166  TRP166      0.0946
     48  CD2        1.3780   40.2880  -61.1020 C.ar  166  TRP166      0.0152
     49  NE1        0.4100   38.3420  -60.5600 N.ar  166  TRP166     -0.2442
     50  CE2        0.1440   39.6250  -60.9590 C.ar  166  TRP166      0.0810
     51  CE3        1.3830   41.6270  -61.5050 C.ar  166  TRP166      0.0012
     52  CZ2       -1.0740   40.2550  -61.2060 C.ar  166  TRP166      0.0191
     53  CZ3        0.1730   42.2500  -61.7490 C.ar  166  TRP166      0.0001
     54  CH2       -1.0390   41.5640  -61.5980 C.ar  166  TRP166      0.0015
     55  N          2.5890   41.1050  -58.3120 N.am  167  ASN167     -0.1974
     56  CA         1.8180   42.2390  -57.8160 C.3   167  ASN167      0.1688
     57  C          2.5500   43.0070  -56.7190 C.2   167  ASN167      0.2292
     58  O          2.6910   44.2250  -56.7990 O.2   167  ASN167     -0.2864
     59  CB         0.4320   41.7930  -57.3390 C.3   167  ASN167      0.1181
     60  CG         0.4900   40.6060  -56.3960 C.2   167  ASN167      0.2629
     61  OD1        1.3080   39.7010  -56.5670 O.2   167  ASN167     -0.2716
     62  ND2       -0.3810   40.6030  -55.3940 N.am  167  ASN167     -0.0877
     63  N          5.7630   44.7480  -58.2310 N.3   170  LEU170     -0.1231
     64  CA         5.4400   45.9770  -58.9500 C.3   170  LEU170      0.1693
     65  C          4.9970   47.0800  -57.9960 C.2   170  LEU170      0.2591
     66  O          5.3900   48.2400  -58.1490 O.2   170  LEU170     -0.2718
     67  CB         4.3580   45.7240  -60.0020 C.3   170  LEU170      0.0284
     68  CG         4.7760   44.8980  -61.2190 C.3   170  LEU170      0.0019
     69  CD1        3.6600   44.8620  -62.2520 C.3   170  LEU170      0.0001
     70  CD2        6.0570   45.4500  -61.8250 C.3   170  LEU170      0.0001
     71  N          4.1860   46.7090  -57.0090 N.am  171  ILE171     -0.1980
     72  CA         3.6940   47.6670  -56.0240 C.3   171  ILE171      0.1595
     73  C          4.8330   48.3290  -55.2530 C.2   171  ILE171      0.2287
     74  O          4.9000   49.5560  -55.1690 O.2   171  ILE171     -0.2864
     75  CB         2.6740   47.0340  -55.0530 C.3   171  ILE171      0.0276
     76  CG1        1.3390   46.8080  -55.7640 C.3   171  ILE171      0.0022
     77  CG2        2.4510   47.9340  -53.8550 C.3   171  ILE171      0.0022
     78  CD1        0.3070   46.1020  -54.9130 C.3   171  ILE171      0.0001
     79  N          6.9860   50.6660  -57.8080 N.3   174  PHE174     -0.1241
     80  CA         6.4470   51.9920  -58.0920 C.3   174  PHE174      0.1605
     81  C          6.2510   52.7970  -56.8100 C.2   174  PHE174      0.2264
     82  O          6.1320   54.0190  -56.8520 O.2   174  PHE174     -0.2867
     83  CB         5.1610   51.9220  -58.9360 C.3   174  PHE174      0.0534
     84  CG         3.8920   51.8130  -58.1310 C.ar  174  PHE174     -0.0203
     85  CD1        3.2380   52.9480  -57.6760 C.ar  174  PHE174     -0.0042
     86  CD2        3.3320   50.5780  -57.8630 C.ar  174  PHE174     -0.0042
     87  CE1        2.0730   52.8470  -56.9440 C.ar  174  PHE174     -0.0003
     88  CE2        2.1590   50.4760  -57.1360 C.ar  174  PHE174     -0.0003
     89  CZ         1.5320   51.6100  -56.6770 C.ar  174  PHE174     -0.0000
     90  N          9.6310   54.2320  -56.4530 N.3   177  ARG177     -0.1245
     91  CA         9.8560   55.1890  -57.5320 C.3   177  ARG177      0.1563
     92  C          9.0700   56.4770  -57.2970 C.2   177  ARG177      0.2260
     93  O          9.4590   57.5490  -57.7610 O.2   177  ARG177     -0.2867
     94  CB         9.4790   54.5850  -58.8850 C.3   177  ARG177      0.0307
     95  CG        10.1280   55.2880  -60.0680 C.3   177  ARG177      0.0489
     96  CD         9.4760   54.9060  -61.3880 C.3   177  ARG177      0.2205
     97  NE         9.2910   53.4650  -61.5250 N.pl3 177  ARG177     -0.0865
     98  CZ         8.1080   52.8590  -61.4970 C.cat 177  ARG177      0.5346
     99  NH1        7.0010   53.5730  -61.3400 N.pl3 177  ARG177      0.1354
    100  NH2        8.0310   51.5430  -61.6280 N.pl3 177  ARG177      0.1354
    101  N          1.3470   58.8720  -57.1730 N.3   185  ILE185     -0.1245
    102  CA         2.2700   57.8520  -57.6580 C.3   185  ILE185      0.1561
    103  C          2.7270   58.1220  -59.0910 C.2   185  ILE185      0.2260
    104  O          2.0160   58.7580  -59.8740 O.2   185  ILE185     -0.2867
    105  CB         1.6460   56.4420  -57.5820 C.3   185  ILE185      0.0252
    106  CG1        0.4620   56.3290  -58.5450 C.3   185  ILE185      0.0019
    107  CG2        1.2130   56.1290  -56.1570 C.3   185  ILE185      0.0019
    108  CD1       -0.1250   54.9390  -58.6440 C.3   185  ILE185      0.0001
    109  N          3.6450   56.4130  -62.5900 N.3   187  LEU187     -0.1231
    110  CA         3.6050   55.2430  -63.4550 C.3   187  LEU187      0.1693
    111  C          4.8360   55.2290  -64.3530 C.2   187  LEU187      0.2591
    112  O          5.4310   56.2740  -64.6170 O.2   187  LEU187     -0.2718
    113  CB         2.3330   55.2430  -64.3020 C.3   187  LEU187      0.0284
    114  CG         1.0130   55.4300  -63.5510 C.3   187  LEU187      0.0019
    115  CD1       -0.1680   55.2770  -64.4970 C.3   187  LEU187      0.0001
    116  CD2        0.9040   54.4560  -62.3890 C.3   187  LEU187      0.0001
    117  N          5.2180   54.0450  -64.8190 N.am  188  ALA188     -0.1980
    118  CA         6.3500   53.9180  -65.7290 C.3   188  ALA188      0.1597
    119  C          5.9880   54.4600  -67.1050 C.2   188  ALA188      0.2287
    120  O          6.8640   54.7850  -67.9070 O.2   188  ALA188     -0.2864
    121  CB         6.7900   52.4710  -65.8320 C.3   188  ALA188      0.0319
    122  N        -11.3160   53.5100  -56.1190 N.3   203  VAL203     -0.1245
    123  CA       -10.2620   52.6540  -55.5840 C.3   203  VAL203      0.1561
    124  C         -9.4160   53.3790  -54.5410 C.2   203  VAL203      0.2260
    125  O         -8.4080   52.8520  -54.0740 O.2   203  VAL203     -0.2867
    126  CB        -9.3440   52.1240  -56.7010 C.3   203  VAL203      0.0252
    127  CG1      -10.1280   51.2380  -57.6570 C.3   203  VAL203      0.0019
    128  CG2       -8.6940   53.2800  -57.4460 C.3   203  VAL203      0.0019
    129  N         -7.5980   51.6370  -51.0080 N.3   206  ILE206     -0.1231
    130  CA        -6.3820   50.8410  -51.1270 C.3   206  ILE206      0.1692
    131  C         -5.2170   51.6880  -51.6300 C.2   206  ILE206      0.2592
    132  O         -4.0570   51.4100  -51.3210 O.2   206  ILE206     -0.2718
    133  CB        -6.5860   49.6160  -52.0450 C.3   206  ILE206      0.0266
    134  CG1       -7.1010   50.0480  -53.4190 C.3   206  ILE206      0.0019
    135  CG2       -7.5490   48.6290  -51.4060 C.3   206  ILE206      0.0020
    136  CD1       -7.4140   48.8920  -54.3410 C.3   206  ILE206      0.0001
    137  N         -5.5350   52.7260  -52.3980 N.am  207  PHE207     -0.1976
    138  CA        -4.5290   53.6690  -52.8670 C.3   207  PHE207      0.1639
    139  C         -3.9260   54.4010  -51.6760 C.2   207  PHE207      0.2290
    140  O         -2.7100   54.5620  -51.5840 O.2   207  PHE207     -0.2864
    141  CB        -5.1470   54.6730  -53.8410 C.3   207  PHE207      0.0560
    142  CG        -4.1380   55.5390  -54.5420 C.ar  207  PHE207     -0.0200
    143  CD1       -3.5990   55.1480  -55.7560 C.ar  207  PHE207     -0.0042
    144  CD2       -3.7280   56.7410  -53.9880 C.ar  207  PHE207     -0.0042
    145  CE1       -2.6710   55.9390  -56.4040 C.ar  207  PHE207     -0.0003
    146  CE2       -2.7980   57.5350  -54.6320 C.ar  207  PHE207     -0.0003
    147  CZ        -2.2700   57.1340  -55.8410 C.ar  207  PHE207     -0.0000
    148  N         -1.6260   52.0930  -49.8710 N.3   210  VAL210     -0.1245
    149  CA        -0.3260   52.0570  -50.5350 C.3   210  VAL210      0.1561
    150  C          0.4820   53.3040  -50.1880 C.2   210  VAL210      0.2260
    151  O          1.6890   53.2370  -49.9520 O.2   210  VAL210     -0.2867
    152  CB        -0.4810   51.9670  -52.0700 C.3   210  VAL210      0.0252
    153  CG1        0.8670   52.1180  -52.7620 C.3   210  VAL210      0.0019
    154  CG2       -1.1380   50.6560  -52.4650 C.3   210  VAL210      0.0019
    155  N         -5.4050   44.0090  -53.9090 N.3   293  CYS293     -0.1235
    156  CA        -5.2920   44.5170  -55.2700 C.3   293  CYS293      0.1677
    157  C         -5.7920   43.5040  -56.2950 C.2   293  CYS293      0.2270
    158  O         -6.3790   43.8780  -57.3090 O.2   293  CYS293     -0.2867
    159  CB        -3.8480   44.9180  -55.5790 C.3   293  CYS293      0.0956
    160  SG        -3.3390   46.4910  -54.8450 S.3   293  CYS293     -0.0801
    161  N         -9.6150   43.5470  -56.7930 N.3   296  HIS296     -0.1226
    162  CA       -10.0600   44.5830  -57.7160 C.3   296  HIS296      0.1752
    163  C         -9.7450   44.1910  -59.1560 C.2   296  HIS296      0.2595
    164  O        -10.5560   44.4050  -60.0570 O.2   296  HIS296     -0.2718
    165  CB        -9.4040   45.9240  -57.3810 C.3   296  HIS296      0.0759
    166  CG        -9.8110   46.4820  -56.0530 C.ar  296  HIS296      0.0818
    167  ND1       -9.5350   45.8470  -54.8620 N.ar  296  HIS296     -0.2268
    168  CD2      -10.4740   47.6180  -55.7290 C.ar  296  HIS296      0.1154
    169  CE1      -10.0100   46.5660  -53.8610 C.ar  296  HIS296      0.1986
    170  NE2      -10.5840   47.6460  -54.3600 N.ar  296  HIS296     -0.2212
    171  N         -8.5640   43.6170  -59.3650 N.am  297  LEU297     -0.1980
    172  CA        -8.1520   43.1820  -60.6950 C.3   297  LEU297      0.1596
    173  C         -9.0150   42.0270  -61.1920 C.2   297  LEU297      0.2287
    174  O         -9.3980   41.9930  -62.3590 O.2   297  LEU297     -0.2864
    175  CB        -6.6730   42.7890  -60.7090 C.3   297  LEU297      0.0297
    176  CG        -5.6720   43.9150  -60.4420 C.3   297  LEU297      0.0022
    177  CD1       -4.2440   43.4210  -60.6180 C.3   297  LEU297      0.0001
    178  CD2       -5.9460   45.1120  -61.3410 C.3   297  LEU297      0.0001
    179  N        -12.3800   43.7100  -62.0820 N.3   300  PHE300     -0.1241
    180  CA       -12.3220   44.4220  -63.3550 C.3   300  PHE300      0.1605
    181  C        -12.1180   43.4670  -64.5290 C.2   300  PHE300      0.2264
    182  O        -12.4630   43.7850  -65.6670 O.2   300  PHE300     -0.2867
    183  CB       -11.2030   45.4660  -63.3290 C.3   300  PHE300      0.0534
    184  CG       -11.4160   46.5590  -62.3190 C.ar  300  PHE300     -0.0203
    185  CD1      -12.6920   47.0090  -62.0220 C.ar  300  PHE300     -0.0042
    186  CD2      -10.3390   47.1360  -61.6650 C.ar  300  PHE300     -0.0042
    187  CE1      -12.8900   48.0140  -61.0940 C.ar  300  PHE300     -0.0003
    188  CE2      -10.5300   48.1410  -60.7350 C.ar  300  PHE300     -0.0003
    189  CZ       -11.8070   48.5800  -60.4490 C.ar  300  PHE300     -0.0000
@<TRIPOS>BOND
     1   120   119    2
     2    32    33    1
     3   119   118    1
     4    22    23    1
     5    19    18    2
     6    39    38    2
     7    18    17    1
     8    23    24    1
     9    23    26    1
    10    33    34    1
    11    33    36    1
    12    25    24    2
    13    20    17    1
    14    20    21    1
    15    34    35    2
    16    24    27   am
    17    29    30    2
    18    29    28    1
    19   121   118    1
    20    38    37    1
    21    38    40   am
    22   118   117    1
    23   182   181    2
    24    17    16    1
    25    37    36    1
    26    27    28    1
    27    16    10   am
    28     8     9    1
    29   117   111   am
    30    28    31    1
    31     3     4    2
    32     3     2    1
    33   112   111    2
    34   181   180    1
    35   115   114    1
    36    10    11    2
    37    10     9    1
    38   111   110    1
    39   113   114    1
    40   113   110    1
    41     9    12    1
    42     1     2    1
    43   114   116    1
    44   110   109    1
    45     2     5    1
    46   180   183    1
    47   180   179    1
    48   183   184    1
    49     5     6    1
    50     5     7    1
    51    12    13    1
    52    12    14    1
    53   174   173    2
    54   184   185   ar
    55   184   186   ar
    56    69    68    1
    57   185   187   ar
    58    13    15    1
    59    70    68    1
    60    53    54   ar
    61    53    51   ar
    62   186   188   ar
    63   100    98    1
    64    54    52   ar
    65    97    98    2
    66    97    96    1
    67    51    48   ar
    68    98    99    1
    69    96    95    1
    70   178   176    1
    71    68    67    1
    72    52    50   ar
    73   173   172    1
    74    48    50   ar
    75    48    46   ar
    76   187   189   ar
    77    50    49   ar
    78    45    46    1
    79    45    42    1
    80    46    47   ar
    81   188   189   ar
    82   175   172    1
    83   175   176    1
    84   172   171    1
    85   177   176    1
    86    49    47   ar
    87    95    94    1
    88   164   163    2
    89    67    64    1
    90   104   103    2
    91    42    43    1
    92    42    41    1
    93   171   163   am
    94   163   162    1
    95   103   102    1
    96    44    43    2
    97    64    63    1
    98    64    65    1
    99    83    84    1
   100    83    80    1
   101    43    55   am
   102    94    91    1
   103   108   106    1
   104   106   105    1
   105    55    56    1
   106    66    65    2
   107    84    86   ar
   108    84    85   ar
   109    80    79    1
   110    80    81    1
   111    65    71   am
   112    86    88   ar
   113    56    59    1
   114    56    57    1
   115    93    92    2
   116   162   165    1
   117   162   161    1
   118    85    87   ar
   119   102   105    1
   120   102   101    1
   121   127   126    1
   122   105   107    1
   123    91    92    1
   124    91    90    1
   125   128   126    1
   126   165   166    1
   127    59    60    1
   128   158   157    2
   129    88    89   ar
   130    71    72    1
   131    87    89   ar
   132    82    81    2
   133    58    57    2
   134   126   123    1
   135    61    60    2
   136   145   147   ar
   137   145   143   ar
   138    60    62   am
   139   157   156    1
   140   122   123    1
   141   166   168   ar
   142   166   167   ar
   143    72    73    1
   144    72    75    1
   145   147   146   ar
   146    76    75    1
   147    76    78    1
   148   143   142   ar
   149   168   170   ar
   150   123   124    1
   151   159   156    1
   152   159   160    1
   153   156   155    1
   154    73    74    2
   155    75    77    1
   156   167   169   ar
   157   146   144   ar
   158   142   144   ar
   159   142   141    1
   160   124   125    2
   161   170   169   ar
   162   136   134    1
   163   141   138    1
   164   134   133    1
   165   138   137    1
   166   138   139    1
   167   153   152    1
   168   154   152    1
   169   137   131   am
   170   152   149    1
   171   133   135    1
   172   133   130    1
   173   139   140    2
   174   131   132    2
   175   131   130    1
   176   130   129    1
   177   149   150    1
   178   149   148    1
   179   150   151    2
