@<TRIPOS>MOLECULE
tmp/4nqaH00.pdb
 130 123 0 0 0
SMALL
GASTEIGER

@<TRIPOS>ATOM
      1  N        -12.7940   36.1900  -26.7170 N.3   206  GLN206     -0.1245
      2  CA       -12.8720   36.8140  -25.3990 C.3   206  GLN206      0.1566
      3  C        -11.5340   36.7100  -24.6680 C.2   206  GLN206      0.2260
      4  O        -11.1120   37.6460  -23.9820 O.2   206  GLN206     -0.2867
      5  CB       -13.9960   36.1880  -24.5710 C.3   206  GLN206      0.0367
      6  CG       -15.3830   36.4090  -25.1580 C.3   206  GLN206      0.0905
      7  CD       -16.4860   35.8220  -24.3000 C.2   206  GLN206      0.2608
      8  OE1      -16.2230   35.1850  -23.2790 O.2   206  GLN206     -0.2717
      9  NE2      -17.7310   36.0340  -24.7110 N.am  206  GLN206     -0.0878
     10  N         -9.2370   39.3730  -26.2500 N.3   209  VAL209     -0.1231
     11  CA        -9.6090   40.6950  -25.7590 C.3   209  VAL209      0.1692
     12  C         -9.0920   40.9020  -24.3400 C.2   209  VAL209      0.2592
     13  O         -8.4990   41.9390  -24.0270 O.2   209  VAL209     -0.2718
     14  CB       -11.1370   40.8970  -25.7800 C.3   209  VAL209      0.0266
     15  CG1      -11.5070   42.2350  -25.1570 C.3   209  VAL209      0.0020
     16  CG2      -11.6640   40.8020  -27.2020 C.3   209  VAL209      0.0020
     17  N         -9.3090   39.9030  -23.4890 N.am  210  ASP210     -0.1974
     18  CA        -8.8140   39.9510  -22.1180 C.3   210  ASP210      0.1709
     19  C         -7.2900   40.0460  -22.0730 C.2   210  ASP210      0.2293
     20  O         -6.7260   40.6370  -21.1510 O.2   210  ASP210     -0.2864
     21  CB        -9.2960   38.7340  -21.3250 C.3   210  ASP210      0.1436
     22  CG       -10.7850   38.7790  -21.0370 C.2   210  ASP210      0.3671
     23  OD1      -11.5190   39.4480  -21.7940 O.co2 210  ASP210     -0.2456
     24  OD2      -11.2210   38.1460  -20.0530 O.co2 210  ASP210     -0.2456
     25  N         -6.2370   43.5850  -23.1820 N.3   213  LYS213     -0.1245
     26  CA        -6.6290   44.4740  -22.0950 C.3   213  LYS213      0.1561
     27  C         -5.4880   44.7030  -21.1050 C.2   213  LYS213      0.2260
     28  O         -5.2920   45.8150  -20.6160 O.2   213  LYS213     -0.2867
     29  CB        -7.8500   43.9090  -21.3650 C.3   213  LYS213      0.0271
     30  CG        -8.2550   44.6890  -20.1240 C.3   213  LYS213      0.0035
     31  CD        -8.6030   46.1280  -20.4620 C.3   213  LYS213      0.0206
     32  CE        -9.7670   46.1970  -21.4340 C.3   213  LYS213      0.1093
     33  NZ       -10.9830   45.5440  -20.8800 N.3   213  LYS213     -0.1314
     34  N         -1.7540   49.6140  -24.3610 N.3   218  PHE218     -0.1241
     35  CA        -3.0100   49.3830  -25.0630 C.3   218  PHE218      0.1605
     36  C         -4.1330   50.1910  -24.4220 C.2   218  PHE218      0.2264
     37  O         -5.1370   50.4990  -25.0640 O.2   218  PHE218     -0.2867
     38  CB        -3.3600   47.8930  -25.0570 C.3   218  PHE218      0.0534
     39  CG        -4.5630   47.5460  -25.8880 C.ar  218  PHE218     -0.0203
     40  CD1       -4.4420   47.3380  -27.2520 C.ar  218  PHE218     -0.0042
     41  CD2       -5.8140   47.4190  -25.3040 C.ar  218  PHE218     -0.0042
     42  CE1       -5.5450   47.0160  -28.0190 C.ar  218  PHE218     -0.0003
     43  CE2       -6.9210   47.0960  -26.0670 C.ar  218  PHE218     -0.0003
     44  CZ        -6.7850   46.8950  -27.4260 C.ar  218  PHE218     -0.0000
     45  N        -10.0920   54.5760  -28.1180 N.3   223  ARG223     -0.1231
     46  CA       -11.0580   53.4890  -28.0020 C.3   223  ARG223      0.1694
     47  C        -11.2900   52.8330  -29.3590 C.2   223  ARG223      0.2591
     48  O        -11.2570   51.6070  -29.4860 O.2   223  ARG223     -0.2718
     49  CB       -12.3830   54.0050  -27.4330 C.3   223  ARG223      0.0321
     50  CG       -12.2470   55.1860  -26.4750 C.3   223  ARG223      0.0489
     51  CD       -11.3960   54.8490  -25.2580 C.3   223  ARG223      0.2205
     52  NE       -11.0400   56.0460  -24.5010 N.pl3 223  ARG223     -0.0865
     53  CZ       -10.0520   56.1040  -23.6140 C.cat 223  ARG223      0.5346
     54  NH1       -9.8000   57.2370  -22.9730 N.pl3 223  ARG223      0.1354
     55  NH2       -9.3120   55.0320  -23.3720 N.pl3 223  ARG223      0.1354
     56  N        -11.5150   53.6630  -30.3720 N.am  224  GLU224     -0.1979
     57  CA       -11.7460   53.1800  -31.7270 C.3   224  GLU224      0.1602
     58  C        -10.4880   52.5370  -32.3010 C.2   224  GLU224      0.2287
     59  O        -10.5650   51.6720  -33.1740 O.2   224  GLU224     -0.2864
     60  CB       -12.2230   54.3220  -32.6260 C.3   224  GLU224      0.0415
     61  CG       -13.4240   55.0790  -32.0760 C.3   224  GLU224      0.1163
     62  CD       -14.6380   54.1910  -31.8740 C.2   224  GLU224      0.3649
     63  OE1      -15.4070   54.4420  -30.9220 O.co2 224  GLU224     -0.2457
     64  OE2      -14.8280   53.2480  -32.6710 O.co2 224  GLU224     -0.2457
     65  N         -8.3480   50.8040  -30.3650 N.3   226  GLN226     -0.1231
     66  CA        -8.3970   49.4980  -29.7200 C.3   226  GLN226      0.1698
     67  C         -9.3430   48.5800  -30.4810 C.2   226  GLN226      0.2592
     68  O         -9.0030   47.4360  -30.7880 O.2   226  GLN226     -0.2718
     69  CB        -8.8650   49.6350  -28.2710 C.3   226  GLN226      0.0381
     70  CG        -7.9190   50.4180  -27.3770 C.3   226  GLN226      0.0905
     71  CD        -8.5010   50.6760  -26.0000 C.2   226  GLN226      0.2608
     72  OE1       -9.5760   50.1790  -25.6650 O.2   226  GLN226     -0.2717
     73  NE2       -7.7930   51.4590  -25.1960 N.am  226  GLN226     -0.0878
     74  N        -10.5280   49.0970  -30.7890 N.am  227  ILE227     -0.1980
     75  CA       -11.5370   48.3360  -31.5180 C.3   227  ILE227      0.1595
     76  C        -11.0380   47.8910  -32.8940 C.2   227  ILE227      0.2287
     77  O        -11.2100   46.7340  -33.2770 O.2   227  ILE227     -0.2864
     78  CB       -12.8490   49.1380  -31.6670 C.3   227  ILE227      0.0276
     79  CG1      -13.4850   49.3680  -30.2950 C.3   227  ILE227      0.0022
     80  CG2      -13.8220   48.4160  -32.5830 C.3   227  ILE227      0.0022
     81  CD1      -14.8030   50.1110  -30.3470 C.3   227  ILE227      0.0001
     82  N         -8.1690   45.2920  -32.5760 N.3   230  LEU230     -0.1231
     83  CA        -8.7270   44.0110  -32.1620 C.3   230  LEU230      0.1693
     84  C         -9.4520   43.3240  -33.3160 C.2   230  LEU230      0.2591
     85  O         -9.2150   42.1480  -33.5880 O.2   230  LEU230     -0.2718
     86  CB        -9.6610   44.1840  -30.9630 C.3   230  LEU230      0.0284
     87  CG        -8.9590   44.3900  -29.6200 C.3   230  LEU230      0.0019
     88  CD1       -9.9680   44.6700  -28.5190 C.3   230  LEU230      0.0001
     89  CD2       -8.1080   43.1770  -29.2750 C.3   230  LEU230      0.0001
     90  N        -10.3250   44.0690  -33.9900 N.am  231  LYS231     -0.1980
     91  CA       -11.0570   43.5570  -35.1460 C.3   231  LYS231      0.1596
     92  C        -10.1190   42.9710  -36.1940 C.2   231  LYS231      0.2287
     93  O        -10.3950   41.9190  -36.7710 O.2   231  LYS231     -0.2864
     94  CB       -11.8990   44.6640  -35.7880 C.3   231  LYS231      0.0298
     95  CG       -13.2020   44.9790  -35.0710 C.3   231  LYS231      0.0038
     96  CD       -14.0030   46.0180  -35.8440 C.3   231  LYS231      0.0206
     97  CE       -15.3440   46.2960  -35.1850 C.3   231  LYS231      0.1093
     98  NZ       -16.1260   47.3200  -35.9320 N.3   231  LYS231     -0.1314
     99  N        -23.3640   36.8190  -32.4550 N.3   377  PRO377     -0.2102
    100  CA       -23.2580   38.2820  -32.5020 C.3   377  PRO377      0.1504
    101  C        -21.8220   38.8070  -32.4550 C.2   377  PRO377      0.2575
    102  O        -21.5040   39.7510  -33.1740 O.2   377  PRO377     -0.2718
    103  CB       -24.0240   38.7200  -31.2530 C.3   377  PRO377      0.0282
    104  CG       -25.0390   37.6570  -31.0580 C.3   377  PRO377      0.0208
    105  CD       -24.3680   36.3770  -31.4700 C.3   377  PRO377      0.0893
    106  N        -20.9770   38.2070  -31.6230 N.am  378  LEU378     -0.1980
    107  CA       -19.5820   38.6290  -31.5100 C.3   378  LEU378      0.1596
    108  C        -18.7890   38.4170  -32.8020 C.2   378  LEU378      0.2287
    109  O        -18.2410   39.3650  -33.3730 O.2   378  LEU378     -0.2864
    110  CB       -18.9010   37.8950  -30.3540 C.3   378  LEU378      0.0297
    111  CG       -17.4190   38.1970  -30.1310 C.3   378  LEU378      0.0022
    112  CD1      -17.2080   39.6740  -29.8390 C.3   378  LEU378      0.0001
    113  CD2      -16.8700   37.3380  -29.0040 C.3   378  LEU378      0.0001
    114  N        -20.0750   40.3890  -35.6130 N.3   381  GLU381     -0.1231
    115  CA       -19.7520   41.8100  -35.5430 C.3   381  GLU381      0.1699
    116  C        -18.2950   42.0710  -35.9170 C.2   381  GLU381      0.2592
    117  O        -17.9800   43.0980  -36.5180 O.2   381  GLU381     -0.2718
    118  CB       -20.0790   42.3960  -34.1600 C.3   381  GLU381      0.0402
    119  CG       -18.9310   42.3700  -33.1570 C.3   381  GLU381      0.1161
    120  CD       -19.1800   43.2520  -31.9500 C.2   381  GLU381      0.3649
    121  OE1      -20.3000   43.7910  -31.8260 O.co2 381  GLU381     -0.2457
    122  OE2      -18.2520   43.4140  -31.1300 O.co2 381  GLU381     -0.2457
    123  N        -17.4090   41.1440  -35.5640 N.am  382  ILE382     -0.1980
    124  CA       -15.9880   41.3280  -35.8460 C.3   382  ILE382      0.1595
    125  C        -15.6130   41.0320  -37.2990 C.2   382  ILE382      0.2287
    126  O        -14.9350   41.8310  -37.9470 O.2   382  ILE382     -0.2864
    127  CB       -15.1060   40.4710  -34.9120 C.3   382  ILE382      0.0276
    128  CG1      -15.3650   40.8330  -33.4490 C.3   382  ILE382      0.0022
    129  CG2      -13.6340   40.6570  -35.2460 C.3   382  ILE382      0.0022
    130  CD1      -14.5030   40.0670  -32.4690 C.3   382  ILE382      0.0001
@<TRIPOS>BOND
     1   126   125    2
     2   125   124    1
     3    93    92    2
     4   117   116    2
     5    92    91    1
     6    98    97    1
     7   116   123   am
     8   116   115    1
     9   124   123    1
    10   124   127    1
    11    96    97    1
    12    96    95    1
    13    94    91    1
    14    94    95    1
    15   114   115    1
    16   115   118    1
    17   129   127    1
    18    91    90    1
    19   127   128    1
    20   118   119    1
    21    90    84   am
    22    85    84    2
    23   128   130    1
    24   109   108    2
    25    84    83    1
    26    77    76    2
    27   102   101    2
    28    59    58    2
    29   119   120    1
    30    76    75    1
    31   108   107    1
    32    64    62   ar
    33    60    61    1
    34    60    57    1
    35    80    78    1
    36    82    83    1
    37   100    99    1
    38   100   101    1
    39   100   103    1
    40    99   105    1
    41   101   106   am
    42    58    57    1
    43    83    86    1
    44    61    62    1
    45   120   121   ar
    46   120   122   ar
    47    62    63   ar
    48    57    56    1
    49    78    75    1
    50    78    79    1
    51   106   107    1
    52    75    74    1
    53   107   110    1
    54   105   104    1
    55   103   104    1
    56    86    87    1
    57    74    67   am
    58    68    67    2
    59    67    66    1
    60    56    47   am
    61    65    66    1
    62   110   111    1
    63    81    79    1
    64   111   112    1
    65   111   113    1
    66    66    69    1
    67    87    89    1
    68    87    88    1
    69    48    47    2
    70    47    46    1
    71    69    70    1
    72    45    46    1
    73    42    44   ar
    74    42    40   ar
    75    46    49    1
    76    49    50    1
    77    44    43   ar
    78    70    71    1
    79    40    39   ar
    80    16    14    1
    81     1     2    1
    82    50    51    1
    83    10    11    1
    84    43    41   ar
    85    71    72    2
    86    71    73   am
    87    39    41   ar
    88    39    38    1
    89    14    11    1
    90    14    15    1
    91    11    12    1
    92     2     3    1
    93     2     5    1
    94    51    52    1
    95     6     5    1
    96     6     7    1
    97    37    36    2
    98    35    38    1
    99    35    36    1
   100    35    34    1
   101     9     7   am
   102     3     4    2
   103    52    53    2
   104    12    13    2
   105    12    17   am
   106     7     8    2
   107    53    55    1
   108    53    54    1
   109    17    18    1
   110    25    26    1
   111    18    19    1
   112    18    21    1
   113    26    29    1
   114    26    27    1
   115    19    20    2
   116    23    22   ar
   117    32    33    1
   118    32    31    1
   119    29    30    1
   120    21    22    1
   121    27    28    2
   122    22    24   ar
   123    31    30    1
