@<TRIPOS>MOLECULE
tmp/4nqgA00.pdb
 274 269 0 0 0
SMALL
GASTEIGER

@<TRIPOS>ATOM
      1  N         -0.5760  -57.4920   60.7650 N.3    23  HIS23      -0.1241
      2  CA        -1.7440  -57.1360   59.9290 C.3    23  HIS23       0.1621
      3  C         -2.2770  -55.7090   60.1660 C.2    23  HIS23       0.2264
      4  O         -2.8010  -55.1150   59.2510 O.2    23  HIS23      -0.2867
      5  CB        -2.8480  -58.1880   60.0870 C.3    23  HIS23       0.0745
      6  CG        -2.4330  -59.4780   59.5040 C.ar   23  HIS23       0.0817
      7  ND1       -2.2340  -59.6260   58.1430 N.ar   23  HIS23      -0.2268
      8  CD2       -2.0020  -60.6210   60.0750 C.ar   23  HIS23       0.1154
      9  CE1       -1.7460  -60.8260   57.9050 C.ar   23  HIS23       0.1986
     10  NE2       -1.6190  -61.4720   59.0600 N.ar   23  HIS23      -0.2212
     11  N         -0.0290  -53.6710   57.9950 N.3    26  MET26      -0.1245
     12  CA        -0.4440  -53.7360   56.5810 C.3    26  MET26       0.1570
     13  C         -1.7780  -53.0370   56.3140 C.2    26  MET26       0.2261
     14  O         -1.9440  -52.4260   55.2690 O.2    26  MET26      -0.2867
     15  CB        -0.5010  -55.1820   56.0680 C.3    26  MET26       0.0387
     16  CG         0.8680  -55.8780   55.9660 C.3    26  MET26       0.0595
     17  SD         2.1070  -54.9590   55.0520 S.3    26  MET26      -0.1393
     18  CE         1.4300  -54.8320   53.4390 C.3    26  MET26       0.0692
     19  N         -1.1000  -49.4000   56.1620 N.3    29  PHE29      -0.1227
     20  CA        -0.3720  -49.1920   54.9040 C.3    29  PHE29       0.1736
     21  C         -1.3130  -49.1460   53.6820 C.2    29  PHE29       0.2595
     22  O         -1.2330  -48.2110   52.8530 O.2    29  PHE29      -0.2718
     23  CB         0.6730  -50.3050   54.7690 C.3    29  PHE29       0.0547
     24  CG         1.3790  -50.3460   53.4600 C.ar   29  PHE29      -0.0202
     25  CD1        2.4650  -49.5250   53.2280 C.ar   29  PHE29      -0.0042
     26  CD2        1.0100  -51.2550   52.4800 C.ar   29  PHE29      -0.0042
     27  CE1        3.1630  -49.6080   52.0130 C.ar   29  PHE29      -0.0003
     28  CE2        1.7030  -51.3390   51.2650 C.ar   29  PHE29      -0.0003
     29  CZ         2.7780  -50.4950   51.0390 C.ar   29  PHE29      -0.0000
     30  N         -2.2470  -50.1010   53.6160 N.am   30  LEU30      -0.1980
     31  CA        -3.1910  -50.2220   52.4950 C.3    30  LEU30       0.1596
     32  C         -4.2880  -49.1690   52.5230 C.2    30  LEU30       0.2287
     33  O         -4.8550  -48.8450   51.4790 O.2    30  LEU30      -0.2864
     34  CB        -3.8260  -51.6230   52.4950 C.3    30  LEU30       0.0297
     35  CG        -2.7890  -52.6940   52.1680 C.3    30  LEU30       0.0022
     36  CD1       -3.3790  -54.0650   52.3770 C.3    30  LEU30       0.0001
     37  CD2       -2.2710  -52.5230   50.7480 C.3    30  LEU30       0.0001
     38  N         -6.9210  -52.7600   46.1240 N.3    43  MET43      -0.1245
     39  CA        -5.8790  -53.7620   46.0760 C.3    43  MET43       0.1570
     40  C         -5.4930  -54.1030   44.6380 C.2    43  MET43       0.2261
     41  O         -4.2970  -54.2790   44.3210 O.2    43  MET43      -0.2867
     42  CB        -6.2980  -55.0580   46.7880 C.3    43  MET43       0.0387
     43  CG        -6.7290  -54.9130   48.2540 C.3    43  MET43       0.0595
     44  SD        -5.5120  -54.1740   49.3580 S.3    43  MET43      -0.1393
     45  CE        -5.9860  -52.4480   49.3240 C.3    43  MET43       0.0692
     46  N         -3.6390  -51.2510   42.8670 N.3    46  LYS46      -0.1231
     47  CA        -2.2380  -51.3150   43.2440 C.3    46  LYS46       0.1693
     48  C         -1.5110  -52.4440   42.4660 C.2    46  LYS46       0.2591
     49  O         -0.4120  -52.2770   41.8860 O.2    46  LYS46      -0.2718
     50  CB        -2.1550  -51.5370   44.7600 C.3    46  LYS46       0.0285
     51  CG        -0.7760  -51.5920   45.3280 C.3    46  LYS46       0.0035
     52  CD        -0.8460  -51.5180   46.8420 C.3    46  LYS46       0.0206
     53  CE         0.5350  -51.6460   47.4270 C.3    46  LYS46       0.1093
     54  NZ         1.2670  -50.3830   47.1870 N.3    46  LYS46      -0.1314
     55  N         -2.0920  -53.6380   42.4870 N.am   47  ALA47      -0.1980
     56  CA        -1.4960  -54.7720   41.8510 C.3    47  ALA47       0.1597
     57  C         -1.2900  -54.6200   40.3380 C.2    47  ALA47       0.2287
     58  O         -0.2100  -54.9100   39.8060 O.2    47  ALA47      -0.2864
     59  CB        -2.3910  -55.9930   42.1420 C.3    47  ALA47       0.0319
     60  N          2.0070  -51.9480   40.2400 N.3    51  ILE51      -0.1245
     61  CA         3.0710  -52.9400   40.3180 C.3    51  ILE51       0.1561
     62  C          3.3190  -53.6450   38.9600 C.2    51  ILE51       0.2260
     63  O          4.4230  -53.6220   38.4410 O.2    51  ILE51      -0.2867
     64  CB         2.7550  -53.9710   41.4610 C.3    51  ILE51       0.0252
     65  CG1        2.8860  -53.2680   42.8220 C.3    51  ILE51       0.0019
     66  CG2        3.6290  -55.2040   41.3930 C.3    51  ILE51       0.0019
     67  CD1        2.2820  -54.0700   44.0020 C.3    51  ILE51       0.0001
     68  N         -1.7750  -62.4720   37.5860 N.3    65  HIS65      -0.1241
     69  CA        -1.4690  -61.8680   38.8810 C.3    65  HIS65       0.1621
     70  C         -2.7410  -61.2900   39.5200 C.2    65  HIS65       0.2264
     71  O         -2.9770  -61.4260   40.7380 O.2    65  HIS65      -0.2867
     72  CB        -0.3640  -60.8080   38.6680 C.3    65  HIS65       0.0745
     73  CG         0.1760  -60.1810   39.9250 C.ar   65  HIS65       0.0817
     74  ND1       -0.2950  -58.9880   40.4130 N.ar   65  HIS65      -0.2268
     75  CD2        1.1700  -60.5550   40.7640 C.ar   65  HIS65       0.1154
     76  CE1        0.3770  -58.6560   41.5040 C.ar   65  HIS65       0.1986
     77  NE2        1.2650  -59.5980   41.7460 N.ar   65  HIS65      -0.2212
     78  N         -4.4320  -62.0200   43.2420 N.3    69  VAL69      -0.1245
     79  CA        -4.6870  -60.9980   44.2580 C.3    69  VAL69       0.1561
     80  C         -6.1760  -60.9350   44.6890 C.2    69  VAL69       0.2260
     81  O         -6.5190  -60.7840   45.9000 O.2    69  VAL69      -0.2867
     82  CB        -4.1630  -59.6200   43.7380 C.3    69  VAL69       0.0252
     83  CG1       -4.5700  -58.4530   44.6300 C.3    69  VAL69       0.0019
     84  CG2       -2.6320  -59.7170   43.6230 C.3    69  VAL69       0.0019
     85  N         -6.6670  -63.9580   46.9800 N.3    72  PHE72      -0.1227
     86  CA        -6.0070  -63.8020   48.2630 C.3    72  PHE72       0.1736
     87  C         -6.7960  -62.8390   49.1570 C.2    72  PHE72       0.2595
     88  O         -7.2410  -63.2420   50.2500 O.2    72  PHE72      -0.2718
     89  CB        -4.5730  -63.3190   48.0400 C.3    72  PHE72       0.0547
     90  CG        -3.7870  -63.0340   49.3060 C.ar   72  PHE72      -0.0202
     91  CD1       -3.1610  -64.0850   50.0010 C.ar   72  PHE72      -0.0042
     92  CD2       -3.6430  -61.7340   49.7760 C.ar   72  PHE72      -0.0042
     93  CE1       -2.4050  -63.7920   51.1630 C.ar   72  PHE72      -0.0003
     94  CE2       -2.8750  -61.4450   50.8990 C.ar   72  PHE72      -0.0003
     95  CZ        -2.2620  -62.4630   51.5890 C.ar   72  PHE72      -0.0000
     96  N         -7.0490  -61.6040   48.6860 N.am   73  PHE73      -0.1976
     97  CA        -7.7380  -60.6670   49.5510 C.3    73  PHE73       0.1639
     98  C         -9.2030  -61.0300   49.7220 C.2    73  PHE73       0.2290
     99  O         -9.8000  -60.7420   50.7510 O.2    73  PHE73      -0.2864
    100  CB        -7.6030  -59.2300   49.0360 C.3    73  PHE73       0.0560
    101  CG        -6.2410  -58.6550   49.2980 C.ar   73  PHE73      -0.0200
    102  CD1       -5.8840  -58.2400   50.5970 C.ar   73  PHE73      -0.0042
    103  CD2       -5.3040  -58.5870   48.2960 C.ar   73  PHE73      -0.0042
    104  CE1       -4.6160  -57.7760   50.8740 C.ar   73  PHE73      -0.0003
    105  CE2       -4.0320  -58.1010   48.5450 C.ar   73  PHE73      -0.0003
    106  CZ        -3.6900  -57.6880   49.8390 C.ar   73  PHE73      -0.0000
    107  N        -11.6690  -56.7200   59.0200 N.3    89  TYR89      -0.1241
    108  CA       -10.4690  -57.1390   58.3290 C.3    89  TYR89       0.1605
    109  C         -9.7480  -58.2160   59.1150 C.2    89  TYR89       0.2264
    110  O         -9.3700  -59.2410   58.5560 O.2    89  TYR89      -0.2867
    111  CB        -9.5440  -55.9330   58.1230 C.3    89  TYR89       0.0534
    112  CG        -8.2940  -56.2440   57.3200 C.ar   89  TYR89      -0.0201
    113  CD1       -8.3660  -56.4310   55.9350 C.ar   89  TYR89      -0.0009
    114  CD2       -7.0440  -56.2950   57.9340 C.ar   89  TYR89      -0.0009
    115  CE1       -7.2350  -56.6720   55.1830 C.ar   89  TYR89       0.0417
    116  CE2       -5.8910  -56.5120   57.1730 C.ar   89  TYR89       0.0417
    117  CZ        -6.0100  -56.7120   55.8040 C.ar   89  TYR89       0.1957
    118  OH        -4.9170  -56.9570   55.0100 O.3    89  TYR89      -0.2866
    119  N         -9.0000  -62.1090   58.3180 N.3    93  TRP93      -0.1241
    120  CA        -7.6530  -62.6500   58.2030 C.3    93  TRP93       0.1605
    121  C         -7.4800  -63.8790   59.0620 C.2    93  TRP93       0.2264
    122  O         -6.6750  -64.7580   58.7090 O.2    93  TRP93      -0.2867
    123  CB        -6.6140  -61.5800   58.5660 C.3    93  TRP93       0.0550
    124  CG        -5.9040  -61.0790   57.3520 C.ar   93  TRP93       0.0003
    125  CD1       -6.1860  -59.9580   56.6060 C.ar   93  TRP93       0.0946
    126  CD2       -4.8200  -61.7410   56.7040 C.ar   93  TRP93       0.0152
    127  NE1       -5.3090  -59.8780   55.5360 N.ar   93  TRP93      -0.2442
    128  CE2       -4.4520  -60.9530   55.5870 C.ar   93  TRP93       0.0810
    129  CE3       -4.0920  -62.9050   56.9870 C.ar   93  TRP93       0.0012
    130  CZ2       -3.4010  -61.3080   54.7440 C.ar   93  TRP93       0.0191
    131  CZ3       -3.0350  -63.2590   56.1510 C.ar   93  TRP93       0.0001
    132  CH2       -2.6890  -62.4450   55.0500 C.ar   93  TRP93       0.0015
    133  N         -1.4710  -68.0460   48.6670 N.3   112  ILE112     -0.1245
    134  CA        -0.2340  -67.2590   48.7040 C.3   112  ILE112      0.1561
    135  C          0.8470  -67.8650   47.7880 C.2   112  ILE112      0.2260
    136  O          1.6260  -67.1040   47.1680 O.2   112  ILE112     -0.2867
    137  CB         0.3130  -67.0360   50.1750 C.3   112  ILE112      0.0252
    138  CG1        1.4690  -66.0390   50.2070 C.3   112  ILE112      0.0019
    139  CG2        0.7820  -68.2950   50.8190 C.3   112  ILE112      0.0019
    140  CD1        1.0920  -64.6680   49.8760 C.3   112  ILE112      0.0001
    141  N         -0.0980  -66.7630   44.2080 N.3   115  TRP115     -0.1227
    142  CA         0.3230  -65.3610   44.0530 C.3   115  TRP115      0.1737
    143  C          1.8310  -65.2420   43.8110 C.2   115  TRP115      0.2596
    144  O          2.2630  -64.5480   42.8880 O.2   115  TRP115     -0.2718
    145  CB        -0.1060  -64.5480   45.2850 C.3   115  TRP115      0.0564
    146  CG         0.1130  -63.0650   45.1810 C.ar  115  TRP115      0.0003
    147  CD1        0.5100  -62.3360   44.0550 C.ar  115  TRP115      0.0946
    148  CD2       -0.0340  -62.0960   46.2380 C.ar  115  TRP115      0.0152
    149  NE1        0.5990  -60.9940   44.3710 N.ar  115  TRP115     -0.2442
    150  CE2        0.2730  -60.8170   45.6910 C.ar  115  TRP115      0.0810
    151  CE3       -0.4170  -62.1760   47.5900 C.ar  115  TRP115      0.0012
    152  CZ2        0.2340  -59.6360   46.4540 C.ar  115  TRP115      0.0191
    153  CZ3       -0.4540  -60.9730   48.3610 C.ar  115  TRP115      0.0001
    154  CH2       -0.1210  -59.7370   47.7810 C.ar  115  TRP115      0.0015
    155  N          2.6290  -65.9210   44.6310 N.am  116  GLY116     -0.1957
    156  CA         4.0570  -65.9050   44.4020 C.3   116  GLY116      0.1869
    157  C          4.4510  -66.3800   43.0040 C.2   116  GLY116      0.2309
    158  O          5.3690  -65.8280   42.3760 O.2   116  GLY116     -0.2863
    159  N          3.6340  -63.5560   40.5610 N.3   119  LEU119     -0.1231
    160  CA         4.5130  -62.4110   40.7110 C.3   119  LEU119      0.1693
    161  C          5.9080  -62.7610   40.1950 C.2   119  LEU119      0.2592
    162  O          6.5070  -61.9790   39.4300 O.2   119  LEU119     -0.2718
    163  CB         4.5590  -61.9450   42.1690 C.3   119  LEU119      0.0284
    164  CG         5.5010  -60.7700   42.4430 C.3   119  LEU119      0.0019
    165  CD1        5.0210  -59.5350   41.6640 C.3   119  LEU119      0.0001
    166  CD2        5.5220  -60.4650   43.9290 C.3   119  LEU119      0.0001
    167  N          6.4340  -63.9220   40.5680 N.am  120  PHE120     -0.1976
    168  CA         7.7890  -64.2750   40.1640 C.3   120  PHE120      0.1639
    169  C          7.8380  -64.4690   38.6620 C.2   120  PHE120      0.2290
    170  O          8.8750  -64.2310   38.0390 O.2   120  PHE120     -0.2864
    171  CB         8.2880  -65.5240   40.9050 C.3   120  PHE120      0.0560
    172  CG         8.8800  -65.2440   42.2560 C.ar  120  PHE120     -0.0200
    173  CD1        8.3540  -64.2700   43.1200 C.ar  120  PHE120     -0.0042
    174  CD2        9.9900  -65.9710   42.6670 C.ar  120  PHE120     -0.0042
    175  CE1        8.9510  -64.0510   44.3820 C.ar  120  PHE120     -0.0003
    176  CE2       10.5730  -65.7530   43.9160 C.ar  120  PHE120     -0.0003
    177  CZ        10.0770  -64.8190   44.7560 C.ar  120  PHE120     -0.0000
    178  N         14.1560  -58.3170   43.8880 N.3   136  TRP136     -0.1241
    179  CA        13.3280  -58.2140   45.0900 C.3   136  TRP136      0.1605
    180  C         13.2430  -56.7530   45.5820 C.2   136  TRP136      0.2264
    181  O         12.1640  -56.3140   45.9830 O.2   136  TRP136     -0.2867
    182  CB        13.8840  -59.1440   46.1710 C.3   136  TRP136      0.0550
    183  CG        13.0400  -59.1260   47.4020 C.ar  136  TRP136      0.0003
    184  CD1       13.3810  -58.5580   48.6100 C.ar  136  TRP136      0.0946
    185  CD2       11.7200  -59.6630   47.5590 C.ar  136  TRP136      0.0152
    186  NE1       12.3350  -58.7340   49.5140 N.ar  136  TRP136     -0.2442
    187  CE2       11.3160  -59.4040   48.8910 C.ar  136  TRP136      0.0810
    188  CE3       10.8270  -60.3120   46.6930 C.ar  136  TRP136      0.0012
    189  CZ2       10.0440  -59.7620   49.3770 C.ar  136  TRP136      0.0191
    190  CZ3        9.5680  -60.7220   47.1900 C.ar  136  TRP136      0.0001
    191  CH2        9.1880  -60.4000   48.5150 C.ar  136  TRP136      0.0015
    192  N         10.7490  -54.9660   43.2360 N.3   139  TYR139     -0.1241
    193  CA         9.3530  -55.2930   43.5370 C.3   139  TYR139      0.1605
    194  C          8.9210  -54.6240   44.8350 C.2   139  TYR139      0.2264
    195  O          7.9120  -53.8980   44.8770 O.2   139  TYR139     -0.2867
    196  CB         9.1000  -56.8180   43.6560 C.3   139  TYR139      0.0534
    197  CG         7.7550  -57.0330   44.3060 C.ar  139  TYR139     -0.0201
    198  CD1        6.6050  -56.6630   43.6290 C.ar  139  TYR139     -0.0009
    199  CD2        7.6420  -57.4960   45.6290 C.ar  139  TYR139     -0.0009
    200  CE1        5.3690  -56.7410   44.2140 C.ar  139  TYR139      0.0417
    201  CE2        6.3760  -57.5610   46.2460 C.ar  139  TYR139      0.0417
    202  CZ         5.2510  -57.2170   45.5040 C.ar  139  TYR139      0.1957
    203  OH         3.9530  -57.2100   45.9940 O.3   139  TYR139     -0.2866
    204  N          6.0240  -51.7840   45.3000 N.3   143  ALA143     -0.1245
    205  CA         4.8380  -52.0770   46.1290 C.3   143  ALA143      0.1562
    206  C          4.8050  -51.1920   47.3700 C.2   143  ALA143      0.2260
    207  O          3.7340  -50.9130   47.9350 O.2   143  ALA143     -0.2867
    208  CB         4.8140  -53.5530   46.5390 C.3   143  ALA143      0.0290
    209  N          6.2510  -52.0000   50.2480 N.3   145  ILE145     -0.1245
    210  CA         6.2370  -52.8190   51.4570 C.3   145  ILE145      0.1561
    211  C          7.6340  -52.8800   52.1090 C.2   145  ILE145      0.2260
    212  O          7.7370  -53.0790   53.3430 O.2   145  ILE145     -0.2867
    213  CB         5.6820  -54.2480   51.1430 C.3   145  ILE145      0.0252
    214  CG1        5.3770  -55.0180   52.4340 C.3   145  ILE145      0.0019
    215  CG2        6.6480  -55.0310   50.2590 C.3   145  ILE145      0.0019
    216  CD1        4.5890  -56.3680   52.2510 C.3   145  ILE145      0.0001
    217  N         10.7590  -69.1310   45.0540 N.3   169  VAL169     -0.1245
    218  CA         9.3660  -68.9930   45.4720 C.3   169  VAL169      0.1561
    219  C          8.9580  -70.0580   46.5260 C.2   169  VAL169      0.2260
    220  O          8.1240  -69.7780   47.3730 O.2   169  VAL169     -0.2867
    221  CB         8.4310  -69.0410   44.2330 C.3   169  VAL169      0.0252
    222  CG1        8.4450  -70.4040   43.5680 C.3   169  VAL169      0.0019
    223  CG2        7.0170  -68.6300   44.6060 C.3   169  VAL169      0.0019
    224  N         10.2110  -68.5420   49.8490 N.3   172  MET172     -0.1230
    225  CA         9.4330  -67.4080   50.2860 C.3   172  MET172      0.1702
    226  C          8.0080  -67.8220   50.6770 C.2   172  MET172      0.2593
    227  O          7.4100  -67.2230   51.5800 O.2   172  MET172     -0.2718
    228  CB         9.3620  -66.2920   49.2210 C.3   172  MET172      0.0401
    229  CG         8.8780  -64.9450   49.7920 C.3   172  MET172      0.0596
    230  SD         9.9810  -64.4530   51.1420 S.3   172  MET172     -0.1393
    231  CE         9.6430  -62.7110   51.3060 C.3   172  MET172      0.0692
    232  N          7.4350  -68.8040   49.9940 N.am  173  THR173     -0.1953
    233  CA         6.1310  -69.3310   50.4130 C.3   173  THR173      0.1897
    234  C          6.1880  -69.9370   51.8300 C.2   173  THR173      0.2313
    235  O          5.3140  -69.5750   52.6690 O.2   173  THR173     -0.2863
    236  CB         5.5970  -70.3970   49.4320 C.3   173  THR173      0.1794
    237  OG1        5.4860  -69.8290   48.1110 O.3   173  THR173     -0.2208
    238  CG2        4.2410  -70.9510   49.8760 C.3   173  THR173      0.0378
    239  N          6.3350  -67.1110   54.2220 N.3   176  HIS176     -0.1241
    240  CA         5.0470  -66.4320   54.3060 C.3   176  HIS176      0.1621
    241  C          4.0380  -67.1970   55.1380 C.2   176  HIS176      0.2264
    242  O          3.2680  -66.5960   55.8700 O.2   176  HIS176     -0.2867
    243  CB         4.4930  -66.1990   52.9110 C.3   176  HIS176      0.0745
    244  CG         5.0540  -64.9830   52.2680 C.ar  176  HIS176      0.0817
    245  ND1        5.0250  -64.7730   50.9060 N.ar  176  HIS176     -0.2268
    246  CD2        5.6480  -63.8930   52.8060 C.ar  176  HIS176      0.1154
    247  CE1        5.5960  -63.6110   50.6340 C.ar  176  HIS176      0.1986
    248  NE2        5.9780  -63.0520   51.7670 N.ar  176  HIS176     -0.2212
    249  N          2.7480  -64.6060   57.8300 N.3   180  TRP180     -0.1241
    250  CA         1.4100  -64.0480   57.6720 C.3   180  TRP180      0.1605
    251  C          0.3450  -64.8980   58.3450 C.2   180  TRP180      0.2264
    252  O         -0.6960  -64.3290   58.7410 O.2   180  TRP180     -0.2867
    253  CB         1.0310  -63.8740   56.1950 C.3   180  TRP180      0.0550
    254  CG         1.8940  -62.9070   55.3950 C.ar  180  TRP180      0.0003
    255  CD1        2.5870  -63.1780   54.2430 C.ar  180  TRP180      0.0946
    256  CD2        2.1540  -61.5300   55.7030 C.ar  180  TRP180      0.0152
    257  NE1        3.2460  -62.0450   53.8100 N.ar  180  TRP180     -0.2442
    258  CE2        3.0170  -61.0270   54.7010 C.ar  180  TRP180      0.0810
    259  CE3        1.7590  -60.6760   56.7410 C.ar  180  TRP180      0.0012
    260  CZ2        3.4570  -59.6850   54.6870 C.ar  180  TRP180      0.0191
    261  CZ3        2.2140  -59.3470   56.7300 C.ar  180  TRP180      0.0001
    262  CH2        3.0600  -58.8790   55.7130 C.ar  180  TRP180      0.0015
    263  N         10.9700  -59.5130   56.9750 N.3   191  TYR191     -0.1241
    264  CA        10.9090  -58.2920   56.1710 C.3   191  TYR191      0.1605
    265  C         11.9050  -57.2600   56.7000 C.2   191  TYR191      0.2264
    266  O         11.8270  -56.0830   56.3160 O.2   191  TYR191     -0.2867
    267  CB         9.4570  -57.7480   56.1240 C.3   191  TYR191      0.0534
    268  CG         8.6510  -58.4550   55.0430 C.ar  191  TYR191     -0.0201
    269  CD1        8.6450  -57.9770   53.7370 C.ar  191  TYR191     -0.0009
    270  CD2        7.9450  -59.6300   55.3010 C.ar  191  TYR191     -0.0009
    271  CE1        7.9550  -58.6060   52.7300 C.ar  191  TYR191      0.0417
    272  CE2        7.2500  -60.3010   54.2540 C.ar  191  TYR191      0.0417
    273  CZ         7.2820  -59.7550   52.9720 C.ar  191  TYR191      0.1957
    274  OH         6.6450  -60.3330   51.8910 O.3   191  TYR191     -0.2866
@<TRIPOS>BOND
     1    68    69    1
     2   170   169    2
     3    63    62    2
     4   169   168    1
     5    72    69    1
     6    72    73    1
     7    69    70    1
     8    62    61    1
     9   162   161    2
    10    70    71    2
    11    58    57    2
    12    73    74   ar
    13    73    75   ar
    14   168   167    1
    15   168   171    1
    16   161   167   am
    17   161   160    1
    18    60    61    1
    19    61    64    1
    20    57    56    1
    21    74    76   ar
    22   159   160    1
    23   160   163    1
    24    75    77   ar
    25   171   172    1
    26    66    64    1
    27    64    65    1
    28    76    77   ar
    29   165   164    1
    30    56    59    1
    31    56    55    1
    32    49    48    2
    33   163   164    1
    34   172   174   ar
    35   172   173   ar
    36   158   157    2
    37   164   166    1
    38    48    55   am
    39    48    47    1
    40   174   176   ar
    41    65    67    1
    42    46    47    1
    43   144   143    2
    44   157   156    1
    45   173   175   ar
    46   192   193    1
    47    78    79    1
    48    47    50    1
    49   193   196    1
    50   193   194    1
    51   222   221    1
    52    84    82    1
    53   198   200   ar
    54   198   197   ar
    55   196   197    1
    56    82    79    1
    57    82    83    1
    58   143   142    1
    59   143   155   am
    60   178   179    1
    61   176   177   ar
    62   142   141    1
    63   142   145    1
    64   147   149   ar
    65   147   146   ar
    66   200   202   ar
    67   221   223    1
    68   221   218    1
    69    79    80    1
    70   197   199   ar
    71    41    40    2
    72   149   150   ar
    73   175   177   ar
    74   156   155    1
    75    40    39    1
    76    80    81    2
    77    50    51    1
    78   194   195    2
    79   217   218    1
    80   179   180    1
    81   179   182    1
    82   146   145    1
    83   146   148   ar
    84   204   205    1
    85    51    52    1
    86   218   219    1
    87   202   203    1
    88   202   201   ar
    89   180   181    2
    90   199   201   ar
    91   150   148   ar
    92   150   152   ar
    93    39    38    1
    94    39    42    1
    95   205   208    1
    96   205   206    1
    97   182   183    1
    98   148   151   ar
    99   152   154   ar
   100   219   220    2
   101   188   190   ar
   102   188   185   ar
   103    42    43    1
   104    52    53    1
   105    85    86    1
   106   136   135    2
   107    54    53    1
   108   190   191   ar
   109   206   207    2
   110   183   185   ar
   111   183   184   ar
   112   185   187   ar
   113   151   153   ar
   114   154   153   ar
   115   135   134    1
   116    89    86    1
   117    89    90    1
   118   237   236    1
   119    43    44    1
   120    86    87    1
   121   103   105   ar
   122   103   101   ar
   123   191   189   ar
   124   105   106   ar
   125   184   186   ar
   126   133   134    1
   127    96    87   am
   128    96    97    1
   129   134   137    1
   130   187   189   ar
   131   187   186   ar
   132   100   101    1
   133   100    97    1
   134    87    88    2
   135   228   229    1
   136   228   225    1
   137   101   102   ar
   138    90    92   ar
   139    90    91   ar
   140    45    44    1
   141   236   238    1
   142   236   233    1
   143    97    98    1
   144    98    99    2
   145    92    94   ar
   146   229   230    1
   147   106   104   ar
   148   224   225    1
   149   140   138    1
   150   232   233    1
   151   232   226   am
   152    91    93   ar
   153   137   138    1
   154   137   139    1
   155   209   210    1
   156   215   213    1
   157   225   226    1
   158   233   234    1
   159   102   104   ar
   160   247   245   ar
   161   247   248   ar
   162   226   227    2
   163    37    35    1
   164    94    95   ar
   165   245   244   ar
   166    29    28   ar
   167    29    27   ar
   168   230   231    1
   169   213   210    1
   170   213   214    1
   171    93    95   ar
   172    28    26   ar
   173   210   211    1
   174    33    32    2
   175   248   246   ar
   176   234   235    2
   177   274   273    1
   178    27    25   ar
   179   211   212    2
   180    35    36    1
   181    35    34    1
   182   216   214    1
   183   244   246   ar
   184   244   243    1
   185    26    24   ar
   186    31    34    1
   187    31    32    1
   188    31    30    1
   189   271   273   ar
   190   271   269   ar
   191    22    21    2
   192   243   240    1
   193   273   272   ar
   194    25    24   ar
   195    18    17    1
   196    24    23    1
   197    30    21   am
   198    21    20    1
   199   269   268   ar
   200   257   255   ar
   201   257   258   ar
   202   239   240    1
   203   255   254   ar
   204   272   270   ar
   205   240   241    1
   206   260   258   ar
   207   260   262   ar
   208   258   256   ar
   209   130   132   ar
   210   130   128   ar
   211    23    20    1
   212    20    19    1
   213   118   117    1
   214   268   270   ar
   215   268   267    1
   216   132   131   ar
   217    17    16    1
   218   241   242    2
   219   115   117   ar
   220   115   113   ar
   221    14    13    2
   222   254   256   ar
   223   254   253    1
   224   127   128   ar
   225   127   125   ar
   226   128   126   ar
   227   256   259   ar
   228   262   261   ar
   229   117   116   ar
   230   113   112   ar
   231    16    15    1
   232    15    12    1
   233   267   264    1
   234   131   129   ar
   235   264   265    1
   236   264   263    1
   237   253   250    1
   238    13    12    1
   239   266   265    2
   240    12    11    1
   241   125   124   ar
   242   126   129   ar
   243   126   124   ar
   244   261   259   ar
   245   116   114   ar
   246   112   114   ar
   247   112   111    1
   248   124   123    1
   249   250   249    1
   250   250   251    1
   251     9     7   ar
   252     9    10   ar
   253   111   108    1
   254     7     6   ar
   255   120   119    1
   256   120   123    1
   257   120   121    1
   258   108   107    1
   259   108   109    1
   260   251   252    2
   261   110   109    2
   262   122   121    2
   263    10     8   ar
   264     4     3    2
   265     6     8   ar
   266     6     5    1
   267     2     5    1
   268     2     3    1
   269     2     1    1
