@<TRIPOS>MOLECULE
tmp/4nqiB01.pdb
 86 82 0 0 0
SMALL
GASTEIGER

@<TRIPOS>ATOM
      1  N         18.5110    5.2490   12.9240 N.3    22  PHE22      -0.1241
      2  CA        19.0180    6.2630   13.8450 C.3    22  PHE22       0.1605
      3  C         17.8890    6.9190   14.6400 C.2    22  PHE22       0.2264
      4  O         18.1000    7.3750   15.7690 O.2    22  PHE22      -0.2867
      5  CB        19.8430    7.3160   13.0970 C.3    22  PHE22       0.0534
      6  CG        21.2710    6.9100   12.8600 C.ar   22  PHE22      -0.0203
      7  CD1       22.2160    7.0520   13.8650 C.ar   22  PHE22      -0.0042
      8  CD2       21.6710    6.3880   11.6360 C.ar   22  PHE22      -0.0042
      9  CE1       23.5350    6.6790   13.6580 C.ar   22  PHE22      -0.0003
     10  CE2       22.9880    6.0140   11.4220 C.ar   22  PHE22      -0.0003
     11  CZ        23.9200    6.1590   12.4360 C.ar   22  PHE22      -0.0000
     12  N         20.6110   15.5470   17.3660 N.3    94  ASN94      -0.1240
     13  CA        20.7340   14.4750   16.3760 C.3    94  ASN94       0.1653
     14  C         19.4290   14.2390   15.6190 C.2    94  ASN94       0.2266
     15  O         19.4430   13.8060   14.4650 O.2    94  ASN94      -0.2867
     16  CB        21.2340   13.1760   17.0130 C.3    94  ASN94       0.1155
     17  CG        21.9330   12.2670   16.0150 C.2    94  ASN94       0.2627
     18  OD1       21.3970   11.2310   15.6140 O.2    94  ASN94      -0.2716
     19  ND2       23.1380   12.6570   15.6040 N.am   94  ASN94      -0.0877
     20  N         19.6960   16.6310   12.9880 N.3    97  ALA97      -0.1231
     21  CA        20.7370   16.1870   12.0670 C.3    97  ALA97       0.1694
     22  C         20.2510   15.0790   11.1270 C.2    97  ALA97       0.2591
     23  O         20.6360   15.0420    9.9570 O.2    97  ALA97      -0.2718
     24  CB        21.9640   15.7360   12.8440 C.3    97  ALA97       0.0304
     25  N         19.4150   14.1800   11.6490 N.am   98  ILE98      -0.1980
     26  CA        18.8270   13.0980   10.8570 C.3    98  ILE98       0.1595
     27  C         18.0320   13.6580    9.6740 C.2    98  ILE98       0.2287
     28  O         18.1170   13.1450    8.5560 O.2    98  ILE98      -0.2864
     29  CB        17.9160   12.1830   11.7260 C.3    98  ILE98       0.0276
     30  CG1       18.7580   11.2970   12.6490 C.3    98  ILE98       0.0022
     31  CG2       17.0390   11.2980   10.8580 C.3    98  ILE98       0.0022
     32  CD1       17.9350   10.4330   13.6010 C.3    98  ILE98       0.0001
     33  N         18.2710   16.9360    8.4630 N.3   100  ASP100     -0.1225
     34  CA        19.2080   17.7080    7.6500 C.3   100  ASP100      0.1805
     35  C         19.9830   16.8120    6.6770 C.2   100  ASP100      0.2597
     36  O         20.1370   17.1480    5.4990 O.2   100  ASP100     -0.2718
     37  CB        20.1820   18.4790    8.5490 C.3   100  ASP100      0.1424
     38  CG        19.5220   19.6460    9.2670 C.2   100  ASP100      0.3668
     39  OD1       18.2800   19.7610    9.2110 O.co2 100  ASP100     -0.2456
     40  OD2       20.2490   20.4470    9.8950 O.co2 100  ASP100     -0.2456
     41  N         20.4700   15.6770    7.1780 N.am  101  ASP101     -0.1974
     42  CA        21.1960   14.7070    6.3580 C.3   101  ASP101      0.1709
     43  C         20.3100   14.0920    5.2850 C.2   101  ASP101      0.2293
     44  O         20.7510   13.8570    4.1620 O.2   101  ASP101     -0.2864
     45  CB        21.7610   13.5840    7.2270 C.3   101  ASP101      0.1436
     46  CG        22.9160   14.0330    8.0880 C.2   101  ASP101      0.3671
     47  OD1       23.4330   15.1480    7.8670 O.co2 101  ASP101     -0.2456
     48  OD2       23.3130   13.2570    8.9800 O.co2 101  ASP101     -0.2456
     49  N         31.0400   11.3000    8.0890 N.3   165  ARG165     -0.1231
     50  CA        30.7850   12.5530    8.7920 C.3   165  ARG165      0.1694
     51  C         29.4660   12.5030    9.5590 C.2   165  ARG165      0.2591
     52  O         29.3250   13.1400   10.6030 O.2   165  ARG165     -0.2718
     53  CB        30.8090   13.7400    7.8240 C.3   165  ARG165      0.0321
     54  CG        32.2050   14.0960    7.3250 C.3   165  ARG165      0.0489
     55  CD        32.2250   15.4570    6.6470 C.3   165  ARG165      0.2205
     56  NE        31.3610   15.5010    5.4720 N.pl3 165  ARG165     -0.0865
     57  CZ        31.7480   15.1510    4.2500 C.cat 165  ARG165      0.5346
     58  NH1       32.9860   14.7250    4.0410 N.pl3 165  ARG165      0.1354
     59  NH2       30.8960   15.2240    3.2360 N.pl3 165  ARG165      0.1354
     60  N         28.5040   11.7420    9.0400 N.am  166  LYS166     -0.1980
     61  CA        27.2470   11.5210    9.7520 C.3   166  LYS166      0.1596
     62  C         27.4740   10.6960   11.0170 C.2   166  LYS166      0.2287
     63  O         26.9590   11.0230   12.0870 O.2   166  LYS166     -0.2864
     64  CB        26.2150   10.8160    8.8630 C.3   166  LYS166      0.0298
     65  CG        24.9130   10.4900    9.6020 C.3   166  LYS166      0.0038
     66  CD        23.9200    9.7070    8.7470 C.3   166  LYS166      0.0206
     67  CE        22.6310    9.4430    9.5220 C.3   166  LYS166      0.1093
     68  NZ        21.9920   10.7030    9.9950 N.3   166  LYS166     -0.1314
     69  N         29.5660   12.6100   13.7850 N.3   169  THR169     -0.1203
     70  CA        28.7120   13.5740   14.4750 C.3   169  THR169      0.1994
     71  C         27.8120   12.8640   15.4880 C.2   169  THR169      0.2617
     72  O         27.5690   13.3760   16.5820 O.2   169  THR169     -0.2717
     73  CB        27.8450   14.3640   13.4760 C.3   169  THR169      0.1784
     74  OG1       28.6790   15.2040   12.6700 O.3   169  THR169     -0.2211
     75  CG2       26.8290   15.2290   14.2010 C.3   169  THR169      0.0376
     76  N         27.3260   11.6810   15.1160 N.am  170  PHE170     -0.1975
     77  CA        26.5000   10.8620   15.9990 C.3   170  PHE170      0.1639
     78  C         27.2560   10.5100   17.2770 C.2   170  PHE170      0.2290
     79  O         26.7480   10.7070   18.3830 O.2   170  PHE170     -0.2864
     80  CB        26.0540    9.5850   15.2780 C.3   170  PHE170      0.0560
     81  CG        25.3370    8.5990   16.1640 C.ar  170  PHE170     -0.0200
     82  CD1       23.9890    8.7540   16.4500 C.ar  170  PHE170     -0.0042
     83  CD2       26.0110    7.5070   16.6980 C.ar  170  PHE170     -0.0042
     84  CE1       23.3270    7.8440   17.2610 C.ar  170  PHE170     -0.0003
     85  CE2       25.3530    6.5950   17.5080 C.ar  170  PHE170     -0.0003
     86  CZ        24.0100    6.7650   17.7880 C.ar  170  PHE170     -0.0000
@<TRIPOS>BOND
     1    59    57    1
     2    58    57    1
     3    44    43    2
     4    57    56    2
     5    43    42    1
     6    56    55    1
     7    36    35    2
     8    42    41    1
     9    42    45    1
    10    55    54    1
    11    35    41   am
    12    35    34    1
    13    45    46    1
    14    54    53    1
    15    34    33    1
    16    34    37    1
    17    53    50    1
    18    47    46   ar
    19    46    48   ar
    20    49    50    1
    21    37    38    1
    22    28    27    2
    23    66    67    1
    24    66    65    1
    25    50    51    1
    26    64    65    1
    27    64    61    1
    28    60    51   am
    29    60    61    1
    30    39    38   ar
    31    38    40   ar
    32    67    68    1
    33    51    52    2
    34    27    26    1
    35    61    62    1
    36    23    22    2
    37    26    25    1
    38    26    29    1
    39    31    29    1
    40    62    63    2
    41    22    25   am
    42    22    21    1
    43    10     8   ar
    44    10    11   ar
    45     8     6   ar
    46    29    30    1
    47    21    24    1
    48    21    20    1
    49    11     9   ar
    50    30    32    1
    51    74    73    1
    52     6     5    1
    53     6     7   ar
    54     1     2    1
    55     5     2    1
    56    73    75    1
    57    73    70    1
    58     9     7   ar
    59    69    70    1
    60     2     3    1
    61    15    14    2
    62    70    71    1
    63     3     4    2
    64    76    71   am
    65    76    77    1
    66    80    77    1
    67    80    81    1
    68    71    72    2
    69    19    17   am
    70    18    17    2
    71    14    13    1
    72    77    78    1
    73    17    16    1
    74    81    82   ar
    75    81    83   ar
    76    13    16    1
    77    13    12    1
    78    82    84   ar
    79    83    85   ar
    80    84    86   ar
    81    78    79    2
    82    85    86   ar
