@<TRIPOS>MOLECULE
tmp/4nqmA00.pdb
 142 137 0 0 0
SMALL
GASTEIGER

@<TRIPOS>ATOM
      1  N          8.0790   -1.9700    2.6750 N.3    40  TRP40      -0.1228
      2  CA         7.8820   -0.7120    1.9520 C.3    40  TRP40       0.1722
      3  C          9.1640    0.0330    1.5760 C.2    40  TRP40       0.2437
      4  O          9.2150    0.6070    0.4870 O.2    40  TRP40      -0.2733
      5  CB         6.9240    0.2560    2.6280 C.3    40  TRP40       0.0563
      6  CG         7.4550    1.0750    3.7780 C.ar   40  TRP40       0.0003
      7  CD1        8.0820    2.3250    3.7330 C.ar   40  TRP40       0.0946
      8  CD2        7.3280    0.7660    5.1970 C.ar   40  TRP40       0.0152
      9  NE1        8.3560    2.7830    4.9910 N.ar   40  TRP40      -0.2442
     10  CE2        7.9490    1.8870    5.9140 C.ar   40  TRP40       0.0810
     11  CE3        6.8350   -0.3050    5.9120 C.ar   40  TRP40       0.0012
     12  CZ2        8.0150    1.9190    7.2940 C.ar   40  TRP40       0.0191
     13  CZ3        6.8940   -0.2510    7.3150 C.ar   40  TRP40       0.0001
     14  CH2        7.5040    0.8230    7.9700 C.ar   40  TRP40       0.0015
     15  N         10.2010    0.0850    2.4520 N.am   41  PRO41      -0.2718
     16  CA        11.3480    0.8760    2.0110 C.3    41  PRO41       0.1535
     17  C         12.0850    0.2610    0.8250 C.2    41  PRO41       0.2598
     18  O         12.9120    0.9360    0.1860 O.2    41  PRO41      -0.2715
     19  CB        12.2590    0.8660    3.2410 C.3    41  PRO41       0.0310
     20  CG        11.3280    0.6190    4.3860 C.3    41  PRO41       0.0237
     21  CD        10.3640   -0.3750    3.8480 C.3    41  PRO41       0.0939
     22  N         11.8170   -1.0220    0.5940 N.am   42  PHE42      -0.1974
     23  CA        12.5480   -1.8280   -0.3970 C.3    42  PHE42       0.1639
     24  C         11.7530   -1.9740   -1.6850 C.2    42  PHE42       0.2290
     25  O         12.1730   -2.6790   -2.6120 O.2    42  PHE42      -0.2864
     26  CB        12.9250   -3.1730    0.2290 C.3    42  PHE42       0.0560
     27  CG        13.6850   -3.0250    1.4970 C.ar   42  PHE42      -0.0200
     28  CD1       15.0450   -2.7190    1.4800 C.ar   42  PHE42      -0.0042
     29  CD2       13.0410   -3.0690    2.6990 C.ar   42  PHE42      -0.0042
     30  CE1       15.7350   -2.5130    2.6580 C.ar   42  PHE42      -0.0003
     31  CE2       13.7230   -2.8700    3.8840 C.ar   42  PHE42      -0.0003
     32  CZ        15.0540   -2.5940    3.8700 C.ar   42  PHE42      -0.0000
     33  N         10.8640    0.2860   -3.9570 N.3    44  GLN44      -0.1245
     34  CA        11.2070    1.2250   -5.0050 C.3    44  GLN44       0.1566
     35  C         12.6240    1.7710   -4.7320 C.2    44  GLN44       0.2260
     36  O         13.1410    1.6890   -3.6110 O.2    44  GLN44      -0.2867
     37  CB        10.1900    2.4020   -5.1000 C.3    44  GLN44       0.0367
     38  CG        10.1010    3.2400   -3.8170 C.3    44  GLN44       0.0905
     39  CD         9.3360    2.5520   -2.7040 C.2    44  GLN44       0.2608
     40  OE1        8.2190    2.0010   -2.9210 O.2    44  GLN44      -0.2717
     41  NE2        9.9260    2.5260   -1.5200 N.am   44  GLN44      -0.0878
     42  N         15.6110    3.9460   -3.6350 N.3    46  VAL46      -0.1231
     43  CA        15.7390    4.9910   -2.5730 C.3    46  VAL46       0.1692
     44  C         15.6480    6.3750   -3.1750 C.2    46  VAL46       0.2592
     45  O         16.3960    6.7320   -4.0710 O.2    46  VAL46      -0.2718
     46  CB        17.0420    4.8070   -1.7780 C.3    46  VAL46       0.0266
     47  CG1       17.2830    5.9990   -0.8750 C.3    46  VAL46       0.0020
     48  CG2       16.9370    3.5300   -0.9550 C.3    46  VAL46       0.0020
     49  N         14.6830    7.1590   -2.7090 N.am   47  ASP47      -0.1974
     50  CA        14.5420    8.5410   -3.1880 C.3    47  ASP47       0.1709
     51  C         15.2600    9.4460   -2.1940 C.2    47  ASP47       0.2293
     52  O         14.7400    9.8090   -1.1330 O.2    47  ASP47      -0.2864
     53  CB        13.0470    8.8720   -3.3410 C.3    47  ASP47       0.1436
     54  CG        12.7920   10.1970   -3.9940 C.2    47  ASP47       0.3671
     55  OD1       13.5700   11.0910   -3.7760 O.co2  47  ASP47      -0.2456
     56  OD2       11.8100   10.2880   -4.7850 O.co2  47  ASP47      -0.2456
     57  N         13.6340   11.6160    1.0130 N.3    51  LEU51      -0.1245
     58  CA        14.0350   11.1250    2.3400 C.3    51  LEU51       0.1561
     59  C         15.0970   11.9940    2.9960 C.2    51  LEU51       0.2260
     60  O         15.5650   11.7360    4.1300 O.2    51  LEU51      -0.2867
     61  CB        14.5670    9.6890    2.2200 C.3    51  LEU51       0.0270
     62  CG        13.5910    8.6440    1.7610 C.3    51  LEU51       0.0019
     63  CD1       14.3720    7.3760    1.3610 C.3    51  LEU51       0.0001
     64  CD2       12.5290    8.3650    2.8300 C.3    51  LEU51       0.0001
     65  N         18.3820   12.2880    2.1820 N.3    53  LEU53      -0.1245
     66  CA        19.5790   11.4920    2.3780 C.3    53  LEU53       0.1561
     67  C         20.5790   11.8820    1.3080 C.2    53  LEU53       0.2260
     68  O         20.8680   11.1110    0.3860 O.2    53  LEU53      -0.2867
     69  CB        19.2520    9.9970    2.2840 C.3    53  LEU53       0.0270
     70  CG        18.2350    9.3800    3.2270 C.3    53  LEU53       0.0019
     71  CD1       18.0010    7.9410    2.7860 C.3    53  LEU53       0.0001
     72  CD2       18.6990    9.4420    4.6710 C.3    53  LEU53       0.0001
     73  N         23.3000    9.2980    0.2940 N.3    56  TYR56      -0.1241
     74  CA        22.9710    7.8980   -0.0410 C.3    56  TYR56       0.1605
     75  C         23.6990    7.4040   -1.2770 C.2    56  TYR56       0.2264
     76  O         24.4150    6.3820   -1.2460 O.2    56  TYR56      -0.2867
     77  CB        21.4620    7.6510   -0.1640 C.3    56  TYR56       0.0534
     78  CG        21.1770    6.1760   -0.3500 C.ar   56  TYR56      -0.0201
     79  CD1       21.1070    5.2780    0.7440 C.ar   56  TYR56      -0.0009
     80  CD2       21.0420    5.6550   -1.6180 C.ar   56  TYR56      -0.0009
     81  CE1       20.9060    3.9250    0.5360 C.ar   56  TYR56       0.0417
     82  CE2       20.8400    4.2980   -1.8360 C.ar   56  TYR56       0.0417
     83  CZ        20.7740    3.4370   -0.7580 C.ar   56  TYR56       0.1957
     84  OH        20.6000    2.0850   -0.9580 O.3    56  TYR56      -0.2866
     85  N         20.7610   -5.6330   -2.7680 N.3    91  MET91      -0.1245
     86  CA        19.7750   -4.8640   -2.0040 C.3    91  MET91       0.1570
     87  C         20.0520   -4.9490   -0.5010 C.2    91  MET91       0.2261
     88  O         20.1390   -3.9560    0.1860 O.2    91  MET91      -0.2867
     89  CB        18.3280   -5.2480   -2.3640 C.3    91  MET91       0.0387
     90  CG        17.2800   -4.5610   -1.5410 C.3    91  MET91       0.0595
     91  SD        15.6210   -5.1150   -1.9240 S.3    91  MET91      -0.1393
     92  CE        15.5010   -6.5890   -0.8840 C.3    91  MET91       0.0692
     93  N         21.9710   -1.9340    2.2350 N.3    95  CYS95      -0.1235
     94  CA        21.3860   -1.4540    3.4530 C.3    95  CYS95       0.1677
     95  C         22.3990   -1.5280    4.6370 C.2    95  CYS95       0.2270
     96  O         22.4920   -0.6220    5.4980 O.2    95  CYS95      -0.2867
     97  CB        20.1390   -2.2640    3.7750 C.3    95  CYS95       0.0956
     98  SG        19.1210   -1.5800    5.0930 S.3    95  CYS95      -0.0801
     99  N         25.1210    1.3010    4.2440 N.3    98  TYR98      -0.1227
    100  CA        24.7230    2.6650    4.4570 C.3    98  TYR98       0.1736
    101  C         24.3170    2.9510    5.8840 C.2    98  TYR98       0.2595
    102  O         24.5760    4.0510    6.3770 O.2    98  TYR98      -0.2718
    103  CB        23.5610    3.0350    3.5130 C.3    98  TYR98       0.0548
    104  CG        23.1720    4.4680    3.6700 C.ar   98  TYR98      -0.0200
    105  CD1       24.0140    5.4990    3.2090 C.ar   98  TYR98      -0.0009
    106  CD2       22.0060    4.8160    4.3600 C.ar   98  TYR98      -0.0009
    107  CE1       23.6600    6.8280    3.4320 C.ar   98  TYR98       0.0417
    108  CE2       21.6490    6.1470    4.5730 C.ar   98  TYR98       0.0417
    109  CZ        22.5020    7.1560    4.1130 C.ar   98  TYR98       0.1957
    110  OH        22.1560    8.5080    4.3110 O.3    98  TYR98      -0.2866
    111  N         23.6930    1.9850    6.5390 N.am   99  ASN99      -0.1974
    112  CA        23.1270    2.1390    7.8530 C.3    99  ASN99       0.1688
    113  C         23.9110    1.4230    8.9730 C.2    99  ASN99       0.2292
    114  O         24.5680    0.4160    8.7550 O.2    99  ASN99      -0.2864
    115  CB        21.6860    1.6700    7.8360 C.3    99  ASN99       0.1181
    116  CG        20.8440    2.4000    6.8030 C.2    99  ASN99       0.2629
    117  OD1       20.4290    3.5250    7.0450 O.2    99  ASN99      -0.2716
    118  ND2       20.5550    1.7510    5.6810 N.am   99  ASN99      -0.0877
    119  N         16.5930    0.7410   12.7280 N.3   104  ASP104     -0.1225
    120  CA        15.3190    0.0890   12.3870 C.3   104  ASP104      0.1805
    121  C         15.3380   -0.4060   10.9340 C.2   104  ASP104      0.2597
    122  O         14.8810   -1.5310   10.6830 O.2   104  ASP104     -0.2718
    123  CB        14.1250    1.0150   12.5770 C.3   104  ASP104      0.1424
    124  CG        13.7280    1.1840   14.0370 C.2   104  ASP104      0.3668
    125  OD1       14.2730    0.4310   14.9000 O.co2 104  ASP104     -0.2456
    126  OD2       12.8680    2.0680   14.3190 O.co2 104  ASP104     -0.2456
    127  N         15.8430    0.4090   10.0160 N.am  105  ILE105     -0.1980
    128  CA        15.8880   -0.0380    8.6120 C.3   105  ILE105      0.1595
    129  C         16.6990   -1.3290    8.4780 C.2   105  ILE105      0.2287
    130  O         16.3920   -2.2200    7.6410 O.2   105  ILE105     -0.2864
    131  CB        16.3940    1.0670    7.6460 C.3   105  ILE105      0.0276
    132  CG1       16.2140    0.6540    6.1690 C.3   105  ILE105      0.0022
    133  CG2       17.8560    1.4270    7.9220 C.3   105  ILE105      0.0022
    134  CD1       14.7340    0.6160    5.7650 C.3   105  ILE105      0.0001
    135  N         14.7960   -4.3340    9.7120 N.3   108  MET108     -0.1245
    136  CA        13.8270   -4.6610    8.6880 C.3   108  MET108      0.1570
    137  C         14.4610   -5.4840    7.5860 C.2   108  MET108      0.2261
    138  O         13.9320   -6.5540    7.2140 O.2   108  MET108     -0.2867
    139  CB        13.1470   -3.4110    8.1710 C.3   108  MET108      0.0387
    140  CG        12.2580   -2.7130    9.2020 C.3   108  MET108      0.0595
    141  SD        11.7470   -1.0320    8.7900 S.3   108  MET108     -0.1393
    142  CE        10.3880   -1.4420    7.7410 C.3   108  MET108      0.0692
@<TRIPOS>BOND
     1    37    34    1
     2    37    38    1
     3    34    35    1
     4    34    33    1
     5    56    54   ar
     6    35    36    2
     7    45    44    2
     8    54    55   ar
     9    54    53    1
    10    38    39    1
    11    42    43    1
    12    53    50    1
    13    50    49    1
    14    50    51    1
    15    44    49   am
    16    44    43    1
    17    40    39    2
    18    85    86    1
    19    39    41   am
    20    25    24    2
    21    43    46    1
    22    89    86    1
    23    89    90    1
    24    51    52    2
    25    86    87    1
    26    91    90    1
    27    91    92    1
    28    82    80   ar
    29    82    83   ar
    30    46    48    1
    31    46    47    1
    32    24    23    1
    33    80    78   ar
    34    75    76    2
    35    75    74    1
    36    84    83    1
    37    83    81   ar
    38    87    88    2
    39    23    26    1
    40    23    22    1
    41    78    77    1
    42    78    79   ar
    43    77    74    1
    44    74    73    1
    45    18    17    2
    46    26    27    1
    47    68    67    2
    48     4     3    2
    49    81    79   ar
    50    22    17   am
    51    17    16    1
    52    57    58    1
    53    67    66    1
    54    63    62    1
    55    28    27   ar
    56    28    30   ar
    57    27    29   ar
    58     3     2    1
    59     3    15   am
    60    62    61    1
    61    62    64    1
    62     2     5    1
    63     2     1    1
    64    16    15    1
    65    16    19    1
    66    65    66    1
    67    61    58    1
    68    93    94    1
    69    69    66    1
    70    69    70    1
    71    58    59    1
    72    15    21    1
    73     5     6    1
    74    30    32   ar
    75    29    31   ar
    76    71    70    1
    77    59    60    2
    78   105   107   ar
    79   105   104   ar
    80    70    72    1
    81    19    20    1
    82   107   109   ar
    83    94    97    1
    84    94    95    1
    85   103   104    1
    86   103   100    1
    87   104   106   ar
    88     7     6   ar
    89     7     9   ar
    90    97    98    1
    91     6     8   ar
    92    21    20    1
    93    32    31   ar
    94   109   110    1
    95   109   108   ar
    96    99   100    1
    97   106   108   ar
    98   100   101    1
    99    95    96    2
   100     9    10   ar
   101     8    11   ar
   102     8    10   ar
   103   118   116   am
   104   134   132    1
   105   101   102    2
   106   101   111   am
   107    11    13   ar
   108    10    12   ar
   109   132   131    1
   110   111   112    1
   111   116   117    2
   112   116   115    1
   113   138   137    2
   114    12    14   ar
   115    13    14   ar
   116   137   136    1
   117   130   129    2
   118   131   133    1
   119   131   128    1
   120   142   141    1
   121   115   112    1
   122   112   113    1
   123   139   136    1
   124   139   140    1
   125   129   128    1
   126   128   127    1
   127   136   135    1
   128   114   113    2
   129   141   140    1
   130   127   121   am
   131   122   121    2
   132   121   120    1
   133   120   123    1
   134   120   119    1
   135   123   124    1
   136   124   126   ar
   137   124   125   ar
