@<TRIPOS>MOLECULE
tmp/4nqnA00.pdb
 128 128 0 0 0
SMALL
GASTEIGER

@<TRIPOS>ATOM
      1  N         -6.9790   19.7670   -7.4640 N.3    22  HIS22      -0.1226
      2  CA        -8.1840   20.0360   -8.2270 C.3    22  HIS22       0.1752
      3  C         -9.4070   19.2310   -7.8090 C.2    22  HIS22       0.2597
      4  O        -10.5160   19.4680   -8.3260 O.2    22  HIS22      -0.2718
      5  CB        -7.9360   19.7890   -9.7030 C.3    22  HIS22       0.0759
      6  CG        -6.9570   20.7600  -10.2860 C.ar   22  HIS22       0.0818
      7  ND1       -5.7710   20.3740  -10.7960 N.ar   22  HIS22      -0.2268
      8  CD2       -7.0010   22.1520  -10.3760 C.ar   22  HIS22       0.1154
      9  CE1       -5.0870   21.4880  -11.2180 C.ar   22  HIS22       0.1986
     10  NE2       -5.8400   22.5620  -10.9540 N.ar   22  HIS22      -0.2212
     11  N         -9.2070   18.2470   -6.9290 N.am   23  GLY23      -0.1942
     12  CA       -10.3440   17.4680   -6.4170 C.3    23  GLY23       0.2014
     13  C        -10.9590   16.4670   -7.3750 C.2    23  GLY23       0.2639
     14  O        -12.0980   16.0750   -7.2020 O.2    23  GLY23      -0.2714
     15  N        -10.1770   15.9930   -8.3370 N.am   24  PHE24      -0.1959
     16  CA       -10.5840   14.9640   -9.2770 C.3    24  PHE24       0.1771
     17  C        -11.0110   13.6880   -8.5600 C.2    24  PHE24       0.2619
     18  O        -11.9310   13.0550   -9.0040 O.2    24  PHE24      -0.2715
     19  CB        -9.4610   14.6310  -10.2580 C.3    24  PHE24       0.0574
     20  CG        -8.9360   15.8130  -11.0480 C.ar   24  PHE24      -0.0200
     21  CD1       -9.7960   16.7780  -11.5850 C.ar   24  PHE24      -0.0042
     22  CD2       -7.5790   15.8650  -11.3940 C.ar   24  PHE24      -0.0042
     23  CE1       -9.2970   17.8290  -12.3650 C.ar   24  PHE24      -0.0003
     24  CE2       -7.0930   16.9040  -12.1790 C.ar   24  PHE24      -0.0003
     25  CZ        -7.9510   17.8750  -12.6780 C.ar   24  PHE24      -0.0000
     26  N        -10.3050   13.3300   -7.4660 N.am   25  PHE25      -0.1974
     27  CA       -10.4530   12.0360   -6.7840 C.3    25  PHE25       0.1639
     28  C        -11.3430   12.2080   -5.5170 C.2    25  PHE25       0.2290
     29  O        -11.4570   11.3160   -4.7200 O.2    25  PHE25      -0.2864
     30  CB        -9.0890   11.4670   -6.3890 C.3    25  PHE25       0.0560
     31  CG        -8.2960   10.9640   -7.5470 C.ar   25  PHE25      -0.0200
     32  CD1       -8.4730    9.6730   -8.0040 C.ar   25  PHE25      -0.0042
     33  CD2       -7.4280   11.7980   -8.2080 C.ar   25  PHE25      -0.0042
     34  CE1       -7.7570    9.2190   -9.1250 C.ar   25  PHE25      -0.0003
     35  CE2       -6.7040   11.3700   -9.3410 C.ar   25  PHE25      -0.0003
     36  CZ        -6.8710   10.0750   -9.7910 C.ar   25  PHE25      -0.0000
     37  N        -14.6710   12.8190   -4.9260 N.3    27  PHE27      -0.1241
     38  CA       -16.0040   12.2700   -4.8680 C.3    27  PHE27       0.1605
     39  C        -16.2330   11.3460   -6.0560 C.2    27  PHE27       0.2264
     40  O        -15.4790   11.3440   -7.0120 O.2    27  PHE27      -0.2867
     41  CB       -17.0610   13.4280   -4.8380 C.3    27  PHE27       0.0534
     42  CG       -17.0030   14.2350   -3.5650 C.ar   27  PHE27      -0.0203
     43  CD1      -17.5010   13.7450   -2.3640 C.ar   27  PHE27      -0.0042
     44  CD2      -16.3600   15.4820   -3.5640 C.ar   27  PHE27      -0.0042
     45  CE1      -17.3860   14.4500   -1.2120 C.ar   27  PHE27      -0.0003
     46  CE2      -16.2180   16.1770   -2.3860 C.ar   27  PHE27      -0.0003
     47  CZ       -16.7270   15.6740   -1.2250 C.ar   27  PHE27      -0.0000
     48  N        -16.8060    9.6390   -9.4510 N.3    29  VAL29      -0.1245
     49  CA       -16.8590   10.1370  -10.8150 C.3    29  VAL29       0.1561
     50  C        -18.2290    9.7270  -11.4060 C.2    29  VAL29       0.2260
     51  O        -18.6350    8.5770  -11.3380 O.2    29  VAL29      -0.2867
     52  CB       -15.7510    9.4520  -11.6720 C.3    29  VAL29       0.0252
     53  CG1      -15.9270    9.8190  -13.1690 C.3    29  VAL29       0.0019
     54  CG2      -14.3450    9.7760  -11.1280 C.3    29  VAL29       0.0019
     55  N        -21.7000   11.7290  -16.4170 N.3    32  ALA32      -0.1231
     56  CA       -21.8100   13.0820  -16.9380 C.3    32  ALA32       0.1694
     57  C        -20.4710   13.7650  -17.0480 C.2    32  ALA32       0.2592
     58  O        -20.2090   14.5040  -18.0100 O.2    32  ALA32      -0.2718
     59  CB       -22.7450   13.9170  -16.0830 C.3    32  ALA32       0.0304
     60  N        -19.5990   13.5280  -16.0560 N.am   33  ILE33      -0.1966
     61  CA       -18.2550   14.0630  -16.1210 C.3    33  ILE33       0.1727
     62  C        -17.3840   13.2340  -17.0690 C.2    33  ILE33       0.2616
     63  O        -16.5460   13.7880  -17.8180 O.2    33  ILE33      -0.2715
     64  CB       -17.5830   14.0630  -14.6730 C.3    33  ILE33       0.0290
     65  CG1      -18.2120   15.1640  -13.8020 C.3    33  ILE33       0.0022
     66  CG2      -16.0600   14.2510  -14.7450 C.3    33  ILE33       0.0023
     67  CD1      -18.0190   14.9670  -12.2870 C.3    33  ILE33       0.0001
     68  N        -17.4760   11.9160  -16.9390 N.am   34  ALA34      -0.1964
     69  CA       -16.5800   10.9830  -17.6210 C.3    34  ALA34       0.1713
     70  C        -17.4510    9.9640  -18.3690 C.2    34  ALA34       0.2458
     71  O        -17.8060    8.9130  -17.8900 O.2    34  ALA34      -0.2730
     72  CB       -15.5910   10.3030  -16.6360 C.3    34  ALA34       0.0333
     73  N        -17.7680   10.2800  -19.6360 N.am   35  PRO35      -0.2727
     74  CA       -18.6920    9.4220  -20.3600 C.3    35  PRO35       0.1402
     75  C        -18.3130    7.9390  -20.3390 C.2    35  PRO35       0.2269
     76  O        -17.1190    7.5620  -20.5650 O.2    35  PRO35      -0.2865
     77  CB       -18.6230    9.9810  -21.8080 C.3    35  PRO35       0.0296
     78  CG       -18.3570   11.4380  -21.6030 C.3    35  PRO35       0.0237
     79  CD       -17.4340   11.5010  -20.3900 C.3    35  PRO35       0.0939
     80  N        -18.1570    5.9560  -17.9690 N.3    37  TYR37      -0.1241
     81  CA       -17.2690    5.5470  -16.8630 C.3    37  TYR37       0.1605
     82  C        -17.7430    4.2220  -16.2230 C.2    37  TYR37       0.2264
     83  O        -16.9600    3.2560  -15.9810 O.2    37  TYR37      -0.2867
     84  CB       -17.1860    6.7020  -15.8180 C.3    37  TYR37       0.0534
     85  CG       -16.1410    6.4460  -14.7560 C.ar   37  TYR37      -0.0201
     86  CD1      -14.8230    6.8280  -14.9570 C.ar   37  TYR37      -0.0009
     87  CD2      -16.4710    5.8120  -13.5340 C.ar   37  TYR37      -0.0009
     88  CE1      -13.8340    6.5630  -14.0080 C.ar   37  TYR37       0.0417
     89  CE2      -15.5040    5.5780  -12.5640 C.ar   37  TYR37       0.0417
     90  CZ       -14.1970    5.9780  -12.7770 C.ar   37  TYR37       0.1957
     91  OH       -13.1700    5.7010  -11.8590 O.3    37  TYR37      -0.2866
     92  N         -8.5870    4.8500  -12.3360 N.3    76  ALA76      -0.1245
     93  CA        -8.2000    6.0100  -13.1400 C.3    76  ALA76       0.1562
     94  C         -7.2480    5.5370  -14.2600 C.2    76  ALA76       0.2260
     95  O         -7.3290    6.0270  -15.3780 O.2    76  ALA76      -0.2867
     96  CB        -7.5540    7.1090  -12.2930 C.3    76  ALA76       0.0290
     97  N         -9.7650    3.5040  -16.8140 N.3    79  TYR79      -0.1227
     98  CA       -10.6670    4.3220  -17.6520 C.3    79  TYR79       0.1736
     99  C         -9.9000    5.2450  -18.6240 C.2    79  TYR79       0.2595
    100  O        -10.2220    5.3550  -19.8280 O.2    79  TYR79      -0.2718
    101  CB       -11.6200    5.1430  -16.7620 C.3    79  TYR79       0.0548
    102  CG       -12.5110    6.0430  -17.5450 C.ar   79  TYR79      -0.0200
    103  CD1      -13.6990    5.5800  -18.1200 C.ar   79  TYR79      -0.0009
    104  CD2      -12.1840    7.3650  -17.7220 C.ar   79  TYR79      -0.0009
    105  CE1      -14.5290    6.4340  -18.8430 C.ar   79  TYR79       0.0417
    106  CE2      -12.9630    8.2090  -18.4780 C.ar   79  TYR79       0.0417
    107  CZ       -14.1390    7.7650  -19.0110 C.ar   79  TYR79       0.1957
    108  OH       -14.8880    8.7200  -19.6980 O.3    79  TYR79      -0.2866
    109  N         -8.8960    5.9350  -18.1020 N.am   80  ASN80      -0.1974
    110  CA        -8.1280    6.8850  -18.8880 C.3    80  ASN80       0.1688
    111  C         -6.9670    6.2630  -19.6470 C.2    80  ASN80       0.2292
    112  O         -6.3190    5.3420  -19.1700 O.2    80  ASN80      -0.2864
    113  CB        -7.5780    7.9560  -17.9690 C.3    80  ASN80       0.1181
    114  CG        -8.6780    8.6960  -17.2500 C.2    80  ASN80       0.2629
    115  OD1       -9.3040    9.5490  -17.8420 O.2    80  ASN80      -0.2716
    116  ND2       -8.9170    8.3740  -15.9720 N.am   80  ASN80      -0.0877
    117  N         -5.3670   12.5580  -15.7780 N.3    86  TYR86      -0.1241
    118  CA        -5.9460   11.6150  -14.7590 C.3    86  TYR86       0.1605
    119  C         -5.1230   10.3390  -14.6040 C.2    86  TYR86       0.2264
    120  O         -4.9050    9.8800  -13.4880 O.2    86  TYR86      -0.2867
    121  CB        -7.4240   11.3120  -15.0720 C.3    86  TYR86       0.0534
    122  CG        -8.1930   12.5590  -15.3480 C.ar   86  TYR86      -0.0201
    123  CD1       -8.4890   13.4470  -14.3240 C.ar   86  TYR86      -0.0009
    124  CD2       -8.6230   12.8690  -16.6390 C.ar   86  TYR86      -0.0009
    125  CE1       -9.1790   14.6310  -14.5650 C.ar   86  TYR86       0.0417
    126  CE2       -9.3290   14.0180  -16.8840 C.ar   86  TYR86       0.0417
    127  CZ        -9.5780   14.9090  -15.8680 C.ar   86  TYR86       0.1957
    128  OH       -10.2490   16.0350  -16.1640 O.3    86  TYR86      -0.2866
@<TRIPOS>BOND
     1    77    78    1
     2    77    74    1
     3    78    79    1
     4    76    75    2
     5    79    73    1
     6    74    75    1
     7    74    73    1
     8   100    99    2
     9   108   107    1
    10   111   112    2
    11   111   110    1
    12    73    70   am
    13   107   105   ar
    14   107   106   ar
    15   110   109    1
    16   110   113    1
    17   105   103   ar
    18    99   109   am
    19    99    98    1
    20   106   104   ar
    21    70    71    2
    22    70    69    1
    23   103   102   ar
    24    58    57    2
    25    80    81    1
    26   113   114    1
    27   115   114    2
    28    63    62    2
    29   104   102   ar
    30    98    97    1
    31    98   101    1
    32    69    68    1
    33    69    72    1
    34   102   101    1
    35   114   116   am
    36    62    68   am
    37    62    61    1
    38    57    56    1
    39    57    60   am
    40    56    55    1
    41    56    59    1
    42   126   124   ar
    43   126   127   ar
    44    81    82    1
    45    81    84    1
    46   124   122   ar
    47    82    83    2
    48   128   127    1
    49    61    60    1
    50    61    64    1
    51   127   125   ar
    52    84    85    1
    53   117   118    1
    54    95    94    2
    55   122   121    1
    56   122   123   ar
    57   121   118    1
    58    86    85   ar
    59    86    88   ar
    60   118   119    1
    61    85    87   ar
    62    66    64    1
    63    64    65    1
    64   119   120    2
    65   125   123   ar
    66    94    93    1
    67    88    90   ar
    68    65    67    1
    69    87    89   ar
    70    53    52    1
    71    93    92    1
    72    93    96    1
    73    90    89   ar
    74    90    91    1
    75    25    23   ar
    76    25    24   ar
    77    23    21   ar
    78    24    22   ar
    79    52    54    1
    80    52    49    1
    81    21    20   ar
    82    50    51    2
    83    50    49    1
    84    22    20   ar
    85     9    10   ar
    86     9     7   ar
    87    20    19    1
    88    10     8   ar
    89    49    48    1
    90     7     6   ar
    91     8     6   ar
    92     6     5    1
    93    19    16    1
    94    36    35   ar
    95    36    34   ar
    96     5     2    1
    97    35    33   ar
    98    16    17    1
    99    16    15    1
   100    34    32   ar
   101    18    17    2
   102    17    26   am
   103    15    13   am
   104     4     3    2
   105     2     3    1
   106     2     1    1
   107    33    31   ar
   108    32    31   ar
   109     3    11   am
   110    31    30    1
   111    26    27    1
   112    13    14    2
   113    13    12    1
   114    40    39    2
   115    11    12    1
   116    27    30    1
   117    27    28    1
   118    39    38    1
   119    28    29    2
   120    37    38    1
   121    38    41    1
   122    41    42    1
   123    42    44   ar
   124    42    43   ar
   125    44    46   ar
   126    46    47   ar
   127    43    45   ar
   128    47    45   ar
