@<TRIPOS>MOLECULE
tmp/4nr0D01.pdb
 149 141 0 0 0
SMALL
GASTEIGER

@<TRIPOS>ATOM
      1  N         30.8880   -8.6020  -15.9490 N.3    92  SER92      -0.1202
      2  CA        31.5590   -7.3900  -15.4890 C.3    92  SER92       0.2020
      3  C         31.6900   -6.4240  -16.6560 C.2    92  SER92       0.2619
      4  O         32.7920   -6.1200  -17.1100 O.2    92  SER92      -0.2717
      5  CB        32.9350   -7.7160  -14.9060 C.3    92  SER92       0.2103
      6  OG        33.5330   -6.5660  -14.3410 O.3    92  SER92      -0.2182
      7  N         30.5410   -5.9680  -17.1360 N.am   93  VAL93      -0.1965
      8  CA        30.4330   -5.1870  -18.3600 C.3    93  VAL93       0.1727
      9  C         29.5160   -3.9940  -18.1410 C.2    93  VAL93       0.2617
     10  O         28.4700   -4.1290  -17.5300 O.2    93  VAL93      -0.2715
     11  CB        29.8780   -6.0590  -19.5070 C.3    93  VAL93       0.0290
     12  CG1       29.3660   -5.2020  -20.6540 C.3    93  VAL93       0.0023
     13  CG2       30.9400   -7.0540  -19.9770 C.3    93  VAL93       0.0023
     14  N         29.9010   -2.8270  -18.6450 N.am   94  GLY94      -0.1940
     15  CA        29.0190   -1.6750  -18.6080 C.3    94  GLY94       0.2014
     16  C         29.3370   -0.7500  -19.7660 C.2    94  GLY94       0.2639
     17  O         30.4790   -0.7030  -20.2260 O.2    94  GLY94      -0.2714
     18  N         28.3270   -0.0310  -20.2460 N.am   95  PHE95      -0.1959
     19  CA        28.5400    1.0210  -21.2340 C.3    95  PHE95       0.1771
     20  C         27.3330    1.9330  -21.3570 C.2    95  PHE95       0.2619
     21  O         26.1840    1.4890  -21.2870 O.2    95  PHE95      -0.2715
     22  CB        28.8580    0.4470  -22.6180 C.3    95  PHE95       0.0574
     23  CG        29.0850    1.5060  -23.6730 C.ar   95  PHE95      -0.0200
     24  CD1       30.2830    2.2060  -23.7270 C.ar   95  PHE95      -0.0042
     25  CD2       28.1000    1.8040  -24.6060 C.ar   95  PHE95      -0.0042
     26  CE1       30.4980    3.1930  -24.6980 C.ar   95  PHE95      -0.0003
     27  CE2       28.3090    2.7900  -25.5780 C.ar   95  PHE95      -0.0003
     28  CZ        29.5120    3.4780  -25.6220 C.ar   95  PHE95      -0.0000
     29  N         27.6320    3.2130  -21.5520 N.am   96  ALA96      -0.1977
     30  CA        26.6770    4.2040  -22.0150 C.3    96  ALA96       0.1597
     31  C         27.4760    5.1760  -22.8740 C.2    96  ALA96       0.2287
     32  O         28.6680    5.3770  -22.6160 O.2    96  ALA96      -0.2864
     33  CB        26.0080    4.9180  -20.8460 C.3    96  ALA96       0.0319
     34  N         29.3470    8.2650  -24.0730 N.3    98  GLY98      -0.1225
     35  CA        30.0650    9.2390  -23.2730 C.3    98  GLY98       0.1811
     36  C         29.2890   10.4960  -22.9190 C.2    98  GLY98       0.2280
     37  O         29.3450   10.9490  -21.7770 O.2    98  GLY98      -0.2866
     38  N         27.0900   10.8910  -19.7350 N.3   101  LEU101     -0.1245
     39  CA        27.6670   10.9540  -18.3940 C.3   101  LEU101      0.1561
     40  C         28.4240   12.2550  -18.1460 C.2   101  LEU101      0.2260
     41  O         29.2990   12.3240  -17.2760 O.2   101  LEU101     -0.2867
     42  CB        28.5940    9.7590  -18.1680 C.3   101  LEU101      0.0270
     43  CG        27.9940    8.4040  -18.5630 C.3   101  LEU101      0.0019
     44  CD1       28.9460    7.2690  -18.1960 C.3   101  LEU101      0.0001
     45  CD2       26.6350    8.1960  -17.9090 C.3   101  LEU101      0.0001
     46  N         26.7670   -0.5500   -8.8230 N.3   148  TYR148     -0.1241
     47  CA        27.2950    0.6410   -8.1780 C.3   148  TYR148      0.1605
     48  C         26.1920    1.3740   -7.4120 C.2   148  TYR148      0.2264
     49  O         25.0280    1.3630   -7.8220 O.2   148  TYR148     -0.2867
     50  CB        27.9350    1.5830   -9.2150 C.3   148  TYR148      0.0534
     51  CG        28.5160    2.8260   -8.5870 C.ar  148  TYR148     -0.0201
     52  CD1       29.4740    2.7290   -7.5790 C.ar  148  TYR148     -0.0009
     53  CD2       28.0980    4.0970   -8.9830 C.ar  148  TYR148     -0.0009
     54  CE1       30.0030    3.8610   -6.9840 C.ar  148  TYR148      0.0417
     55  CE2       28.6280    5.2320   -8.4000 C.ar  148  TYR148      0.0417
     56  CZ        29.5740    5.1120   -7.3980 C.ar  148  TYR148      0.1957
     57  OH        30.1000    6.2430   -6.8090 O.3   148  TYR148     -0.2866
     58  N         26.8950   10.3580  -13.0790 N.3   158  TYR158     -0.1241
     59  CA        26.6180    8.9290  -13.2680 C.3   158  TYR158      0.1605
     60  C         25.3300    8.7560  -14.0920 C.2   158  TYR158      0.2264
     61  O         25.2240    7.8460  -14.9230 O.2   158  TYR158     -0.2867
     62  CB        26.5090    8.1800  -11.9350 C.3   158  TYR158      0.0534
     63  CG        26.7240    6.6770  -12.0950 C.ar  158  TYR158     -0.0201
     64  CD1       27.9260    6.1840  -12.5800 C.ar  158  TYR158     -0.0009
     65  CD2       25.7340    5.7650  -11.7440 C.ar  158  TYR158     -0.0009
     66  CE1       28.1340    4.8110  -12.7450 C.ar  158  TYR158      0.0417
     67  CE2       25.9290    4.3900  -11.8980 C.ar  158  TYR158      0.0417
     68  CZ        27.1340    3.9220  -12.3910 C.ar  158  TYR158      0.1957
     69  OH        27.3430    2.5610  -12.5390 O.3   158  TYR158     -0.2866
     70  N         23.4440    5.7770  -16.2450 N.3   161  MET161     -0.1245
     71  CA        24.0130    4.5020  -15.7700 C.3   161  MET161      0.1570
     72  C         23.3800    4.1140  -14.4310 C.2   161  MET161      0.2261
     73  O         23.3100    2.9360  -14.0790 O.2   161  MET161     -0.2867
     74  CB        25.5370    4.5770  -15.6180 C.3   161  MET161      0.0387
     75  CG        26.3170    4.3640  -16.9190 C.3   161  MET161      0.0595
     76  SD        26.1250    2.6850  -17.5930 S.3   161  MET161     -0.1393
     77  CE        26.8580    1.7190  -16.2930 C.3   161  MET161      0.0692
     78  N         21.8130    0.5110  -13.7250 N.3   165  LYS165     -0.1245
     79  CA        22.2510   -0.3350  -12.6200 C.3   165  LYS165      0.1561
     80  C         21.0660   -0.7500  -11.7460 C.2   165  LYS165      0.2260
     81  O         21.0190   -1.8800  -11.2650 O.2   165  LYS165     -0.2867
     82  CB        23.3140    0.3610  -11.7660 C.3   165  LYS165      0.0271
     83  CG        24.7030    0.4870  -12.4170 C.3   165  LYS165      0.0035
     84  CD        25.2690   -0.8450  -12.8950 C.3   165  LYS165      0.0206
     85  CE        26.7730   -0.7490  -13.1350 C.3   165  LYS165      0.1093
     86  NZ        27.3410   -2.0460  -13.6530 N.3   165  LYS165     -0.1314
     87  N         32.8380   -0.0810   -4.5320 N.3   192  GLY192     -0.1210
     88  CA        33.2230    1.3120   -4.3960 C.3   192  GLY192      0.1940
     89  C         34.0360    1.7170   -5.6160 C.2   192  GLY192      0.2454
     90  O         34.3860    0.8660   -6.4360 O.2   192  GLY192     -0.2732
     91  N         34.3400    3.0170   -5.7540 N.am  193  PRO193     -0.2717
     92  CA        35.0500    3.4690   -6.9550 C.3   193  PRO193      0.1535
     93  C         36.4760    2.9420   -7.0480 C.2   193  PRO193      0.2598
     94  O         37.2010    2.9300   -6.0580 O.2   193  PRO193     -0.2715
     95  CB        35.0420    5.0040   -6.8250 C.3   193  PRO193      0.0310
     96  CG        34.7820    5.2800   -5.3980 C.3   193  PRO193      0.0237
     97  CD        33.9430    4.1380   -4.8850 C.3   193  PRO193      0.0939
     98  N         36.8510    2.5170   -8.2520 N.am  194  ILE194     -0.1978
     99  CA        38.1630    1.9480   -8.5430 C.3   194  ILE194      0.1596
    100  C         38.6630    2.4940   -9.8830 C.2   194  ILE194      0.2287
    101  O         37.9090    2.5420  -10.8550 O.2   194  ILE194     -0.2864
    102  CB        38.1100    0.4010   -8.6050 C.3   194  ILE194      0.0276
    103  CG1       37.7590   -0.1700   -7.2340 C.3   194  ILE194      0.0022
    104  CG2       39.4340   -0.1770   -9.1090 C.3   194  ILE194      0.0022
    105  CD1       37.5690   -1.6590   -7.2200 C.3   194  ILE194      0.0001
    106  N         39.6780    2.3390  -13.1510 N.3   196  THR196     -0.1218
    107  CA        39.6880    1.4110  -14.2730 C.3   196  THR196      0.1862
    108  C         39.5940    2.2220  -15.5610 C.2   196  THR196      0.2287
    109  O         39.4390    3.4370  -15.5090 O.2   196  THR196     -0.2866
    110  CB        38.5140    0.4250  -14.1970 C.3   196  THR196      0.1770
    111  OG1       37.2880    1.1580  -14.3110 O.3   196  THR196     -0.2211
    112  CG2       38.5310   -0.3500  -12.8590 C.3   196  THR196      0.0375
    113  N         37.1130    2.2740  -17.8550 N.3   198  ALA198     -0.1231
    114  CA        35.7840    2.8760  -17.9200 C.3   198  ALA198      0.1694
    115  C         35.6350    4.0360  -16.9320 C.2   198  ALA198      0.2591
    116  O         35.0780    5.0890  -17.2720 O.2   198  ALA198     -0.2718
    117  CB        34.7170    1.8230  -17.6550 C.3   198  ALA198      0.0304
    118  N         36.1440    3.8370  -15.7190 N.am  199  ALA199     -0.1980
    119  CA        36.0330    4.8360  -14.6500 C.3   199  ALA199      0.1597
    120  C         36.7470    6.1230  -15.0250 C.2   199  ALA199      0.2287
    121  O         36.2830    7.2160  -14.6980 O.2   199  ALA199     -0.2864
    122  CB        36.5950    4.2970  -13.3410 C.3   199  ALA199      0.0319
    123  N         34.8130    8.8250  -16.8360 N.3   202  ILE202     -0.1245
    124  CA        33.8700    9.6660  -16.1010 C.3   202  ILE202      0.1561
    125  C         34.5490   10.9230  -15.5800 C.2   202  ILE202      0.2260
    126  O         35.4540   10.8380  -14.7550 O.2   202  ILE202     -0.2867
    127  CB        33.2460    8.9150  -14.9010 C.3   202  ILE202      0.0252
    128  CG1       32.5580    7.6300  -15.3650 C.3   202  ILE202      0.0019
    129  CG2       32.2720    9.8160  -14.1520 C.3   202  ILE202      0.0019
    130  CD1       31.9840    6.8190  -14.2330 C.3   202  ILE202      0.0001
    131  N         35.5870   11.7030  -11.8160 N.3   205  PHE205     -0.1241
    132  CA        35.8060   10.4290  -11.1400 C.3   205  PHE205      0.1605
    133  C         36.8020   10.6120  -10.0110 C.2   205  PHE205      0.2264
    134  O         36.6500   10.0080   -8.9470 O.2   205  PHE205     -0.2867
    135  CB        36.3090    9.3330  -12.0800 C.3   205  PHE205      0.0534
    136  CG        36.6500    8.0520  -11.3600 C.ar  205  PHE205     -0.0203
    137  CD1       35.6460    7.2290  -10.8780 C.ar  205  PHE205     -0.0042
    138  CD2       37.9680    7.6920  -11.1340 C.ar  205  PHE205     -0.0042
    139  CE1       35.9520    6.0540  -10.1950 C.ar  205  PHE205     -0.0003
    140  CE2       38.2820    6.5190  -10.4560 C.ar  205  PHE205     -0.0003
    141  CZ        37.2760    5.7030   -9.9850 C.ar  205  PHE205     -0.0000
    142  N         34.9650   11.5020   -7.0050 N.3   208  MET208     -0.1245
    143  CA        34.3440   10.3130   -6.4230 C.3   208  MET208      0.1570
    144  C         35.3500    9.5150   -5.5890 C.2   208  MET208      0.2261
    145  O         35.0290    9.0630   -4.4860 O.2   208  MET208     -0.2867
    146  CB        33.7490    9.4240   -7.5150 C.3   208  MET208      0.0387
    147  CG        32.5240   10.0140   -8.2020 C.3   208  MET208      0.0595
    148  SD        32.1180    9.1550   -9.7410 S.3   208  MET208     -0.1393
    149  CE        30.7590    8.1130   -9.2250 C.3   208  MET208      0.0692
@<TRIPOS>BOND
     1    28    27   ar
     2    28    26   ar
     3    27    25   ar
     4    26    24   ar
     5    25    23   ar
     6    34    35    1
     7    24    23   ar
     8    23    22    1
     9    35    36    1
    10    36    37    2
    11    31    32    2
    12    31    30    1
    13    22    19    1
    14    30    29    1
    15    30    33    1
    16    29    20   am
    17    20    21    2
    18    20    19    1
    19    19    18    1
    20    12    11    1
    21    18    16   am
    22    17    16    2
    23    13    11    1
    24    16    15    1
    25    38    39    1
    26    11     8    1
    27    14    15    1
    28    14     9   am
    29    43    44    1
    30    43    42    1
    31    43    45    1
    32    39    42    1
    33    39    40    1
    34     8     9    1
    35     8     7    1
    36    40    41    2
    37     9    10    2
    38   114   113    1
    39   114   117    1
    40   114   115    1
    41    76    75    1
    42    76    77    1
    43   116   115    2
    44     7     3   am
    45     4     3    2
    46   115   118   am
    47    75    74    1
    48   123   124    1
    49     3     2    1
    50    70    71    1
    51   124   125    1
    52   124   127    1
    53     1     2    1
    54    71    74    1
    55    71    72    1
    56   118   119    1
    57   125   126    2
    58   108   109    2
    59   108   107    1
    60     2     5    1
    61   128   127    1
    62   128   130    1
    63   120   121    2
    64   120   119    1
    65    61    60    2
    66     5     6    1
    67   127   129    1
    68   119   122    1
    69    72    73    2
    70   111   110    1
    71   107   110    1
    72   107   106    1
    73   110   112    1
    74    60    59    1
    75    78    79    1
    76    86    85    1
    77    59    58    1
    78    59    62    1
    79    85    84    1
    80    84    83    1
    81    66    64   ar
    82    66    68   ar
    83    79    82    1
    84    79    80    1
    85    64    63   ar
    86    69    68    1
    87    83    82    1
    88    68    67   ar
    89    63    62    1
    90    63    65   ar
    91   135   136    1
    92   135   132    1
    93    67    65   ar
    94   131   132    1
    95    80    81    2
    96   136   138   ar
    97   136   137   ar
    98   132   133    1
    99   138   140   ar
   100   137   139   ar
   101   101   100    2
   102   140   141   ar
   103   139   141   ar
   104   133   134    2
   105   100    99    1
   106   148   149    1
   107   148   147    1
   108    50    51    1
   109    50    47    1
   110   104   102    1
   111    53    51   ar
   112    53    55   ar
   113    46    47    1
   114   102    99    1
   115   102   103    1
   116    51    52   ar
   117    99    98    1
   118    55    56   ar
   119    98    93   am
   120   147   146    1
   121    47    48    1
   122    49    48    2
   123    52    54   ar
   124   146   143    1
   125    56    54   ar
   126    56    57    1
   127   103   105    1
   128    93    92    1
   129    93    94    2
   130   142   143    1
   131    92    95    1
   132    92    91    1
   133    95    96    1
   134    90    89    2
   135   143   144    1
   136    91    89   am
   137    91    97    1
   138    89    88    1
   139   144   145    2
   140    96    97    1
   141    87    88    1
