@<TRIPOS>MOLECULE
tmp/4nr4B00.pdb
 138 135 0 0 0
SMALL
GASTEIGER

@<TRIPOS>ATOM
      1  N          2.0730   37.9390   32.0840 N.3    21  PRO21      -0.2116
      2  CA         3.2730   38.7670   32.3110 C.3    21  PRO21       0.1372
      3  C          4.0790   38.4730   33.5780 C.2    21  PRO21       0.2244
      4  O          5.1220   39.1130   33.8030 O.2    21  PRO21      -0.2868
      5  CB         2.6650   40.1600   32.4330 C.3    21  PRO21       0.0268
      6  CG         1.3240   39.9190   33.0860 C.3    21  PRO21       0.0207
      7  CD         0.8390   38.6930   32.3890 C.3    21  PRO21       0.0892
      8  N          7.8530   38.0440   33.8290 N.3    24  LEU24      -0.1231
      9  CA         8.7650   38.8930   33.0290 C.3    24  LEU24       0.1678
     10  C          9.7850   39.6740   33.8710 C.2    24  LEU24       0.2434
     11  O         10.9640   39.7410   33.5010 O.2    24  LEU24      -0.2733
     12  CB         7.9940   39.7910   32.0670 C.3    24  LEU24       0.0284
     13  CG         7.1490   39.0860   31.0300 C.3    24  LEU24       0.0019
     14  CD1        6.2210   40.1200   30.3150 C.3    24  LEU24       0.0001
     15  CD2        8.0210   38.3810   30.0140 C.3    24  LEU24       0.0001
     16  N          9.3750   40.2430   35.0230 N.am   25  PRO25      -0.2718
     17  CA        10.3780   40.9220   35.8680 C.3    25  PRO25       0.1535
     18  C         11.4260   39.9970   36.4900 C.2    25  PRO25       0.2598
     19  O         12.4010   40.4740   37.0420 O.2    25  PRO25      -0.2715
     20  CB         9.5400   41.5720   36.9670 C.3    25  PRO25       0.0310
     21  CG         8.1780   41.8070   36.3290 C.3    25  PRO25       0.0237
     22  CD         8.0040   40.5250   35.5050 C.3    25  PRO25       0.0939
     23  N         11.1310   38.7040   36.5140 N.am   26  PHE26      -0.1974
     24  CA        11.9360   37.6900   37.1940 C.3    26  PHE26       0.1639
     25  C         12.8530   36.9090   36.2450 C.2    26  PHE26       0.2290
     26  O         13.6320   36.0640   36.6910 O.2    26  PHE26      -0.2864
     27  CB        10.9850   36.6980   37.8750 C.3    26  PHE26       0.0560
     28  CG        10.1790   37.3020   38.9850 C.ar   26  PHE26      -0.0200
     29  CD1       10.6680   37.3110   40.2870 C.ar   26  PHE26      -0.0042
     30  CD2        8.9600   37.9160   38.7100 C.ar   26  PHE26      -0.0042
     31  CE1        9.9090   37.8780   41.3100 C.ar   26  PHE26      -0.0003
     32  CE2        8.1920   38.4820   39.7430 C.ar   26  PHE26      -0.0003
     33  CZ         8.6700   38.4850   41.0220 C.ar   26  PHE26      -0.0000
     34  N         15.4510   37.8860   34.6120 N.3    28  GLN28      -0.1231
     35  CA        16.8140   38.3830   34.6050 C.3    28  GLN28       0.1683
     36  C         17.0770   38.9920   35.9580 C.2    28  GLN28       0.2434
     37  O         16.1250   39.3770   36.6750 O.2    28  GLN28      -0.2733
     38  CB        16.9920   39.3840   33.4820 C.3    28  GLN28       0.0380
     39  CG        16.1250   40.5750   33.6280 C.3    28  GLN28       0.0905
     40  CD        14.6810   40.2990   33.2380 C.2    28  GLN28       0.2608
     41  OE1       14.4330   39.6850   32.1860 O.2    28  GLN28      -0.2717
     42  NE2       13.7230   40.7880   34.0500 N.am   28  GLN28      -0.0878
     43  N         18.3530   39.1530   36.3090 N.am   29  PRO29      -0.2718
     44  CA        18.6100   39.8000   37.5740 C.3    29  PRO29       0.1535
     45  C         18.0720   41.2260   37.6360 C.2    29  PRO29       0.2598
     46  O         18.0640   41.9460   36.6290 O.2    29  PRO29      -0.2715
     47  CB        20.1200   39.7880   37.6640 C.3    29  PRO29       0.0310
     48  CG        20.5640   38.6360   36.7940 C.3    29  PRO29       0.0237
     49  CD        19.5990   38.7640   35.6300 C.3    29  PRO29       0.0939
     50  N         17.6600   41.6150   38.8310 N.am   30  VAL30      -0.1978
     51  CA        17.2990   43.0120   39.0740 C.3    30  VAL30       0.1596
     52  C         18.5130   43.8990   38.8200 C.2    30  VAL30       0.2287
     53  O         19.6160   43.6730   39.3760 O.2    30  VAL30      -0.2864
     54  CB        16.7390   43.2470   40.5100 C.3    30  VAL30       0.0276
     55  CG1       16.4650   44.7630   40.7890 C.3    30  VAL30       0.0022
     56  CG2       15.4830   42.3420   40.7610 C.3    30  VAL30       0.0022
     57  N         16.6460   50.2390   36.3810 N.3    35  LEU35      -0.1245
     58  CA        15.3240   50.4110   36.9860 C.3    35  LEU35       0.1561
     59  C         15.1590   51.6660   37.8580 C.2    35  LEU35       0.2260
     60  O         14.0410   51.9800   38.2650 O.2    35  LEU35      -0.2867
     61  CB        14.9450   49.1670   37.8100 C.3    35  LEU35       0.0270
     62  CG        14.7890   47.8600   37.0740 C.3    35  LEU35       0.0019
     63  CD1       14.6510   46.6840   38.0330 C.3    35  LEU35       0.0001
     64  CD2       13.5610   47.8460   36.1400 C.3    35  LEU35       0.0001
     65  N         16.3120   52.3710   40.9930 N.3    37  ILE37      -0.1245
     66  CA        15.9680   51.9940   42.3740 C.3    37  ILE37       0.1561
     67  C         17.2240   51.7870   43.2070 C.2    37  ILE37       0.2260
     68  O         17.6760   50.6570   43.4940 O.2    37  ILE37      -0.2867
     69  CB        15.0510   50.7570   42.3960 C.3    37  ILE37       0.0252
     70  CG1       15.6470   49.6080   41.5940 C.3    37  ILE37       0.0019
     71  CG2       13.6650   51.1330   41.8820 C.3    37  ILE37       0.0019
     72  CD1       14.8200   48.2690   41.6570 C.3    37  ILE37       0.0001
     73  N         17.8160   49.1770   46.1720 N.3    40  TYR40      -0.1241
     74  CA        17.4350   47.7540   46.0210 C.3    40  TYR40       0.1605
     75  C         18.3560   46.8220   46.8650 C.2    40  TYR40       0.2264
     76  O         17.8600   45.9920   47.6460 O.2    40  TYR40      -0.2867
     77  CB        17.4160   47.3260   44.5390 C.3    40  TYR40       0.0534
     78  CG        16.9780   45.8940   44.4190 C.ar   40  TYR40      -0.0201
     79  CD1       17.9060   44.8740   44.1680 C.ar   40  TYR40      -0.0009
     80  CD2       15.6580   45.5420   44.5940 C.ar   40  TYR40      -0.0009
     81  CE1       17.5200   43.5630   44.1130 C.ar   40  TYR40       0.0417
     82  CE2       15.2410   44.2320   44.5430 C.ar   40  TYR40       0.0417
     83  CZ        16.1830   43.2240   44.3120 C.ar   40  TYR40       0.1957
     84  OH        15.8110   41.9010   44.2720 O.3    40  TYR40      -0.2866
     85  N         11.2810   39.5770   46.4360 N.3    79  ALA79      -0.1245
     86  CA        10.3330   40.4420   45.7500 C.3    79  ALA79       0.1562
     87  C          9.2340   40.8970   46.6870 C.2    79  ALA79       0.2260
     88  O          8.7630   42.0410   46.6040 O.2    79  ALA79      -0.2867
     89  CB         9.7600   39.7380   44.5110 C.3    79  ALA79       0.0290
     90  N         10.9430   43.6610   49.0110 N.3    82  TYR82      -0.1227
     91  CA        11.2920   44.9490   48.4010 C.3    82  TYR82       0.1736
     92  C         10.0930   45.7110   47.8640 C.2    82  TYR82       0.2595
     93  O          9.9500   46.9200   48.0860 O.2    82  TYR82      -0.2718
     94  CB        12.3600   44.8140   47.3090 C.3    82  TYR82       0.0548
     95  CG        12.6800   46.1570   46.7400 C.ar   82  TYR82      -0.0200
     96  CD1       13.5300   47.0200   47.4390 C.ar   82  TYR82      -0.0009
     97  CD2       12.1350   46.5930   45.5480 C.ar   82  TYR82      -0.0009
     98  CE1       13.7980   48.2920   46.9780 C.ar   82  TYR82       0.0417
     99  CE2       12.3870   47.8850   45.0890 C.ar   82  TYR82       0.0417
    100  CZ        13.2370   48.7130   45.7930 C.ar   82  TYR82       0.1957
    101  OH        13.4740   50.0000   45.3330 O.3    82  TYR82      -0.2866
    102  N          9.2560   45.0250   47.0790 N.am   83  ASN83      -0.1974
    103  CA         8.1490   45.6990   46.3950 C.3    83  ASN83       0.1688
    104  C          6.9830   45.8970   47.3610 C.2    83  ASN83       0.2292
    105  O          6.7480   45.0960   48.2720 O.2    83  ASN83      -0.2864
    106  CB         7.6790   44.8740   45.1710 C.3    83  ASN83       0.1181
    107  CG         8.8000   44.6570   44.1560 C.2    83  ASN83       0.2629
    108  OD1        9.0760   45.5420   43.3640 O.2    83  ASN83      -0.2716
    109  ND2        9.4730   43.4930   44.2140 N.am   83  ASN83      -0.0877
    110  N          2.4770   45.9720   41.1350 N.3    88  ARG88      -0.1231
    111  CA         2.2210   44.8560   40.2370 C.3    88  ARG88       0.1694
    112  C          3.2560   43.7500   40.3970 C.2    88  ARG88       0.2591
    113  O          2.9050   42.6080   40.3430 O.2    88  ARG88      -0.2718
    114  CB         2.0480   45.2430   38.7920 C.3    88  ARG88       0.0321
    115  CG         3.2410   45.6820   38.1220 C.3    88  ARG88       0.0489
    116  CD         3.0780   45.7190   36.5830 C.3    88  ARG88       0.2205
    117  NE         4.1440   46.5780   36.1310 N.pl3  88  ARG88      -0.0865
    118  CZ         4.2170   47.1610   34.9370 C.cat  88  ARG88       0.5346
    119  NH1        5.2340   47.9730   34.6790 N.pl3  88  ARG88       0.1354
    120  NH2        3.2970   46.9480   34.0340 N.pl3  88  ARG88       0.1354
    121  N          4.4970   44.0880   40.6880 N.am   89  VAL89      -0.1980
    122  CA         5.5340   43.0330   40.8310 C.3    89  VAL89       0.1595
    123  C          5.2780   42.1930   42.0720 C.2    89  VAL89       0.2287
    124  O          5.4670   40.9950   42.0500 O.2    89  VAL89      -0.2864
    125  CB         6.9560   43.6140   40.7610 C.3    89  VAL89       0.0276
    126  CG1        8.0380   42.5390   41.0470 C.3    89  VAL89       0.0022
    127  CG2        7.1740   44.2220   39.3990 C.3    89  VAL89       0.0022
    128  N          2.5540   39.8890   41.0120 N.3    92  PHE92      -0.1241
    129  CA         3.1580   38.9060   40.0990 C.3    92  PHE92       0.1605
    130  C          3.8600   37.7880   40.8860 C.2    92  PHE92       0.2264
    131  O          3.7140   36.5830   40.5950 O.2    92  PHE92      -0.2867
    132  CB         4.2440   39.5520   39.2320 C.3    92  PHE92       0.0534
    133  CG         3.7870   40.4050   38.0810 C.ar   92  PHE92      -0.0203
    134  CD1        2.4850   40.7710   37.8470 C.ar   92  PHE92      -0.0042
    135  CD2        4.7680   40.8550   37.2100 C.ar   92  PHE92      -0.0042
    136  CE1        2.1500   41.5970   36.7580 C.ar   92  PHE92      -0.0003
    137  CE2        4.4620   41.6280   36.1010 C.ar   92  PHE92      -0.0003
    138  CZ         3.1490   42.0330   35.8820 C.ar   92  PHE92      -0.0000
@<TRIPOS>BOND
     1    15    13    1
     2    14    13    1
     3    13    12    1
     4    12     9    1
     5     1     2    1
     6     1     7    1
     7    41    40    2
     8     2     5    1
     9     2     3    1
    10     7     6    1
    11     5     6    1
    12     9     8    1
    13     9    10    1
    14    40    39    1
    15    40    42   am
    16    38    39    1
    17    38    35    1
    18    11    10    2
    19     3     4    2
    20    10    16   am
    21   120   118    1
    22    35    34    1
    23    35    36    1
    24   119   118    1
    25   118   117    2
    26    16    22    1
    27    16    17    1
    28    22    21    1
    29    49    43    1
    30    49    48    1
    31    17    18    1
    32    17    20    1
    33   138   137   ar
    34   138   136   ar
    35    36    43   am
    36    36    37    2
    37   137   135   ar
    38   117   116    1
    39    64    62    1
    40    25    26    2
    41    25    24    1
    42    43    44    1
    43    21    20    1
    44    57    58    1
    45    18    23   am
    46    18    19    2
    47    23    24    1
    48   116   115    1
    49    46    45    2
    50   136   134   ar
    51    48    47    1
    52    58    61    1
    53    58    59    1
    54    62    61    1
    55    62    63    1
    56    24    27    1
    57   135   133   ar
    58    44    45    1
    59    44    47    1
    60    45    50   am
    61   134   133   ar
    62    59    60    2
    63    27    28    1
    64   133   132    1
    65   115   114    1
    66    30    28   ar
    67    30    32   ar
    68   114   111    1
    69    52    51    1
    70    52    53    2
    71    50    51    1
    72    28    29   ar
    73    51    54    1
    74   132   129    1
    75   127   125    1
    76    32    33   ar
    77   129   130    1
    78   129   128    1
    79   111   112    1
    80   111   110    1
    81    29    31   ar
    82   113   112    2
    83   112   121   am
    84    54    56    1
    85    54    55    1
    86   131   130    2
    87   121   122    1
    88   125   122    1
    89   125   126    1
    90   122   123    1
    91    65    66    1
    92    33    31   ar
    93    70    72    1
    94    70    69    1
    95    71    69    1
    96   124   123    2
    97    66    69    1
    98    66    67    1
    99    67    68    2
   100   108   107    2
   101    81    79   ar
   102    81    83   ar
   103   107   109   am
   104   107   106    1
   105    79    78   ar
   106    84    83    1
   107    83    82   ar
   108    78    77    1
   109    78    80   ar
   110    89    86    1
   111    77    74    1
   112    82    80   ar
   113    99    97   ar
   114    99   100   ar
   115   106   103    1
   116   101   100    1
   117    97    95   ar
   118    86    85    1
   119    86    87    1
   120   100    98   ar
   121    74    73    1
   122    74    75    1
   123   103   102    1
   124   103   104    1
   125    88    87    2
   126    95    94    1
   127    95    96   ar
   128    75    76    2
   129    98    96   ar
   130   102    92   am
   131    94    91    1
   132   104   105    2
   133    92    93    2
   134    92    91    1
   135    91    90    1
