@<TRIPOS>MOLECULE
tmp/4nr5A00.pdb
 132 128 0 0 0
SMALL
GASTEIGER

@<TRIPOS>ATOM
      1  N         -0.9950   17.0890   36.5100 N.3    27  LEU27      -0.1231
      2  CA         0.3500   17.2960   35.9590 C.3    27  LEU27       0.1678
      3  C          0.3290   18.1250   34.6510 C.2    27  LEU27       0.2434
      4  O          1.1050   19.0430   34.5030 O.2    27  LEU27      -0.2733
      5  CB         1.0960   15.9800   35.7850 C.3    27  LEU27       0.0284
      6  CG         1.3490   15.1570   37.0790 C.3    27  LEU27       0.0019
      7  CD1        2.1120   13.8550   36.8530 C.3    27  LEU27       0.0001
      8  CD2        2.0950   16.0150   38.0510 C.3    27  LEU27       0.0001
      9  N         -0.5980   17.8320   33.7250 N.am   28  PRO28      -0.2718
     10  CA        -0.6530   18.6850   32.5330 C.3    28  PRO28       0.1535
     11  C         -1.1090   20.1360   32.7490 C.2    28  PRO28       0.2599
     12  O         -0.9790   20.9400   31.8410 O.2    28  PRO28      -0.2715
     13  CB        -1.6690   17.9490   31.6300 C.3    28  PRO28       0.0310
     14  CG        -1.7150   16.5100   32.1330 C.3    28  PRO28       0.0237
     15  CD        -1.4990   16.6440   33.6180 C.3    28  PRO28       0.0939
     16  N         -1.6890   20.4390   33.9200 N.am   29  PHE29      -0.1960
     17  CA        -2.3190   21.7040   34.2220 C.3    29  PHE29       0.1771
     18  C         -1.4720   22.6070   35.1070 C.2    29  PHE29       0.2619
     19  O         -1.8730   23.7440   35.4130 O.2    29  PHE29      -0.2715
     20  CB        -3.7190   21.4350   34.8610 C.3    29  PHE29       0.0574
     21  CG        -4.6540   20.7030   33.9320 C.ar   29  PHE29      -0.0200
     22  CD1       -5.4790   21.4280   33.0560 C.ar   29  PHE29      -0.0042
     23  CD2       -4.7030   19.2840   33.8920 C.ar   29  PHE29      -0.0042
     24  CE1       -6.3000   20.7620   32.1600 C.ar   29  PHE29      -0.0003
     25  CE2       -5.5520   18.6240   32.9990 C.ar   29  PHE29      -0.0003
     26  CZ        -6.3390   19.3520   32.1370 C.ar   29  PHE29      -0.0000
     27  N         -0.2960   22.1240   35.5260 N.am   30  ARG30      -0.1963
     28  CA         0.4860   22.8650   36.5210 C.3    30  ARG30       0.1729
     29  C          1.2210   24.0860   35.9380 C.2    30  ARG30       0.2616
     30  O          1.4990   25.0600   36.6430 O.2    30  ARG30      -0.2715
     31  CB         1.4220   21.8920   37.2400 C.3    30  ARG30       0.0348
     32  CG         0.7100   21.0270   38.2690 C.3    30  ARG30       0.0492
     33  CD         1.6690   20.1040   38.9630 C.3    30  ARG30       0.2205
     34  NE         0.9890   19.2300   39.8670 N.pl3  30  ARG30      -0.0865
     35  CZ         1.6030   18.3610   40.6680 C.cat  30  ARG30       0.5346
     36  NH1        2.9250   18.2750   40.6720 N.pl3  30  ARG30       0.1354
     37  NH2        0.9010   17.5950   41.4710 N.pl3  30  ARG30       0.1354
     38  N          1.5480   24.0460   34.6560 N.am   31  GLN31      -0.1977
     39  CA         2.1930   25.1250   33.9460 C.3    31  GLN31       0.1601
     40  C          1.4430   25.4480   32.6260 C.2    31  GLN31       0.2287
     41  O          0.6750   24.6330   32.1390 O.2    31  GLN31      -0.2864
     42  CB         3.6090   24.7030   33.5970 C.3    31  GLN31       0.0394
     43  CG         4.4820   24.5970   34.8300 C.3    31  GLN31       0.0908
     44  CD         4.8060   25.9690   35.3950 C.2    31  GLN31       0.2608
     45  OE1        4.8370   26.1710   36.6230 O.2    31  GLN31      -0.2717
     46  NE2        5.0540   26.9270   34.5060 N.am   31  GLN31      -0.0878
     47  N          0.3030   25.6150   28.9020 N.3    33  VAL33      -0.1245
     48  CA         0.5060   24.8410   27.7160 C.3    33  VAL33       0.1561
     49  C          1.5310   25.5530   26.8300 C.2    33  VAL33       0.2260
     50  O          1.4040   26.7740   26.5440 O.2    33  VAL33      -0.2867
     51  CB        -0.8070   24.6440   26.9450 C.3    33  VAL33       0.0252
     52  CG1       -0.5140   24.0020   25.6040 C.3    33  VAL33       0.0019
     53  CG2       -1.8430   23.8160   27.7740 C.3    33  VAL33       0.0019
     54  N          6.6790   22.7100   22.7870 N.3    37  LEU37      -0.1231
     55  CA         7.0380   21.4660   23.5080 C.3    37  LEU37       0.1693
     56  C          6.1430   20.2890   23.2390 C.2    37  LEU37       0.2591
     57  O          6.6120   19.1410   23.2610 O.2    37  LEU37      -0.2718
     58  CB         7.0730   21.6610   25.0340 C.3    37  LEU37       0.0284
     59  CG         8.1170   22.5970   25.5930 C.3    37  LEU37       0.0019
     60  CD1        8.1330   22.5710   27.1040 C.3    37  LEU37       0.0001
     61  CD2        9.4970   22.2510   25.0580 C.3    37  LEU37       0.0001
     62  N          4.8560   20.5590   23.0410 N.am   38  LEU38      -0.1980
     63  CA         3.8890   19.5330   22.8520 C.3    38  LEU38       0.1596
     64  C          3.6600   19.2120   21.3870 C.2    38  LEU38       0.2287
     65  O          2.9390   18.2790   21.0890 O.2    38  LEU38      -0.2864
     66  CB         2.5530   19.9280   23.5520 C.3    38  LEU38       0.0297
     67  CG         2.6800   20.1740   25.0550 C.3    38  LEU38       0.0022
     68  CD1        1.3890   20.6120   25.7630 C.3    38  LEU38       0.0001
     69  CD2        3.2800   19.0360   25.8500 C.3    38  LEU38       0.0001
     70  N          2.0670   21.0070   18.9300 N.3    40  ILE40      -0.1245
     71  CA         0.6430   21.2570   18.6250 C.3    40  ILE40       0.1561
     72  C          0.4950   22.7280   18.1880 C.2    40  ILE40       0.2260
     73  O         -0.0990   23.5860   18.9180 O.2    40  ILE40      -0.2867
     74  CB        -0.2740   20.9200   19.8360 C.3    40  ILE40       0.0252
     75  CG1        0.2340   21.5720   21.1120 C.3    40  ILE40       0.0019
     76  CG2       -0.4510   19.4050   20.0220 C.3    40  ILE40       0.0019
     77  CD1       -0.6820   21.4580   22.2980 C.3    40  ILE40       0.0001
     78  N         -2.5860   25.1450   18.6530 N.3    43  TYR43      -0.1241
     79  CA        -3.1820   25.3310   19.9730 C.3    43  TYR43       0.1605
     80  C         -3.6540   26.7660   20.2200 C.2    43  TYR43       0.2264
     81  O         -4.7830   26.9770   20.6640 O.2    43  TYR43      -0.2867
     82  CB        -2.1910   24.9110   21.0820 C.3    43  TYR43       0.0534
     83  CG        -2.7970   25.0230   22.4520 C.ar   43  TYR43      -0.0201
     84  CD1       -2.6040   26.1750   23.2310 C.ar   43  TYR43      -0.0009
     85  CD2       -3.6080   24.0150   22.9640 C.ar   43  TYR43      -0.0009
     86  CE1       -3.1760   26.2920   24.4910 C.ar   43  TYR43       0.0417
     87  CE2       -4.2210   24.1190   24.2250 C.ar   43  TYR43       0.0417
     88  CZ        -4.0150   25.2620   24.9900 C.ar   43  TYR43       0.1957
     89  OH        -4.6120   25.2900   26.2120 O.3    43  TYR43      -0.2866
     90  N         -9.2340   22.8060   27.7930 N.3    82  ALA82      -0.1245
     91  CA        -8.6440   21.4630   27.6680 C.3    82  ALA82       0.1562
     92  C         -9.6890   20.5610   27.0320 C.2    82  ALA82       0.2260
     93  O         -9.3760   19.7280   26.1770 O.2    82  ALA82      -0.2867
     94  CB        -8.1340   20.9130   28.9980 C.3    82  ALA82       0.0290
     95  N         -9.8320   21.6990   23.1280 N.3    85  TYR85      -0.1227
     96  CA        -8.6850   21.3980   22.2930 C.3    85  TYR85       0.1736
     97  C         -8.4930   19.8850   22.0610 C.2    85  TYR85       0.2595
     98  O         -8.1090   19.4530   20.9530 O.2    85  TYR85      -0.2718
     99  CB        -7.3860   22.0510   22.8840 C.3    85  TYR85       0.0548
    100  CG        -6.2540   21.7530   21.9280 C.ar   85  TYR85      -0.0200
    101  CD1       -6.1640   22.4530   20.7310 C.ar   85  TYR85      -0.0009
    102  CD2       -5.3870   20.6740   22.1400 C.ar   85  TYR85      -0.0009
    103  CE1       -5.2040   22.1430   19.7710 C.ar   85  TYR85       0.0417
    104  CE2       -4.4160   20.3460   21.1830 C.ar   85  TYR85       0.0417
    105  CZ        -4.3320   21.0900   20.0040 C.ar   85  TYR85       0.1957
    106  OH        -3.4120   20.8040   19.0260 O.3    85  TYR85      -0.2866
    107  N         -8.7260   19.1050   23.1130 N.am   86  ASN86      -0.1974
    108  CA        -8.3610   17.6840   23.1560 C.3    86  ASN86       0.1688
    109  C         -9.4880   16.7560   22.8140 C.2    86  ASN86       0.2292
    110  O        -10.6410   17.0630   23.1160 O.2    86  ASN86      -0.2864
    111  CB        -7.7830   17.3280   24.5130 C.3    86  ASN86       0.1181
    112  CG        -6.5380   18.1360   24.8370 C.2    86  ASN86       0.2629
    113  OD1       -5.4640   17.8530   24.2660 O.2    86  ASN86      -0.2716
    114  ND2       -6.6810   19.1800   25.6940 N.am   86  ASN86      -0.0877
    115  N         -5.7800   11.2340   27.2620 N.3    91  ARG91      -0.1231
    116  CA        -5.3800   11.3240   28.6680 C.3    91  ARG91       0.1694
    117  C         -5.7110   12.6760   29.2830 C.2    91  ARG91       0.2591
    118  O         -6.3320   12.7530   30.3570 O.2    91  ARG91      -0.2718
    119  CB        -3.8830   11.0540   28.7490 C.3    91  ARG91       0.0321
    120  CG        -3.2660   11.0550   30.1470 C.3    91  ARG91       0.0489
    121  CD        -1.8020   10.7000   29.9930 C.3    91  ARG91       0.2205
    122  NE        -1.0390   10.6830   31.2230 N.pl3  91  ARG91      -0.0865
    123  CZ        -0.4530   11.7350   31.8080 C.cat  91  ARG91       0.5346
    124  NH1       -0.4820   12.9470   31.3080 N.pl3  91  ARG91       0.1354
    125  NH2        0.2470   11.5150   32.9350 N.pl3  91  ARG91       0.1354
    126  N         -5.3150   13.7610   28.6170 N.am   92  VAL92      -0.1980
    127  CA        -5.5280   15.0740   29.2010 C.3    92  VAL92       0.1595
    128  C         -7.0320   15.4350   29.3420 C.2    92  VAL92       0.2287
    129  O         -7.4620   16.0020   30.3420 O.2    92  VAL92      -0.2864
    130  CB        -4.7120   16.2100   28.4960 C.3    92  VAL92       0.0276
    131  CG1       -5.1650   16.4200   27.0680 C.3    92  VAL92       0.0022
    132  CG2       -4.8280   17.5020   29.2630 C.3    92  VAL92       0.0022
@<TRIPOS>BOND
     1    72    71    1
     2    72    73    2
     3    71    70    1
     4    71    74    1
     5    78    79    1
     6   106   105    1
     7   103   105   ar
     8   103   101   ar
     9    74    76    1
    10    74    75    1
    11    79    80    1
    12    79    82    1
    13   105   104   ar
    14    80    81    2
    15   101   100   ar
    16    98    97    2
    17    82    83    1
    18    65    64    2
    19    75    77    1
    20   104   102   ar
    21    64    63    1
    22   100   102   ar
    23   100    99    1
    24    97    96    1
    25    97   107   am
    26    96    99    1
    27    96    95    1
    28    83    85   ar
    29    83    84   ar
    30    54    55    1
    31   109   110    2
    32   109   108    1
    33    63    62    1
    34    63    66    1
    35    85    87   ar
    36    62    56   am
    37   107   108    1
    38   108   111    1
    39    84    86   ar
    40    56    57    2
    41    56    55    1
    42    55    58    1
    43    66    67    1
    44    87    88   ar
    45   113   112    2
    46    86    88   ar
    47   111   112    1
    48   112   114   am
    49    88    89    1
    50    58    59    1
    51    67    68    1
    52    67    69    1
    53    61    59    1
    54    59    60    1
    55    52    51    1
    56    93    92    2
    57    50    49    2
    58    49    48    1
    59    51    48    1
    60    51    53    1
    61    92    91    1
    62   131   130    1
    63   115   116    1
    64    91    90    1
    65    91    94    1
    66    48    47    1
    67   130   127    1
    68   130   132    1
    69   126   127    1
    70   126   117   am
    71   116   119    1
    72   116   117    1
    73   119   120    1
    74   127   128    1
    75   117   118    2
    76   128   129    2
    77   121   120    1
    78   121   122    1
    79   122   123    2
    80   124   123    1
    81    13    14    1
    82    13    10    1
    83   123   125    1
    84    12    11    2
    85    14    15    1
    86    26    24   ar
    87    26    25   ar
    88    41    40    2
    89    24    22   ar
    90    10    11    1
    91    10     9    1
    92    40    39    1
    93    11    16   am
    94    25    23   ar
    95    22    21   ar
    96    42    39    1
    97    42    43    1
    98    15     9    1
    99     9     3   am
   100    23    21   ar
   101    16    17    1
   102    21    20    1
   103    39    38    1
   104    17    20    1
   105    17    18    1
   106     4     3    2
   107    46    44   am
   108     3     2    1
   109    38    29   am
   110    43    44    1
   111    18    19    2
   112    18    27   am
   113    44    45    2
   114    27    28    1
   115     5     2    1
   116     5     6    1
   117    29    28    1
   118    29    30    2
   119     2     1    1
   120    28    31    1
   121     7     6    1
   122     6     8    1
   123    31    32    1
   124    32    33    1
   125    33    34    1
   126    34    35    2
   127    35    36    1
   128    35    37    1
