@<TRIPOS>MOLECULE
tmp/4nr6A00.pdb
 155 149 0 0 0
SMALL
GASTEIGER

@<TRIPOS>ATOM
      1  N         20.6640   -7.7590   14.4380 N.3    25  PRO25      -0.2116
      2  CA        19.3830   -7.7240   15.1280 C.3    25  PRO25       0.1372
      3  C         18.8250   -6.3270   15.4730 C.2    25  PRO25       0.2244
      4  O         17.7240   -6.2550   16.1080 O.2    25  PRO25      -0.2868
      5  CB        19.6850   -8.4990   16.4170 C.3    25  PRO25       0.0268
      6  CG        21.0960   -8.1260   16.7440 C.3    25  PRO25       0.0207
      7  CD        21.7780   -7.9430   15.4070 C.3    25  PRO25       0.0892
      8  N         15.1490   -5.0330   14.9800 N.3    28  LEU28      -0.1231
      9  CA        14.0300   -5.9320   15.3320 C.3    28  LEU28       0.1678
     10  C         13.0330   -5.4000   16.3550 C.2    28  LEU28       0.2434
     11  O         11.8200   -5.4940   16.1120 O.2    28  LEU28      -0.2733
     12  CB        14.5310   -7.3330   15.6930 C.3    28  LEU28       0.0284
     13  CG        15.2670   -8.1770   14.6340 C.3    28  LEU28       0.0019
     14  CD1       15.4610   -9.5580   15.2640 C.3    28  LEU28       0.0001
     15  CD2       14.5490   -8.2790   13.2960 C.3    28  LEU28       0.0001
     16  N         13.4930   -4.7180   17.4240 N.am   29  PRO29      -0.2718
     17  CA        12.5410   -4.0840   18.3160 C.3    29  PRO29       0.1535
     18  C         11.7830   -2.8900   17.7210 C.2    29  PRO29       0.2598
     19  O         10.8200   -2.4610   18.3580 O.2    29  PRO29      -0.2715
     20  CB        13.4060   -3.5600   19.4690 C.3    29  PRO29       0.0310
     21  CG        14.6420   -4.3800   19.4140 C.3    29  PRO29       0.0237
     22  CD        14.8690   -4.6020   17.9440 C.3    29  PRO29       0.0939
     23  N         12.2000   -2.4040   16.5460 N.am   30  PHE30      -0.1974
     24  CA        11.6510   -1.2030   15.9320 C.3    30  PHE30       0.1639
     25  C         10.7230   -1.4520   14.7210 C.2    30  PHE30       0.2290
     26  O         10.1910   -0.5050   14.1940 O.2    30  PHE30      -0.2864
     27  CB        12.7970   -0.2810   15.5140 C.3    30  PHE30       0.0560
     28  CG        13.6530    0.1510   16.6800 C.ar   30  PHE30      -0.0200
     29  CD1       13.3090    1.2930   17.4100 C.ar   30  PHE30      -0.0042
     30  CD2       14.7680   -0.5610   17.0690 C.ar   30  PHE30      -0.0042
     31  CE1       14.0640    1.6950   18.5230 C.ar   30  PHE30      -0.0003
     32  CE2       15.4950   -0.1680   18.1830 C.ar   30  PHE30      -0.0003
     33  CZ        15.1480    0.9590   18.8990 C.ar   30  PHE30      -0.0000
     34  N          5.3550   -0.6020   19.5390 N.3    34  VAL34      -0.1245
     35  CA         5.4230   -1.1620   20.8930 C.3    34  VAL34       0.1561
     36  C          3.9840   -1.5170   21.3380 C.2    34  VAL34       0.2260
     37  O          3.0510   -0.7290   21.1540 O.2    34  VAL34      -0.2867
     38  CB         6.0830   -0.2060   21.9030 C.3    34  VAL34       0.0252
     39  CG1        5.9860   -0.6920   23.3460 C.3    34  VAL34       0.0019
     40  CG2        7.5390    0.0200   21.4880 C.3    34  VAL34       0.0019
     41  N          3.5400   -6.7990   26.2910 N.3    39  LEU39      -0.1245
     42  CA         4.7950   -6.8400   27.0450 C.3    39  LEU39       0.1561
     43  C          4.5390   -6.5230   28.5230 C.2    39  LEU39       0.2260
     44  O          5.4420   -6.6390   29.3580 O.2    39  LEU39      -0.2867
     45  CB         5.7810   -5.8250   26.4450 C.3    39  LEU39       0.0270
     46  CG         6.1920   -6.0870   24.9980 C.3    39  LEU39       0.0019
     47  CD1        6.6970   -4.7770   24.3370 C.3    39  LEU39       0.0001
     48  CD2        7.2280   -7.1970   24.9740 C.3    39  LEU39       0.0001
     49  N          3.6080   -3.6010   30.1190 N.3    41  ILE41      -0.1245
     50  CA         4.3190   -2.3780   30.5310 C.3    41  ILE41       0.1561
     51  C          3.3600   -1.1990   30.4110 C.2    41  ILE41       0.2260
     52  O          3.5240   -0.2910   29.5800 O.2    41  ILE41      -0.2867
     53  CB         5.6550   -2.1720   29.7370 C.3    41  ILE41       0.0252
     54  CG1        5.5080   -2.4490   28.2200 C.3    41  ILE41       0.0019
     55  CG2        6.7290   -3.1200   30.2680 C.3    41  ILE41       0.0019
     56  CD1        6.5750   -1.7910   27.3200 C.3    41  ILE41       0.0001
     57  N          4.1120    2.4980   29.5910 N.3    44  TYR44      -0.1241
     58  CA         4.7790    2.8680   28.3260 C.3    44  TYR44       0.1605
     59  C          4.1500    4.1150   27.7540 C.2    44  TYR44       0.2264
     60  O          4.8640    5.1110   27.5490 O.2    44  TYR44      -0.2867
     61  CB         4.8050    1.7050   27.3340 C.3    44  TYR44       0.0534
     62  CG         5.5910    2.1020   26.0950 C.ar   44  TYR44      -0.0201
     63  CD1        4.9450    2.4760   24.9330 C.ar   44  TYR44      -0.0009
     64  CD2        6.9880    2.1950   26.1430 C.ar   44  TYR44      -0.0009
     65  CE1        5.6870    2.9310   23.8080 C.ar   44  TYR44       0.0417
     66  CE2        7.7560    2.6120   25.0330 C.ar   44  TYR44       0.0417
     67  CZ         7.0940    2.9960   23.8530 C.ar   44  TYR44       0.1957
     68  OH         7.8400    3.3960   22.7350 O.3    44  TYR44      -0.2866
     69  N          6.2650    5.8440   17.9140 N.3    52  MET52      -0.1245
     70  CA         6.6850    5.7810   16.5280 C.3    52  MET52       0.1570
     71  C          7.5600    4.5260   16.3350 C.2    52  MET52       0.2261
     72  O          8.2460    4.1070   17.2520 O.2    52  MET52      -0.2867
     73  CB         7.4130    7.1180   16.1580 C.3    52  MET52       0.0387
     74  CG         7.7320    7.3370   14.6650 C.3    52  MET52       0.0595
     75  SD         6.2610    7.1750   13.5870 S.3    52  MET52      -0.1393
     76  CE         5.2240    8.3110   14.4660 C.3    52  MET52       0.0692
     77  N         11.2020    8.1400   17.1540 N.3    79  MET79      -0.1245
     78  CA        11.3860    6.7480   17.4040 C.3    79  MET79       0.1570
     79  C         12.6230    6.5040   18.2810 C.2    79  MET79       0.2261
     80  O         12.5510    5.8290   19.3120 O.2    79  MET79      -0.2867
     81  CB        11.5210    6.0170   16.0730 C.3    79  MET79       0.0387
     82  CG        11.7170    4.5390   16.2270 C.3    79  MET79       0.0595
     83  SD        11.8640    3.6580   14.6600 S.3    79  MET79      -0.1393
     84  CE        13.5250    4.1880   14.1790 C.3    79  MET79       0.0692
     85  N         12.7960    5.4940   22.4780 N.3    83  ALA83      -0.1245
     86  CA        13.4720    4.3120   22.9250 C.3    83  ALA83       0.1562
     87  C         14.5420    4.6610   23.9770 C.2    83  ALA83       0.2260
     88  O         14.6820    3.9360   24.9760 O.2    83  ALA83      -0.2867
     89  CB        14.0860    3.5450   21.7620 C.3    83  ALA83       0.0290
     90  N         12.6040    5.5850   27.3350 N.3    86  TYR86      -0.1227
     91  CA        11.9120    4.5180   28.0400 C.3    86  TYR86       0.1736
     92  C         12.8100    3.4130   28.6060 C.2    86  TYR86       0.2595
     93  O         12.5560    2.8830   29.7060 O.2    86  TYR86      -0.2718
     94  CB        10.8120    3.8700   27.1750 C.3    86  TYR86       0.0548
     95  CG         9.9740    2.9280   28.0100 C.ar   86  TYR86      -0.0200
     96  CD1        9.0100    3.4060   28.8970 C.ar   86  TYR86      -0.0009
     97  CD2       10.2390    1.5500   28.0290 C.ar   86  TYR86      -0.0009
     98  CE1        8.2770    2.5390   29.7100 C.ar   86  TYR86       0.0417
     99  CE2        9.5130    0.6910   28.8670 C.ar   86  TYR86       0.0417
    100  CZ         8.5370    1.2010   29.7050 C.ar   86  TYR86       0.1957
    101  OH         7.7920    0.3790   30.5440 O.3    86  TYR86      -0.2866
    102  N         13.8130    3.0410   27.8250 N.am   87  ASN87      -0.1960
    103  CA        14.5980    1.8260   28.0510 C.3    87  ASN87       0.1819
    104  C         15.8690    2.1280   28.8510 C.2    87  ASN87       0.2621
    105  O         16.3940    3.2290   28.7770 O.2    87  ASN87      -0.2715
    106  CB        14.9210    1.1740   26.6970 C.3    87  ASN87       0.1195
    107  CG        13.6730    0.6790   26.0210 C.2    87  ASN87       0.2630
    108  OD1       13.1800   -0.4280   26.3230 O.2    87  ASN87      -0.2716
    109  ND2       13.1060    1.5090   25.1590 N.am   87  ASN87      -0.0877
    110  N         16.2640    1.1860   29.6990 N.am   88  ARG88      -0.1977
    111  CA        17.5010    1.3100   30.4770 C.3    88  ARG88       0.1597
    112  C         18.7370    1.2400   29.5480 C.2    88  ARG88       0.2287
    113  O         18.7080    0.5310   28.5450 O.2    88  ARG88      -0.2864
    114  CB        17.5950    0.1800   31.5260 C.3    88  ARG88       0.0334
    115  CG        16.4420    0.1940   32.5190 C.3    88  ARG88       0.0492
    116  CD        16.4830    1.3680   33.4900 C.3    88  ARG88       0.2205
    117  NE        15.9980    2.5880   32.8760 N.pl3  88  ARG88      -0.0865
    118  CZ        14.7260    2.8600   32.5680 C.cat  88  ARG88       0.5346
    119  NH1       13.7620    1.9860   32.7830 N.pl3  88  ARG88       0.1354
    120  NH2       14.4070    4.0160   32.0020 N.pl3  88  ARG88       0.1354
    121  N         20.0370   -2.0550   28.1840 N.3    91  SER91      -0.1202
    122  CA        19.0870   -2.9060   27.4800 C.3    91  SER91       0.2020
    123  C         19.4850   -3.0300   26.0420 C.2    91  SER91       0.2619
    124  O         20.1410   -2.1420   25.4670 O.2    91  SER91      -0.2717
    125  CB        17.6370   -2.4200   27.5820 C.3    91  SER91       0.2103
    126  OG        17.4520   -1.1330   26.9980 O.3    91  SER91      -0.2182
    127  N         19.0900   -4.1610   25.4820 N.am   92  ARG92      -0.1965
    128  CA        19.1940   -4.3890   24.0600 C.3    92  ARG92       0.1729
    129  C         18.5390   -3.2580   23.2650 C.2    92  ARG92       0.2616
    130  O         19.1160   -2.7530   22.3280 O.2    92  ARG92      -0.2715
    131  CB        18.5480   -5.7040   23.6570 C.3    92  ARG92       0.0348
    132  CG        19.3050   -6.9370   24.1060 C.3    92  ARG92       0.0492
    133  CD        18.4880   -8.1850   23.8580 C.3    92  ARG92       0.2205
    134  NE        17.2660   -8.1640   24.6500 N.pl3  92  ARG92      -0.0865
    135  CZ        16.2100   -8.9570   24.4730 C.cat  92  ARG92       0.5346
    136  NH1       16.1870   -9.8510   23.5010 N.pl3  92  ARG92       0.1354
    137  NH2       15.1680   -8.8170   25.2790 N.pl3  92  ARG92       0.1354
    138  N         17.3050   -2.9240   23.6050 N.am   93  VAL93      -0.1977
    139  CA        16.6150   -1.9010   22.8480 C.3    93  VAL93       0.1596
    140  C         17.4240   -0.6090   22.7920 C.2    93  VAL93       0.2287
    141  O         17.6480   -0.0310   21.7080 O.2    93  VAL93      -0.2864
    142  CB        15.1690   -1.6540   23.3640 C.3    93  VAL93       0.0276
    143  CG1       14.6270   -0.4220   22.6760 C.3    93  VAL93       0.0022
    144  CG2       14.2710   -2.8970   23.1530 C.3    93  VAL93       0.0022
    145  N         20.6250   -1.0730   20.6910 N.3    96  PHE96      -0.1241
    146  CA        20.2200   -1.2450   19.3000 C.3    96  PHE96       0.1605
    147  C         19.7860    0.1160   18.7400 C.2    96  PHE96       0.2264
    148  O         20.0890    0.3740   17.5700 O.2    96  PHE96      -0.2867
    149  CB        19.1030   -2.2460   19.1320 C.3    96  PHE96       0.0534
    150  CG        19.4790   -3.6720   19.4020 C.ar   96  PHE96      -0.0203
    151  CD1       20.8200   -4.0830   19.6000 C.ar   96  PHE96      -0.0042
    152  CD2       18.4660   -4.6330   19.4620 C.ar   96  PHE96      -0.0042
    153  CE1       21.0860   -5.4180   19.8310 C.ar   96  PHE96      -0.0003
    154  CE2       18.7520   -5.9650   19.6840 C.ar   96  PHE96      -0.0003
    155  CZ        20.0630   -6.3530   19.8700 C.ar   96  PHE96      -0.0000
@<TRIPOS>BOND
     1    15    13    1
     2    75    76    1
     3    75    74    1
     4    84    83    1
     5    26    25    2
     6     1     2    1
     7     1     7    1
     8    13    14    1
     9    13    12    1
    10    83    82    1
    11    74    73    1
    12    25    24    1
    13     8     9    1
    14     2     3    1
    15     2     5    1
    16     9    12    1
    17     9    10    1
    18     7     6    1
    19     3     4    2
    20    27    24    1
    21    27    28    1
    22    24    23    1
    23    81    82    1
    24    81    78    1
    25    11    10    2
    26    73    70    1
    27    71    70    1
    28    71    72    2
    29    10    16   am
    30     5     6    1
    31    70    69    1
    32    23    18   am
    33    28    30   ar
    34    28    29   ar
    35    30    32   ar
    36    77    78    1
    37    78    79    1
    38    29    31   ar
    39    16    22    1
    40    16    17    1
    41   148   147    2
    42    18    17    1
    43    18    19    2
    44    22    21    1
    45    32    33   ar
    46    79    80    2
    47    17    20    1
    48    31    33   ar
    49   147   146    1
    50   149   146    1
    51   149   150    1
    52   146   145    1
    53   150   152   ar
    54   150   151   ar
    55    21    20    1
    56   152   154   ar
    57    34    35    1
    58   151   153   ar
    59   154   155   ar
    60   153   155   ar
    61    35    36    1
    62    35    38    1
    63    37    36    2
    64    40    38    1
    65   141   140    2
    66    89    86    1
    67    38    39    1
    68   130   129    2
    69    85    86    1
    70   143   142    1
    71    68    67    1
    72   140   139    1
    73   139   142    1
    74   139   138    1
    75    86    87    1
    76   144   142    1
    77   129   138   am
    78   129   128    1
    79   136   135    1
    80   131   128    1
    81   131   132    1
    82    65    67   ar
    83    65    63   ar
    84    67    66   ar
    85   133   132    1
    86   133   134    1
    87    87    88    2
    88   128   127    1
    89    47    46    1
    90   135   134    2
    91   135   137    1
    92    63    62   ar
    93    48    46    1
    94    46    45    1
    95    66    64   ar
    96   109   107   am
    97   124   123    2
    98   127   123   am
    99   107   108    2
   100   107   106    1
   101   123   122    1
   102    62    64   ar
   103    62    61    1
   104    41    42    1
   105    45    42    1
   106   106   103    1
   107   126   125    1
   108    42    43    1
   109    94    95    1
   110    94    91    1
   111    56    54    1
   112    61    58    1
   113    90    91    1
   114   122   125    1
   115   122   121    1
   116    60    59    2
   117    59    58    1
   118   102   103    1
   119   102    92   am
   120    95    97   ar
   121    95    96   ar
   122    97    99   ar
   123    91    92    1
   124   103   104    1
   125    54    53    1
   126    58    57    1
   127    43    44    2
   128   113   112    2
   129    92    93    2
   130   105   104    2
   131   104   110   am
   132    99   100   ar
   133    96    98   ar
   134   112   111    1
   135    52    51    2
   136   110   111    1
   137   100    98   ar
   138   100   101    1
   139    53    55    1
   140    53    50    1
   141    49    50    1
   142    51    50    1
   143   111   114    1
   144   114   115    1
   145   120   118    1
   146   115   116    1
   147   118   119    1
   148   118   117    2
   149   117   116    1
