@<TRIPOS>MOLECULE
tmp/4nr7A00.pdb
 139 134 0 0 0
SMALL
GASTEIGER

@<TRIPOS>ATOM
      1  N         16.4310   36.1510    6.2490 N.3    25  PRO25      -0.2116
      2  CA        16.4790   34.8860    5.4900 C.3    25  PRO25       0.1372
      3  C         17.8560   34.3330    5.1390 C.2    25  PRO25       0.2244
      4  O         17.9470   33.2290    4.5780 O.2    25  PRO25      -0.2868
      5  CB        15.7300   35.2550    4.1930 C.3    25  PRO25       0.0268
      6  CG        16.0190   36.7130    4.0200 C.3    25  PRO25       0.0207
      7  CD        16.0130   37.2850    5.3990 C.3    25  PRO25       0.0892
      8  N         19.1480   30.6590    5.6330 N.3    28  LEU28      -0.1231
      9  CA        18.2670   29.5480    5.3380 C.3    28  LEU28       0.1678
     10  C         18.8660   28.5640    4.3250 C.2    28  LEU28       0.2434
     11  O         18.7830   27.3660    4.5100 O.2    28  LEU28      -0.2733
     12  CB        16.8580   30.0510    4.9450 C.3    28  LEU28       0.0284
     13  CG        16.0760   30.7910    6.0460 C.3    28  LEU28       0.0019
     14  CD1       14.7050   31.2050    5.5550 C.3    28  LEU28       0.0001
     15  CD2       15.9280   29.9680    7.2980 C.3    28  LEU28       0.0001
     16  N         19.4980   29.0390    3.2400 N.am   29  PRO29      -0.2718
     17  CA        20.0840   28.0620    2.2970 C.3    29  PRO29       0.1535
     18  C         21.3110   27.3030    2.8240 C.2    29  PRO29       0.2598
     19  O         21.7240   26.3270    2.2120 O.2    29  PRO29      -0.2715
     20  CB        20.5080   28.9380    1.1130 C.3    29  PRO29       0.0310
     21  CG        19.7380   30.1880    1.2660 C.3    29  PRO29       0.0237
     22  CD        19.5680   30.4060    2.7280 C.3    29  PRO29       0.0939
     23  N         21.8790   27.7530    3.9410 N.am   30  PHE30      -0.1974
     24  CA        23.1410   27.2330    4.4560 C.3    30  PHE30       0.1639
     25  C         22.9840   26.3180    5.6510 C.2    30  PHE30       0.2290
     26  O         23.9800   25.7930    6.1710 O.2    30  PHE30      -0.2864
     27  CB        24.0610   28.4120    4.8090 C.3    30  PHE30       0.0560
     28  CG        24.3780   29.2670    3.6300 C.ar   30  PHE30      -0.0200
     29  CD1       25.4370   28.9480    2.8080 C.ar   30  PHE30      -0.0042
     30  CD2       23.5980   30.3540    3.3120 C.ar   30  PHE30      -0.0042
     31  CE1       25.7050   29.7060    1.6950 C.ar   30  PHE30      -0.0003
     32  CE2       23.8630   31.1030    2.2000 C.ar   30  PHE30      -0.0003
     33  CZ        24.9250   30.7810    1.4010 C.ar   30  PHE30      -0.0000
     34  N         21.5930   23.3480    5.9480 N.3    32  GLN32      -0.1245
     35  CA        21.7120   21.9240    5.6770 C.3    32  GLN32       0.1566
     36  C         22.5450   21.7570    4.4180 C.2    32  GLN32       0.2260
     37  O         22.6480   22.6780    3.6260 O.2    32  GLN32      -0.2867
     38  CB        20.3360   21.2840    5.4590 C.3    32  GLN32       0.0367
     39  CG        19.4590   21.2080    6.6980 C.3    32  GLN32       0.0905
     40  CD        19.9840   20.2460    7.7480 C.2    32  GLN32       0.2608
     41  OE1       20.5860   19.2220    7.4320 O.2    32  GLN32      -0.2717
     42  NE2       19.7520   20.5750    9.0080 N.am   32  GLN32      -0.0878
     43  N         23.7310   21.1570    0.6890 N.3    34  VAL34      -0.1245
     44  CA        23.0840   21.2670   -0.6250 C.3    34  VAL34       0.1561
     45  C         22.7310   19.8600   -1.0880 C.2    34  VAL34       0.2260
     46  O         23.5910   18.9850   -1.0720 O.2    34  VAL34      -0.2867
     47  CB        24.0120   21.9580   -1.6450 C.3    34  VAL34       0.0252
     48  CG1       23.4140   21.9270   -3.0480 C.3    34  VAL34       0.0019
     49  CG2       24.2810   23.3950   -1.2230 C.3    34  VAL34       0.0019
     50  N         17.3170   17.0380   -4.9160 N.3    38  LEU38      -0.1231
     51  CA        16.1370   17.7800   -4.5100 C.3    38  LEU38       0.1693
     52  C         16.0420   19.0970   -5.2840 C.2    38  LEU38       0.2591
     53  O         14.9600   19.5180   -5.6390 O.2    38  LEU38      -0.2718
     54  CB        16.1650   18.0420   -2.9950 C.3    38  LEU38       0.0284
     55  CG        15.0560   18.8970   -2.3930 C.3    38  LEU38       0.0019
     56  CD1       13.7020   18.2340   -2.5740 C.3    38  LEU38       0.0001
     57  CD2       15.3230   19.1520   -0.9170 C.3    38  LEU38       0.0001
     58  N         17.1780   19.7640   -5.4860 N.am   39  LEU39      -0.1980
     59  CA        17.1880   21.0880   -6.0800 C.3    39  LEU39       0.1596
     60  C         17.2260   21.0640   -7.6170 C.2    39  LEU39       0.2287
     61  O         17.1340   22.1180   -8.2530 O.2    39  LEU39      -0.2864
     62  CB        18.3670   21.9030   -5.5240 C.3    39  LEU39       0.0297
     63  CG        18.2790   22.2410   -4.0340 C.3    39  LEU39       0.0022
     64  CD1       19.5730   22.8960   -3.5740 C.3    39  LEU39       0.0001
     65  CD2       17.0690   23.1080   -3.7090 C.3    39  LEU39       0.0001
     66  N         19.8300   20.2140   -9.6890 N.3    41  ILE41      -0.1245
     67  CA        21.0860   20.8080  -10.1530 C.3    41  ILE41       0.1561
     68  C         22.1760   19.7460  -10.2160 C.2    41  ILE41       0.2260
     69  O         23.1200   19.7220   -9.4180 O.2    41  ILE41      -0.2867
     70  CB        21.4990   22.0130   -9.2940 C.3    41  ILE41       0.0252
     71  CG1       21.4890   21.6830   -7.7980 C.3    41  ILE41       0.0019
     72  CG2       20.5850   23.1870   -9.6170 C.3    41  ILE41       0.0019
     73  CD1       22.0070   22.8040   -6.9310 C.3    41  ILE41       0.0001
     74  N         26.0420   20.2670   -9.6340 N.3    44  TYR44      -0.1241
     75  CA        26.5690   20.8780   -8.4070 C.3    44  TYR44       0.1605
     76  C         27.9010   20.2770   -7.9600 C.2    44  TYR44       0.2264
     77  O         28.8840   20.9950   -7.7700 O.2    44  TYR44      -0.2867
     78  CB        25.5270   20.8460   -7.2750 C.3    44  TYR44       0.0534
     79  CG        26.0350   21.5720   -6.0440 C.ar   44  TYR44      -0.0201
     80  CD1       26.0220   22.9680   -5.9800 C.ar   44  TYR44      -0.0009
     81  CD2       26.5820   20.8770   -4.9780 C.ar   44  TYR44      -0.0009
     82  CE1       26.5120   23.6420   -4.8680 C.ar   44  TYR44       0.0417
     83  CE2       27.1000   21.5480   -3.8710 C.ar   44  TYR44       0.0417
     84  CZ        27.0550   22.9250   -3.8170 C.ar   44  TYR44       0.1957
     85  OH        27.5820   23.5650   -2.7190 O.3    44  TYR44      -0.2866
     86  N         29.5350   28.8000   -2.3660 N.3    83  ALA83      -0.1245
     87  CA        28.3010   29.4560   -2.7780 C.3    83  ALA83       0.1562
     88  C         28.5640   30.5350   -3.7900 C.2    83  ALA83       0.2260
     89  O         27.7850   30.6870   -4.7440 O.2    83  ALA83      -0.2867
     90  CB        27.5410   29.9850   -1.5540 C.3    83  ALA83       0.0290
     91  N         29.3680   28.7040   -7.2030 N.3    86  TYR86      -0.1227
     92  CA        28.3160   27.9970   -7.9010 C.3    86  TYR86       0.1736
     93  C         27.1840   28.9130   -8.3590 C.2    86  TYR86       0.2595
     94  O         26.6200   28.7370   -9.4370 O.2    86  TYR86      -0.2718
     95  CB        27.7440   26.8450   -7.0320 C.3    86  TYR86       0.0548
     96  CG        26.6990   26.0770   -7.8170 C.ar   86  TYR86      -0.0200
     97  CD1       27.0690   25.1460   -8.7750 C.ar   86  TYR86      -0.0009
     98  CD2       25.3560   26.3490   -7.6700 C.ar   86  TYR86      -0.0009
     99  CE1       26.1270   24.5280   -9.5740 C.ar   86  TYR86       0.0417
    100  CE2       24.4030   25.7290   -8.4600 C.ar   86  TYR86       0.0417
    101  CZ        24.7910   24.8080   -9.4120 C.ar   86  TYR86       0.1957
    102  OH        23.8380   24.2310  -10.2280 O.3    86  TYR86      -0.2866
    103  N         26.7710   29.8250   -7.4930 N.am   87  ASN87      -0.1974
    104  CA        25.5490   30.5890   -7.7170 C.3    87  ASN87       0.1688
    105  C         25.8330   31.8480   -8.5010 C.2    87  ASN87       0.2292
    106  O         26.8900   32.4500   -8.3560 O.2    87  ASN87      -0.2864
    107  CB        24.8770   30.9060   -6.3730 C.3    87  ASN87       0.1181
    108  CG        24.4810   29.6580   -5.6300 C.2    87  ASN87       0.2629
    109  OD1       23.4240   29.0930   -5.8740 O.2    87  ASN87      -0.2716
    110  ND2       25.3390   29.1910   -4.7430 N.am   87  ASN87      -0.0877
    111  N         19.5740   34.9450   -5.0710 N.3    92  ARG92      -0.1231
    112  CA        19.3420   35.0770   -3.6330 C.3    92  ARG92       0.1694
    113  C         20.4760   34.4370   -2.8230 C.2    92  ARG92       0.2591
    114  O         20.9880   35.0340   -1.8860 O.2    92  ARG92      -0.2718
    115  CB        18.0160   34.4390   -3.2360 C.3    92  ARG92       0.0321
    116  CG        16.7840   35.1320   -3.7840 C.3    92  ARG92       0.0489
    117  CD        15.5270   34.3070   -3.5660 C.3    92  ARG92       0.2205
    118  NE        15.5530   33.1500   -4.4530 N.pl3  92  ARG92      -0.0865
    119  CZ        14.6470   32.1810   -4.4280 C.cat  92  ARG92       0.5346
    120  NH1       13.6470   32.2230   -3.5590 N.pl3  92  ARG92       0.1354
    121  NH2       14.7560   31.1610   -5.2570 N.pl3  92  ARG92       0.1354
    122  N         20.8570   33.2130   -3.1760 N.am   93  VAL93      -0.1980
    123  CA        21.8680   32.5300   -2.3990 C.3    93  VAL93       0.1595
    124  C         23.1630   33.3070   -2.3990 C.2    93  VAL93       0.2287
    125  O         23.8360   33.4060   -1.3600 O.2    93  VAL93      -0.2864
    126  CB        22.0590   31.0820   -2.8740 C.3    93  VAL93       0.0276
    127  CG1       23.3000   30.4800   -2.2460 C.3    93  VAL93       0.0022
    128  CG2       20.8270   30.2400   -2.5840 C.3    93  VAL93       0.0022
    129  N         22.7700   36.3910   -0.2110 N.3    96  PHE96      -0.1241
    130  CA        22.6780   35.9180    1.1840 C.3    96  PHE96       0.1605
    131  C         24.0480   35.5090    1.7230 C.2    96  PHE96       0.2264
    132  O         24.4060   35.8300    2.8540 O.2    96  PHE96      -0.2867
    133  CB        21.6610   34.7920    1.3110 C.3    96  PHE96       0.0534
    134  CG        20.2070   35.1990    1.1010 C.ar   96  PHE96      -0.0203
    135  CD1       19.8030   36.5190    0.8900 C.ar   96  PHE96      -0.0042
    136  CD2       19.2440   34.2150    1.1260 C.ar   96  PHE96      -0.0042
    137  CE1       18.4610   36.8230    0.7210 C.ar   96  PHE96      -0.0003
    138  CE2       17.8910   34.5220    0.9720 C.ar   96  PHE96      -0.0003
    139  CZ        17.5210   35.8210    0.7580 C.ar   96  PHE96      -0.0000
@<TRIPOS>BOND
     1   102   101    1
     2    68    67    1
     3    68    69    2
     4    67    66    1
     5    67    70    1
     6    74    75    1
     7    72    70    1
     8    99   101   ar
     9    99    97   ar
    10    94    93    2
    11   101   100   ar
    12    70    71    1
    13    97    96   ar
    14   105   106    2
    15   105   104    1
    16   100    98   ar
    17    75    76    1
    18    75    78    1
    19    93    92    1
    20    93   103   am
    21    61    60    2
    22    76    77    2
    23    92    91    1
    24    92    95    1
    25    96    98   ar
    26    96    95    1
    27    71    73    1
    28   104   103    1
    29   104   107    1
    30    60    59    1
    31    78    79    1
    32   107   108    1
    33    59    62    1
    34    59    58    1
    35    79    80   ar
    36    79    81   ar
    37    80    82   ar
    38   109   108    2
    39    53    52    2
    40   108   110   am
    41    62    63    1
    42    58    52   am
    43    52    51    1
    44   121   119    1
    45   111   112    1
    46    81    83   ar
    47    50    51    1
    48    82    84   ar
    49    89    88    2
    50    51    54    1
    51   118   119    2
    52   118   117    1
    53   119   120    1
    54    63    65    1
    55    63    64    1
    56    83    84   ar
    57    84    85    1
    58    88    87    1
    59   116   117    1
    60   116   115    1
    61   112   115    1
    62   112   113    1
    63   122   113   am
    64   122   123    1
    65    48    47    1
    66    54    55    1
    67   126   128    1
    68   126   123    1
    69   126   127    1
    70   113   114    2
    71    87    86    1
    72    87    90    1
    73    56    55    1
    74   123   124    1
    75   124   125    2
    76    55    57    1
    77    47    49    1
    78    47    44    1
    79    45    46    2
    80    45    44    1
    81    44    43    1
    82   129   130    1
    83   137   139   ar
    84   137   135   ar
    85   139   138   ar
    86   135   134   ar
    87   138   136   ar
    88   134   136   ar
    89   134   133    1
    90    20    21    1
    91    20    17    1
    92   130   133    1
    93   130   131    1
    94    21    22    1
    95    33    31   ar
    96    33    32   ar
    97    31    29   ar
    98   131   132    2
    99    32    30   ar
   100    19    18    2
   101    17    18    1
   102    17    16    1
   103    22    16    1
   104    29    28   ar
   105    18    23   am
   106    16    10   am
   107    30    28   ar
   108    37    36    2
   109    28    27    1
   110    23    24    1
   111     6     5    1
   112     6     7    1
   113     5     2    1
   114    10    11    2
   115    10     9    1
   116    36    35    1
   117    24    27    1
   118    24    25    1
   119     4     3    2
   120    12     9    1
   121    12    13    1
   122     3     2    1
   123     9     8    1
   124     7     1    1
   125    38    35    1
   126    38    39    1
   127     2     1    1
   128    14    13    1
   129    25    26    2
   130    35    34    1
   131    13    15    1
   132    39    40    1
   133    41    40    2
   134    40    42   am
