@<TRIPOS>MOLECULE
tmp/4nr8A00.pdb
 127 124 0 0 0
SMALL
GASTEIGER

@<TRIPOS>ATOM
      1  N         29.0400   27.4470   21.0030 N.3    40  TRP40      -0.1228
      2  CA        27.6220   27.4030   20.5980 C.3    40  TRP40       0.1722
      3  C         26.9250   28.7150   20.2900 C.2    40  TRP40       0.2437
      4  O         26.1920   28.8380   19.2820 O.2    40  TRP40      -0.2733
      5  CB        26.8010   26.5960   21.6170 C.3    40  TRP40       0.0563
      6  CG        25.3680   26.3190   21.1460 C.ar   40  TRP40       0.0003
      7  CD1       24.9170   26.1000   19.8350 C.ar   40  TRP40       0.0946
      8  CD2       24.1560   26.2110   21.9870 C.ar   40  TRP40       0.0152
      9  NE1       23.5460   25.8960   19.8120 N.ar   40  TRP40      -0.2442
     10  CE2       23.0310   25.9520   21.0660 C.ar   40  TRP40       0.0810
     11  CE3       23.9030   26.3370   23.3430 C.ar   40  TRP40       0.0012
     12  CZ2       21.7170   25.7910   21.5280 C.ar   40  TRP40       0.0191
     13  CZ3       22.5830   26.1630   23.7930 C.ar   40  TRP40       0.0001
     14  CH2       21.5140   25.9060   22.8950 C.ar   40  TRP40       0.0015
     15  N         27.1380   29.7520   21.1280 N.am   41  PRO41      -0.2718
     16  CA        26.4360   30.9810   20.8530 C.3    41  PRO41       0.1535
     17  C         26.8500   31.6370   19.5180 C.2    41  PRO41       0.2598
     18  O         26.0620   32.3380   18.9560 O.2    41  PRO41      -0.2715
     19  CB        26.8280   31.8750   22.0380 C.3    41  PRO41       0.0310
     20  CG        27.2160   30.9530   23.1100 C.3    41  PRO41       0.0237
     21  CD        27.8910   29.8280   22.4080 C.3    41  PRO41       0.0939
     22  N         28.0320   31.2780   19.0040 N.am   42  PHE42      -0.1974
     23  CA        28.5350   31.7730   17.7440 C.3    42  PHE42       0.1639
     24  C         28.3870   30.8200   16.5850 C.2    42  PHE42       0.2290
     25  O         28.8150   31.1690   15.5050 O.2    42  PHE42      -0.2864
     26  CB        30.0190   32.2190   17.8700 C.3    42  PHE42       0.0560
     27  CG        30.2620   33.0970   19.0160 C.ar   42  PHE42      -0.0200
     28  CD1       30.1490   34.4910   18.8720 C.ar   42  PHE42      -0.0042
     29  CD2       30.5440   32.5560   20.2710 C.ar   42  PHE42      -0.0042
     30  CE1       30.3600   35.3320   19.9550 C.ar   42  PHE42      -0.0003
     31  CE2       30.7410   33.3970   21.3520 C.ar   42  PHE42      -0.0003
     32  CZ        30.6560   34.7690   21.2020 C.ar   42  PHE42      -0.0000
     33  N         25.5760   29.8820   14.9300 N.3    44  GLN44      -0.1245
     34  CA        24.5200   30.2550   14.0100 C.3    44  GLN44       0.1566
     35  C         24.2440   31.7340   14.1680 C.2    44  GLN44       0.2260
     36  O         24.6520   32.3440   15.1820 O.2    44  GLN44      -0.2867
     37  CB        23.2660   29.4320   14.3190 C.3    44  GLN44       0.0367
     38  CG        22.7550   29.5620   15.7540 C.3    44  GLN44       0.0905
     39  CD        23.6280   28.8220   16.7680 C.2    44  GLN44       0.2608
     40  OE1       24.1400   27.7360   16.4940 O.2    44  GLN44      -0.2717
     41  NE2       23.7720   29.3940   17.9630 N.am   44  GLN44      -0.0878
     42  N         22.7650   35.0800   15.3250 N.3    46  VAL46      -0.1231
     43  CA        22.0000   35.6070   16.4450 C.3    46  VAL46       0.1692
     44  C         20.5130   35.6040   16.0850 C.2    46  VAL46       0.2592
     45  O         20.0740   36.2500   15.1250 O.2    46  VAL46      -0.2718
     46  CB        22.5030   37.0150   16.8620 C.3    46  VAL46       0.0266
     47  CG1       21.5100   37.7440   17.8220 C.3    46  VAL46       0.0020
     48  CG2       23.9080   36.8970   17.4260 C.3    46  VAL46       0.0020
     49  N         19.7400   34.8970   16.8870 N.am   47  ASP47      -0.1974
     50  CA        18.3140   34.8550   16.7010 C.3    47  ASP47       0.1709
     51  C         17.6610   35.7410   17.7360 C.2    47  ASP47       0.2293
     52  O         17.5310   35.3180   18.8920 O.2    47  ASP47      -0.2864
     53  CB        17.8090   33.4130   16.7940 C.3    47  ASP47       0.1436
     54  CG        16.3270   33.3030   16.5410 C.2    47  ASP47       0.3671
     55  OD1       15.5580   34.1910   16.9740 O.co2  47  ASP47      -0.2456
     56  OD2       15.9030   32.3130   15.9350 O.co2  47  ASP47      -0.2456
     57  N         14.2690   34.4280   19.4700 N.3    50  LYS50      -0.1231
     58  CA        14.4540   33.4120   20.5240 C.3    50  LYS50       0.1693
     59  C         15.1850   33.9380   21.7520 C.2    50  LYS50       0.2591
     60  O         14.8700   33.5280   22.8700 O.2    50  LYS50      -0.2718
     61  CB        15.2070   32.1700   20.0380 C.3    50  LYS50       0.0285
     62  CG        14.5110   31.3780   18.9540 C.3    50  LYS50       0.0035
     63  CD        15.2990   30.1180   18.6100 C.3    50  LYS50       0.0206
     64  CE        14.9220   29.5100   17.2670 C.3    50  LYS50       0.1093
     65  NZ        13.5440   28.9680   17.2950 N.3    50  LYS50      -0.1314
     66  N         16.1220   34.8580   21.5440 N.am   51  LEU51      -0.1980
     67  CA        16.9190   35.4280   22.6380 C.3    51  LEU51       0.1596
     68  C         16.2490   36.6520   23.2440 C.2    51  LEU51       0.2287
     69  O         16.6740   37.1450   24.2860 O.2    51  LEU51      -0.2864
     70  CB        18.3220   35.7660   22.1680 C.3    51  LEU51       0.0297
     71  CG        19.2190   34.5390   21.7830 C.3    51  LEU51       0.0022
     72  CD1       20.2990   34.9250   20.7940 C.3    51  LEU51       0.0001
     73  CD2       19.7360   33.6490   22.9380 C.3    51  LEU51       0.0001
     74  N         15.8970   39.9220   21.8760 N.3    53  LEU53      -0.1245
     75  CA        16.8190   41.0510   21.7400 C.3    53  LEU53       0.1561
     76  C         16.2040   41.9310   20.6480 C.2    53  LEU53       0.2260
     77  O         16.6450   41.9120   19.4870 O.2    53  LEU53      -0.2867
     78  CB        18.2240   40.5560   21.2840 C.3    53  LEU53       0.0270
     79  CG        18.8590   39.3880   22.0210 C.3    53  LEU53       0.0019
     80  CD1       20.0180   38.8040   21.2110 C.3    53  LEU53       0.0001
     81  CD2       19.2950   39.8100   23.4110 C.3    53  LEU53       0.0001
     82  N         18.5860   44.2270   18.5150 N.3    56  TYR56      -0.1241
     83  CA        19.8440   43.6460   17.9790 C.3    56  TYR56       0.1605
     84  C         20.1550   44.0880   16.5530 C.2    56  TYR56       0.2264
     85  O         21.2460   44.5640   16.2760 O.2    56  TYR56      -0.2867
     86  CB        19.8600   42.1110   18.0670 C.3    56  TYR56       0.0534
     87  CG        21.2200   41.5710   17.7160 C.ar   56  TYR56      -0.0201
     88  CD1       22.2590   41.6010   18.6450 C.ar   56  TYR56      -0.0009
     89  CD2       21.5070   41.1830   16.4170 C.ar   56  TYR56      -0.0009
     90  CE1       23.5070   41.1670   18.3070 C.ar   56  TYR56       0.0417
     91  CE2       22.7580   40.7220   16.0720 C.ar   56  TYR56       0.0417
     92  CZ        23.7480   40.7360   17.0050 C.ar   56  TYR56       0.1957
     93  OH        24.9790   40.3230   16.6220 O.3    56  TYR56      -0.2866
     94  N         29.9140   41.4290   18.7200 N.3    95  CYS95      -0.1235
     95  CA        29.6580   40.9710   20.0750 C.3    95  CYS95       0.1677
     96  C         30.0700   42.1350   21.0120 C.2    95  CYS95       0.2270
     97  O         29.3090   42.5060   21.8960 O.2    95  CYS95      -0.2867
     98  CB        30.4260   39.6730   20.3680 C.3    95  CYS95       0.0956
     99  SG        29.9860   38.9610   21.9520 S.3    95  CYS95      -0.0801
    100  N         27.4100   45.2350   20.7050 N.3    98  TYR98      -0.1227
    101  CA        26.0690   45.0940   21.2380 C.3    98  TYR98       0.1736
    102  C         26.0480   44.9660   22.7750 C.2    98  TYR98       0.2595
    103  O         25.1620   45.5000   23.4700 O.2    98  TYR98      -0.2718
    104  CB        25.3560   43.8950   20.6180 C.3    98  TYR98       0.0548
    105  CG        23.9620   43.7620   21.0890 C.ar   98  TYR98      -0.0200
    106  CD1       22.9430   44.5730   20.5960 C.ar   98  TYR98      -0.0009
    107  CD2       23.6480   42.8090   22.0400 C.ar   98  TYR98      -0.0009
    108  CE1       21.6420   44.4330   21.0780 C.ar   98  TYR98       0.0417
    109  CE2       22.3640   42.6790   22.5470 C.ar   98  TYR98       0.0417
    110  CZ        21.3620   43.4830   22.0540 C.ar   98  TYR98       0.1957
    111  OH        20.0820   43.2950   22.5730 O.3    98  TYR98      -0.2866
    112  N         27.0410   44.2530   23.2860 N.am   99  ASN99      -0.1974
    113  CA        27.0520   43.8260   24.6740 C.3    99  ASN99       0.1688
    114  C         27.9360   44.7240   25.4830 C.2    99  ASN99       0.2292
    115  O         28.5630   45.6400   24.9500 O.2    99  ASN99      -0.2864
    116  CB        27.5370   42.3800   24.7050 C.3    99  ASN99       0.1181
    117  CG        26.5690   41.4220   23.9860 C.2    99  ASN99       0.2629
    118  OD1       25.5050   41.1040   24.5100 O.2    99  ASN99      -0.2716
    119  ND2       26.9770   40.9080   22.8440 N.am   99  ASN99      -0.0877
    120  N         28.9150   36.7910   27.5440 N.3   105  ILE105     -0.1245
    121  CA        29.0950   36.4840   26.1200 C.3   105  ILE105      0.1561
    122  C         30.3360   37.2110   25.5880 C.2   105  ILE105      0.2260
    123  O         30.9800   36.7190   24.6870 O.2   105  ILE105     -0.2867
    124  CB        27.8460   36.8360   25.2780 C.3   105  ILE105      0.0252
    125  CG1       27.9780   36.2570   23.8660 C.3   105  ILE105      0.0019
    126  CG2       27.6010   38.3290   25.2790 C.3   105  ILE105      0.0019
    127  CD1       28.0230   34.7540   23.8220 C.3   105  ILE105      0.0001
@<TRIPOS>BOND
     1    34    35    1
     2    34    37    1
     3    34    33    1
     4    35    36    2
     5    37    38    1
     6    45    44    2
     7    42    43    1
     8    25    24    2
     9    38    39    1
    10    56    54   ar
    11    91    89   ar
    12    91    92   ar
    13    44    43    1
    14    44    49   am
    15    85    84    2
    16    89    87   ar
    17    43    46    1
    18    40    39    2
    19    54    53    1
    20    54    55   ar
    21    84    83    1
    22    24    23    1
    23    93    92    1
    24    50    53    1
    25    50    49    1
    26    50    51    1
    27    39    41   am
    28    46    48    1
    29    46    47    1
    30    92    90   ar
    31    64    65    1
    32    64    63    1
    33    87    86    1
    34    87    88   ar
    35    51    52    2
    36    23    26    1
    37    23    22    1
    38    26    27    1
    39    83    86    1
    40    83    82    1
    41    90    88   ar
    42    63    62    1
    43    94    95    1
    44    28    27   ar
    45    28    30   ar
    46    62    61    1
    47    18    17    2
    48    22    17   am
    49    27    29   ar
    50     4     3    2
    51    57    58    1
    52    77    76    2
    53    17    16    1
    54     9     7   ar
    55     9    10   ar
    56     7     6   ar
    57    30    32   ar
    58    61    58    1
    59    95    98    1
    60    95    96    1
    61    29    31   ar
    62     3     2    1
    63     3    15   am
    64    98    99    1
    65    58    59    1
    66   106   108   ar
    67   106   105   ar
    68     2     1    1
    69     2     5    1
    70   104   105    1
    71   104   101    1
    72    76    75    1
    73   100   101    1
    74    72    71    1
    75    16    15    1
    76    16    19    1
    77    96    97    2
    78    10    12   ar
    79    10     8   ar
    80   108   110   ar
    81   105   107   ar
    82    15    21    1
    83     6     5    1
    84     6     8   ar
    85    32    31   ar
    86    80    79    1
    87   101   102    1
    88    78    75    1
    89    78    79    1
    90    12    14   ar
    91    66    59   am
    92    66    67    1
    93    75    74    1
    94    59    60    2
    95    71    70    1
    96    71    73    1
    97     8    11   ar
    98    79    81    1
    99    19    20    1
   100   107   109   ar
   101   110   109   ar
   102   110   111    1
   103    70    67    1
   104    21    20    1
   105    67    68    1
   106   102   112   am
   107   102   103    2
   108   119   117   am
   109    14    13   ar
   110    68    69    2
   111   112   113    1
   112    11    13   ar
   113   127   125    1
   114   125   124    1
   115   117   118    2
   116   117   116    1
   117   113   116    1
   118   113   114    1
   119   123   122    2
   120   115   114    2
   121   124   126    1
   122   124   121    1
   123   122   121    1
   124   121   120    1
