@<TRIPOS>MOLECULE
tmp/4nr9A00.pdb
 83 79 0 0 0
SMALL
GASTEIGER

@<TRIPOS>ATOM
      1  N         70.5170   32.6790   -2.2300 N.3    33  PRO33      -0.2102
      2  CA        70.0420   33.8880   -1.6250 C.3    33  PRO33       0.1504
      3  C         69.1310   33.6980   -0.4100 C.2    33  PRO33       0.2575
      4  O         68.8170   34.7140    0.2510 O.2    33  PRO33      -0.2718
      5  CB        69.2430   34.5830   -2.7580 C.3    33  PRO33       0.0282
      6  CG        69.5800   33.8470   -3.9950 C.3    33  PRO33       0.0208
      7  CD        69.9730   32.4800   -3.5780 C.3    33  PRO33       0.0893
      8  N         68.6630   32.4640   -0.1750 N.am   34  PHE34      -0.1977
      9  CA        67.5810   32.1700    0.7820 C.3    34  PHE34       0.1639
     10  C         68.0360   31.2980    1.9230 C.2    34  PHE34       0.2290
     11  O         67.2300   30.9560    2.7420 O.2    34  PHE34      -0.2864
     12  CB        66.3870   31.5310    0.0600 C.3    34  PHE34       0.0560
     13  CG        66.0340   32.2440   -1.2130 C.ar   34  PHE34      -0.0200
     14  CD1       65.5720   33.5370   -1.1600 C.ar   34  PHE34      -0.0042
     15  CD2       66.2060   31.6380   -2.4720 C.ar   34  PHE34      -0.0042
     16  CE1       65.3640   34.2620   -2.3200 C.ar   34  PHE34      -0.0003
     17  CE2       65.9680   32.3650   -3.6380 C.ar   34  PHE34      -0.0003
     18  CZ        65.5390   33.6660   -3.5590 C.ar   34  PHE34      -0.0000
     19  N         68.4670   37.4760    5.6750 N.3    38  VAL38      -0.1245
     20  CA        69.0840   38.6760    5.1440 C.3    38  VAL38       0.1561
     21  C         69.6210   39.4830    6.3060 C.2    38  VAL38       0.2260
     22  O         68.9600   39.6160    7.3660 O.2    38  VAL38      -0.2867
     23  CB        68.1020   39.4840    4.3010 C.3    38  VAL38       0.0252
     24  CG1       68.6890   40.8520    3.9410 C.3    38  VAL38       0.0019
     25  CG2       67.7150   38.7350    3.0470 C.3    38  VAL38       0.0019
     26  N         71.9610   45.4080    4.7820 N.3    43  VAL43      -0.1245
     27  CA        71.1490   45.6790    3.6060 C.3    43  VAL43       0.1561
     28  C         70.1610   46.8330    3.8500 C.2    43  VAL43       0.2260
     29  O         69.0200   46.6250    4.3250 O.2    43  VAL43      -0.2867
     30  CB        70.4150   44.4440    3.1240 C.3    43  VAL43       0.0252
     31  CG1       69.6700   44.7610    1.8210 C.3    43  VAL43       0.0019
     32  CG2       71.3940   43.2680    2.9340 C.3    43  VAL43       0.0019
     33  N         65.8980   47.0210    3.9950 N.3    46  TYR46      -0.1241
     34  CA        65.2820   45.7210    4.1220 C.3    46  TYR46       0.1605
     35  C         64.4120   45.6100    5.3590 C.2    46  TYR46       0.2264
     36  O         63.2800   45.1210    5.3000 O.2    46  TYR46      -0.2867
     37  CB        66.3100   44.5750    4.0980 C.3    46  TYR46       0.0534
     38  CG        65.6760   43.2830    3.6580 C.ar   46  TYR46      -0.0201
     39  CD1       65.5730   42.9420    2.3070 C.ar   46  TYR46      -0.0009
     40  CD2       65.1310   42.4190    4.5850 C.ar   46  TYR46      -0.0009
     41  CE1       65.0150   41.7220    1.9050 C.ar   46  TYR46       0.0417
     42  CE2       64.5540   41.2110    4.1920 C.ar   46  TYR46       0.0417
     43  CZ        64.4920   40.8550    2.8680 C.ar   46  TYR46       0.1957
     44  OH        63.8610   39.6620    2.5370 O.3    46  TYR46      -0.2866
     45  N         61.2200   38.0990   -1.6350 N.3    85  CYS85      -0.1235
     46  CA        62.2330   38.2610   -2.6680 C.3    85  CYS85       0.1677
     47  C         61.7140   39.1590   -3.7810 C.2    85  CYS85       0.2270
     48  O         62.4050   40.0490   -4.2890 O.2    85  CYS85      -0.2867
     49  CB        62.5790   36.9050   -3.2440 C.3    85  CYS85       0.0956
     50  SG        63.8650   36.9300   -4.4850 S.3    85  CYS85      -0.0801
     51  N         61.5610   42.9510   -2.8630 N.3    88  PHE88      -0.1227
     52  CA        62.8040   43.6610   -2.7670 C.3    88  PHE88       0.1736
     53  C         63.7290   43.6770   -4.0080 C.2    88  PHE88       0.2595
     54  O         64.5690   44.5770   -4.1040 O.2    88  PHE88      -0.2718
     55  CB        63.5790   43.1920   -1.5190 C.3    88  PHE88       0.0547
     56  CG        64.4460   44.2800   -0.9130 C.ar   88  PHE88      -0.0202
     57  CD1       63.8980   45.2490   -0.0930 C.ar   88  PHE88      -0.0042
     58  CD2       65.8050   44.3170   -1.1670 C.ar   88  PHE88      -0.0042
     59  CE1       64.6850   46.2450    0.4690 C.ar   88  PHE88      -0.0003
     60  CE2       66.6020   45.2890   -0.6070 C.ar   88  PHE88      -0.0003
     61  CZ        66.0430   46.2710    0.2220 C.ar   88  PHE88      -0.0000
     62  N         63.5750   42.7330   -4.9370 N.am   89  ASN89      -0.1974
     63  CA        64.5480   42.5140   -5.9950 C.3    89  ASN89       0.1688
     64  C         63.8390   42.5880   -7.3240 C.2    89  ASN89       0.2292
     65  O         62.6600   42.1750   -7.4340 O.2    89  ASN89      -0.2864
     66  CB        65.1870   41.1380   -5.9090 C.3    89  ASN89       0.1181
     67  CG        65.9560   40.9300   -4.6340 C.2    89  ASN89       0.2629
     68  OD1       67.1660   41.1730   -4.5990 O.2    89  ASN89      -0.2716
     69  ND2       65.2750   40.4400   -3.5820 N.am   89  ASN89      -0.0877
     70  N         67.1290   40.2600  -12.2550 N.3    93  SER93      -0.1217
     71  CA        68.2990   40.2840  -11.3950 C.3    93  SER93       0.1889
     72  C         68.5800   38.8240  -11.0810 C.2    93  SER93       0.2288
     73  O         67.7010   37.9650  -11.2670 O.2    93  SER93      -0.2866
     74  CB        68.0230   41.0870  -10.1270 C.3    93  SER93       0.2089
     75  OG        67.1420   40.4490   -9.2080 O.3    93  SER93      -0.2183
     76  N         69.0960   37.4470   -8.1140 N.3    95  ILE95      -0.1245
     77  CA        68.2810   37.0190   -6.9770 C.3    95  ILE95       0.1561
     78  C         66.7860   36.9860   -7.3570 C.2    95  ILE95       0.2260
     79  O         66.0580   36.0720   -6.9440 O.2    95  ILE95      -0.2867
     80  CB        68.5090   37.9340   -5.7450 C.3    95  ILE95       0.0252
     81  CG1       69.9900   37.8050   -5.2720 C.3    95  ILE95       0.0019
     82  CG2       67.4960   37.6040   -4.6530 C.3    95  ILE95       0.0019
     83  CD1       70.3550   38.7570   -4.1480 C.3    95  ILE95       0.0001
@<TRIPOS>BOND
     1    70    71    1
     2    71    72    1
     3    71    74    1
     4    73    72    2
     5    74    75    1
     6    76    77    1
     7    65    64    2
     8    78    77    1
     9    78    79    2
    10    64    63    1
    11    77    80    1
    12    63    66    1
    13    63    62    1
    14    66    67    1
    15    80    81    1
    16    80    82    1
    17    81    83    1
    18    62    53   am
    19    67    68    2
    20    67    69   am
    21    50    49    1
    22    48    47    2
    23    54    53    2
    24    53    52    1
    25     6     7    1
    26     6     5    1
    27    47    46    1
    28    17    18   ar
    29    17    15   ar
    30     7     1    1
    31    18    16   ar
    32    49    46    1
    33    51    52    1
    34    52    55    1
    35     5     2    1
    36    46    45    1
    37    15    13   ar
    38    16    14   ar
    39     1     2    1
    40     2     3    1
    41    55    56    1
    42    13    14   ar
    43    13    12    1
    44    58    56   ar
    45    58    60   ar
    46    56    57   ar
    47    60    61   ar
    48     3     8   am
    49     3     4    2
    50     8     9    1
    51    57    59   ar
    52    12     9    1
    53    61    59   ar
    54     9    10    1
    55    31    30    1
    56    41    39   ar
    57    41    43   ar
    58    10    11    2
    59    39    38   ar
    60    44    43    1
    61    43    42   ar
    62    32    30    1
    63    25    23    1
    64    30    27    1
    65    27    28    1
    66    27    26    1
    67    38    37    1
    68    38    40   ar
    69    28    29    2
    70    24    23    1
    71    33    34    1
    72    37    34    1
    73    34    35    1
    74    42    40   ar
    75    23    20    1
    76    20    19    1
    77    20    21    1
    78    36    35    2
    79    21    22    2
