@<TRIPOS>MOLECULE
tmp/4nraA00.pdb
 91 90 0 0 0
SMALL
GASTEIGER

@<TRIPOS>ATOM
      1  N         70.0230   30.0690   -2.9050 N.3    32  TRP32      -0.1228
      2  CA        71.0030   30.9110   -2.1870 C.3    32  TRP32       0.1722
      3  C         70.4210   32.2090   -1.6420 C.2    32  TRP32       0.2437
      4  O         70.8160   32.5990   -0.5400 O.2    32  TRP32      -0.2733
      5  CB        72.2780   31.1510   -2.9880 C.3    32  TRP32       0.0563
      6  CG        72.0250   31.7460   -4.2790 C.ar   32  TRP32       0.0003
      7  CD1       71.8320   31.0800   -5.4500 C.ar   32  TRP32       0.0946
      8  CD2       71.9210   33.1380   -4.5760 C.ar   32  TRP32       0.0152
      9  NE1       71.5880   31.9660   -6.4580 N.ar   32  TRP32      -0.2442
     10  CE2       71.6490   33.2430   -5.9580 C.ar   32  TRP32       0.0810
     11  CE3       72.0220   34.3190   -3.8090 C.ar   32  TRP32       0.0012
     12  CZ2       71.4750   34.4750   -6.5980 C.ar   32  TRP32       0.0191
     13  CZ3       71.8500   35.5440   -4.4420 C.ar   32  TRP32       0.0001
     14  CH2       71.5700   35.6140   -5.8320 C.ar   32  TRP32       0.0015
     15  N         69.4530   32.8510   -2.3340 N.am   33  PRO33      -0.2718
     16  CA        68.9720   34.0730   -1.7120 C.3    33  PRO33       0.1535
     17  C         68.1370   33.8550   -0.4610 C.2    33  PRO33       0.2598
     18  O         67.8360   34.8520    0.2140 O.2    33  PRO33      -0.2715
     19  CB        68.0690   34.7130   -2.7960 C.3    33  PRO33       0.0310
     20  CG        68.4460   34.0690   -4.0730 C.3    33  PRO33       0.0237
     21  CD        68.8360   32.6710   -3.6730 C.3    33  PRO33       0.0939
     22  N         67.6980   32.6090   -0.2370 N.am   34  PHE34      -0.1974
     23  CA        66.5970   32.2870    0.6810 C.3    34  PHE34       0.1639
     24  C         67.0330   31.4250    1.8770 C.2    34  PHE34       0.2290
     25  O         66.2130   31.0600    2.7290 O.2    34  PHE34      -0.2864
     26  CB        65.4400   31.6100   -0.0720 C.3    34  PHE34       0.0560
     27  CG        65.0590   32.3310   -1.3470 C.ar   34  PHE34      -0.0200
     28  CD1       64.5700   33.6350   -1.2900 C.ar   34  PHE34      -0.0042
     29  CD2       65.2490   31.7500   -2.5800 C.ar   34  PHE34      -0.0042
     30  CE1       64.2930   34.3320   -2.4240 C.ar   34  PHE34      -0.0003
     31  CE2       64.9610   32.4560   -3.7370 C.ar   34  PHE34      -0.0003
     32  CZ        64.4820   33.7310   -3.6660 C.ar   34  PHE34      -0.0000
     33  N         67.4230   37.5620    5.6830 N.3    38  VAL38      -0.1245
     34  CA        68.0200   38.8260    5.1580 C.3    38  VAL38       0.1561
     35  C         68.5800   39.5990    6.3020 C.2    38  VAL38       0.2260
     36  O         67.9210   39.6960    7.3780 O.2    38  VAL38      -0.2867
     37  CB        66.9620   39.6740    4.4530 C.3    38  VAL38       0.0252
     38  CG1       67.5400   41.0370    4.0050 C.3    38  VAL38       0.0019
     39  CG2       66.4040   38.9210    3.2680 C.3    38  VAL38       0.0019
     40  N         70.8510   45.4310    4.7060 N.3    43  VAL43      -0.1245
     41  CA        70.0310   45.6210    3.5190 C.3    43  VAL43       0.1561
     42  C         69.0290   46.7700    3.7290 C.2    43  VAL43       0.2260
     43  O         67.9690   46.5770    4.3150 O.2    43  VAL43      -0.2867
     44  CB        69.3000   44.3460    3.1020 C.3    43  VAL43       0.0252
     45  CG1       68.4960   44.5780    1.8310 C.3    43  VAL43       0.0019
     46  CG2       70.3100   43.1970    2.9200 C.3    43  VAL43       0.0019
     47  N         64.7880   46.8660    3.8940 N.3    46  TYR46      -0.1241
     48  CA        64.1460   45.5680    4.0990 C.3    46  TYR46       0.1605
     49  C         63.2860   45.5250    5.3480 C.2    46  TYR46       0.2264
     50  O         62.1310   45.0450    5.3160 O.2    46  TYR46      -0.2867
     51  CB        65.1710   44.4030    4.1530 C.3    46  TYR46       0.0534
     52  CG        64.5160   43.1300    3.7080 C.ar   46  TYR46      -0.0201
     53  CD1       64.4350   42.8030    2.3460 C.ar   46  TYR46      -0.0009
     54  CD2       63.9120   42.2740    4.6330 C.ar   46  TYR46      -0.0009
     55  CE1       63.8070   41.6090    1.9340 C.ar   46  TYR46       0.0417
     56  CE2       63.2820   41.1040    4.2280 C.ar   46  TYR46       0.0417
     57  CZ        63.2110   40.7730    2.8920 C.ar   46  TYR46       0.1957
     58  OH        62.5400   39.6120    2.4780 O.3    46  TYR46      -0.2866
     59  N         60.0450   38.0390   -1.6910 N.3    85  CYS85      -0.1235
     60  CA        61.0730   38.2200   -2.6960 C.3    85  CYS85       0.1677
     61  C         60.4820   39.0670   -3.8380 C.2    85  CYS85       0.2270
     62  O         61.1550   39.9610   -4.3710 O.2    85  CYS85      -0.2867
     63  CB        61.5470   36.8640   -3.1890 C.3    85  CYS85       0.0956
     64  SG        62.7140   36.8980   -4.5670 S.3    85  CYS85      -0.0801
     65  N         60.2520   42.8350   -2.9740 N.3    88  PHE88      -0.1227
     66  CA        61.4900   43.5500   -2.8420 C.3    88  PHE88       0.1736
     67  C         62.4100   43.5490   -4.0290 C.2    88  PHE88       0.2595
     68  O         63.3770   44.3570   -4.0800 O.2    88  PHE88      -0.2718
     69  CB        62.2440   43.0340   -1.6000 C.3    88  PHE88       0.0547
     70  CG        63.2030   44.0700   -0.9760 C.ar   88  PHE88      -0.0202
     71  CD1       62.7200   45.0710   -0.1430 C.ar   88  PHE88      -0.0042
     72  CD2       64.5710   43.9890   -1.1730 C.ar   88  PHE88      -0.0042
     73  CE1       63.5610   45.9950    0.4420 C.ar   88  PHE88      -0.0003
     74  CE2       65.4240   44.9080   -0.6020 C.ar   88  PHE88      -0.0003
     75  CZ        64.9180   45.9110    0.2210 C.ar   88  PHE88      -0.0000
     76  N         62.1400   42.6820   -5.0020 N.am   89  ASN89      -0.1974
     77  CA        63.1150   42.4370   -6.0490 C.3    89  ASN89       0.1688
     78  C         62.4090   42.5480   -7.4060 C.2    89  ASN89       0.2292
     79  O         61.2520   42.1400   -7.5230 O.2    89  ASN89      -0.2864
     80  CB        63.7040   41.0530   -5.9300 C.3    89  ASN89       0.1181
     81  CG        64.5950   40.8820   -4.7260 C.2    89  ASN89       0.2629
     82  OD1       65.7730   41.1860   -4.7770 O.2    89  ASN89      -0.2716
     83  ND2       64.0410   40.3400   -3.6540 N.am   89  ASN89      -0.0877
     84  N         67.8780   37.5510   -8.2680 N.3    95  ILE95      -0.1245
     85  CA        67.0840   37.1540   -7.1420 C.3    95  ILE95       0.1561
     86  C         65.6010   37.0590   -7.4720 C.2    95  ILE95       0.2260
     87  O         64.9400   36.1430   -6.9720 O.2    95  ILE95      -0.2867
     88  CB        67.3450   38.0790   -5.9350 C.3    95  ILE95       0.0252
     89  CG1       68.7880   37.8360   -5.4520 C.3    95  ILE95       0.0019
     90  CG2       66.3360   37.8000   -4.8190 C.3    95  ILE95       0.0019
     91  CD1       69.2810   38.8570   -4.4430 C.3    95  ILE95       0.0001
@<TRIPOS>BOND
     1    84    85    1
     2    79    78    2
     3    86    85    1
     4    86    87    2
     5    78    77    1
     6    85    88    1
     7    12    10   ar
     8    12    14   ar
     9     9    10   ar
    10     9     7   ar
    11    77    80    1
    12    77    76    1
    13    10     8   ar
    14    88    89    1
    15    88    90    1
    16    80    81    1
    17    14    13   ar
    18    89    91    1
    19     7     6   ar
    20    76    67   am
    21    82    81    2
    22    81    83   am
    23     8     6   ar
    24     8    11   ar
    25    64    63    1
    26    13    11   ar
    27    62    61    2
    28     6     5    1
    29    68    67    2
    30    20    21    1
    31    20    19    1
    32    67    66    1
    33    61    60    1
    34    31    32   ar
    35    31    29   ar
    36    21    15    1
    37    32    30   ar
    38    63    60    1
    39     5     2    1
    40    65    66    1
    41     1     2    1
    42    66    69    1
    43    19    16    1
    44    60    59    1
    45    29    27   ar
    46    30    28   ar
    47    15    16    1
    48    15     3   am
    49     2     3    1
    50    16    17    1
    51     3     4    2
    52    69    70    1
    53    27    28   ar
    54    27    26    1
    55    72    70   ar
    56    72    74   ar
    57    70    71   ar
    58    74    75   ar
    59    17    22   am
    60    17    18    2
    61    22    23    1
    62    71    73   ar
    63    26    23    1
    64    75    73   ar
    65    23    24    1
    66    45    44    1
    67    24    25    2
    68    55    53   ar
    69    55    57   ar
    70    53    52   ar
    71    58    57    1
    72    57    56   ar
    73    46    44    1
    74    44    41    1
    75    39    37    1
    76    41    42    1
    77    41    40    1
    78    52    51    1
    79    52    54   ar
    80    42    43    2
    81    47    48    1
    82    38    37    1
    83    48    51    1
    84    48    49    1
    85    56    54   ar
    86    37    34    1
    87    34    33    1
    88    34    35    1
    89    50    49    2
    90    35    36    2
