@<TRIPOS>MOLECULE
tmp/4nrbA00.pdb
 121 120 0 0 0
SMALL
GASTEIGER

@<TRIPOS>ATOM
      1  N         29.5200   18.4780    2.4980 N.3    32  TRP32      -0.1228
      2  CA        30.4640   17.5800    1.8330 C.3    32  TRP32       0.1722
      3  C         29.8510   16.2290    1.3630 C.2    32  TRP32       0.2437
      4  O         30.2350   15.8260    0.2650 O.2    32  TRP32      -0.2733
      5  CB        31.7460   17.3470    2.6660 C.3    32  TRP32       0.0563
      6  CG        31.5140   16.7370    4.0130 C.ar   32  TRP32       0.0003
      7  CD1       31.3010   17.4010    5.1850 C.ar   32  TRP32       0.0946
      8  CD2       31.4900   15.3320    4.3340 C.ar   32  TRP32       0.0152
      9  NE1       31.0640   16.5050    6.1970 N.ar   32  TRP32      -0.2442
     10  CE2       31.1830   15.2260    5.7080 C.ar   32  TRP32       0.0810
     11  CE3       31.6220   14.1480    3.5750 C.ar   32  TRP32       0.0012
     12  CZ2       31.0160   13.9830    6.3480 C.ar   32  TRP32       0.0191
     13  CZ3       31.4710   12.9180    4.2110 C.ar   32  TRP32       0.0001
     14  CH2       31.1940   12.8420    5.5840 C.ar   32  TRP32       0.0015
     15  N         28.9040   15.5160    2.0540 N.am   33  PRO33      -0.2718
     16  CA        28.3940   14.2680    1.4540 C.3    33  PRO33       0.1535
     17  C         27.5090   14.5020    0.2270 C.2    33  PRO33       0.2598
     18  O         27.2730   13.5490   -0.5250 O.2    33  PRO33      -0.2715
     19  CB        27.5470   13.6420    2.5840 C.3    33  PRO33       0.0310
     20  CG        27.9640   14.3520    3.8600 C.3    33  PRO33       0.0237
     21  CD        28.2940   15.7450    3.3850 C.3    33  PRO33       0.0939
     22  N         26.9860   15.7460    0.0440 N.am   34  PHE34      -0.1974
     23  CA        25.9860   16.0550   -0.9980 C.3    34  PHE34       0.1639
     24  C         26.4550   16.9390   -2.1400 C.2    34  PHE34       0.2290
     25  O         25.6460   17.2990   -2.9960 O.2    34  PHE34      -0.2864
     26  CB        24.7680   16.7150   -0.3370 C.3    34  PHE34       0.0560
     27  CG        24.4350   16.1040    1.0070 C.ar   34  PHE34      -0.0200
     28  CD1       23.9030   14.8190    1.0950 C.ar   34  PHE34      -0.0042
     29  CD2       24.7230   16.7860    2.1900 C.ar   34  PHE34      -0.0042
     30  CE1       23.6190   14.2410    2.3370 C.ar   34  PHE34      -0.0003
     31  CE2       24.4240   16.2160    3.4320 C.ar   34  PHE34      -0.0003
     32  CZ        23.8900   14.9380    3.4970 C.ar   34  PHE34      -0.0000
     33  N         28.6000   16.3720   -4.7130 N.3    36  LEU36      -0.1231
     34  CA        28.7000   15.6990   -5.9970 C.3    36  LEU36       0.1678
     35  C         27.8930   14.4190   -6.0020 C.2    36  LEU36       0.2434
     36  O         27.5360   13.9340   -4.9170 O.2    36  LEU36      -0.2733
     37  CB        30.1770   15.4020   -6.3130 C.3    36  LEU36       0.0284
     38  CG        31.0780   16.6270   -6.5760 C.3    36  LEU36       0.0019
     39  CD1       32.5220   16.2010   -6.7380 C.3    36  LEU36       0.0001
     40  CD2       30.6350   17.3930   -7.8390 C.3    36  LEU36       0.0001
     41  N         27.5210   13.8750   -7.1930 N.am   37  PRO37      -0.2718
     42  CA        26.7800   12.6090   -7.1860 C.3    37  PRO37       0.1535
     43  C         27.5490   11.5280   -6.4320 C.2    37  PRO37       0.2598
     44  O         28.7830   11.4710   -6.5180 O.2    37  PRO37      -0.2715
     45  CB        26.6640   12.2380   -8.6790 C.3    37  PRO37       0.0310
     46  CG        26.8980   13.4910   -9.4220 C.3    37  PRO37       0.0237
     47  CD        27.8200   14.3210   -8.5760 C.3    37  PRO37       0.0939
     48  N         26.8240   10.6840   -5.6720 N.am   38  VAL38      -0.1964
     49  CA        27.4240    9.5070   -5.0340 C.3    38  VAL38       0.1727
     50  C         27.9620    8.6340   -6.1850 C.2    38  VAL38       0.2616
     51  O         27.2420    8.4010   -7.1670 O.2    38  VAL38      -0.2715
     52  CB        26.4360    8.7390   -4.1200 C.3    38  VAL38       0.0290
     53  CG1       27.0540    7.4450   -3.5930 C.3    38  VAL38       0.0023
     54  CG2       25.9530    9.6150   -2.9690 C.3    38  VAL38       0.0023
     55  N         29.2440    8.2410   -6.1000 N.am   39  ASN39      -0.1972
     56  CA        29.8920    7.4280   -7.1330 C.3    39  ASN39       0.1688
     57  C         29.3390    6.0020   -7.1120 C.2    39  ASN39       0.2292
     58  O         29.6890    5.2020   -6.2400 O.2    39  ASN39      -0.2864
     59  CB        31.4120    7.4410   -6.9620 C.3    39  ASN39       0.1181
     60  CG        32.1660    6.8200   -8.1070 C.2    39  ASN39       0.2629
     61  OD1       31.7460    5.8260   -8.7020 O.2    39  ASN39      -0.2716
     62  ND2       33.3180    7.3780   -8.4180 N.am   39  ASN39      -0.0877
     63  N         30.4600    2.7620   -4.6870 N.3    43  VAL43      -0.1245
     64  CA        29.5850    2.5450   -3.5220 C.3    43  VAL43       0.1561
     65  C         28.5820    1.4000   -3.8330 C.2    43  VAL43       0.2260
     66  O         27.5450    1.6280   -4.4820 O.2    43  VAL43      -0.2867
     67  CB        28.8730    3.8580   -3.0570 C.3    43  VAL43       0.0252
     68  CG1       28.0490    3.6340   -1.7840 C.3    43  VAL43       0.0019
     69  CG2       29.8810    4.9970   -2.8450 C.3    43  VAL43       0.0019
     70  N         24.2260    1.2880   -3.9130 N.3    46  TYR46      -0.1241
     71  CA        23.6450    2.6140   -4.1200 C.3    46  TYR46       0.1605
     72  C         22.8040    2.7280   -5.4000 C.2    46  TYR46       0.2264
     73  O         21.6880    3.2590   -5.3360 O.2    46  TYR46      -0.2867
     74  CB        24.7180    3.7280   -4.0790 C.3    46  TYR46       0.0534
     75  CG        24.1050    5.0590   -3.6950 C.ar   46  TYR46      -0.0201
     76  CD1       23.9470    5.4140   -2.3570 C.ar   46  TYR46      -0.0009
     77  CD2       23.5870    5.9200   -4.6630 C.ar   46  TYR46      -0.0009
     78  CE1       23.3720    6.6330   -1.9940 C.ar   46  TYR46       0.0417
     79  CE2       22.9830    7.1330   -4.3100 C.ar   46  TYR46       0.0417
     80  CZ        22.8580    7.4720   -2.9710 C.ar   46  TYR46       0.1957
     81  OH        22.2690    8.6590   -2.6030 O.3    46  TYR46      -0.2866
     82  N         17.4740   14.7510   -1.9310 N.3    81  VAL81      -0.1245
     83  CA        18.8610   14.5640   -1.4830 C.3    81  VAL81       0.1561
     84  C         18.8610   13.9570   -0.0600 C.2    81  VAL81       0.2260
     85  O         19.5330   12.9560    0.1990 O.2    81  VAL81      -0.2867
     86  CB        19.6580   15.8980   -1.5390 C.3    81  VAL81       0.0252
     87  CG1       21.0140   15.7860   -0.8470 C.3    81  VAL81       0.0019
     88  CG2       19.8240   16.3920   -2.9640 C.3    81  VAL81       0.0019
     89  N         19.5410   10.1930    1.5110 N.3    85  CYS85      -0.1235
     90  CA        20.5430   10.0780    2.5520 C.3    85  CYS85       0.1677
     91  C         20.0110    9.2160    3.7200 C.2    85  CYS85       0.2270
     92  O         20.7310    8.3280    4.1610 O.2    85  CYS85      -0.2867
     93  CB        21.0280   11.4430    3.0130 C.3    85  CYS85       0.0956
     94  SG        22.1690   11.3880    4.4170 S.3    85  CYS85      -0.0801
     95  N         19.8410    5.3980    2.7990 N.3    88  PHE88      -0.1227
     96  CA        21.0860    4.6380    2.7010 C.3    88  PHE88       0.1736
     97  C         21.9820    4.7240    3.9400 C.2    88  PHE88       0.2595
     98  O         22.9100    3.9190    4.0740 O.2    88  PHE88      -0.2718
     99  CB        21.8820    5.0770    1.4460 C.3    88  PHE88       0.0547
    100  CG        22.7560    3.9980    0.8200 C.ar   88  PHE88      -0.0202
    101  CD1       22.1990    3.0010    0.0130 C.ar   88  PHE88      -0.0042
    102  CD2       24.1330    3.9840    1.0290 C.ar   88  PHE88      -0.0042
    103  CE1       23.0020    2.0080   -0.5590 C.ar   88  PHE88      -0.0003
    104  CE2       24.9370    2.9800    0.4610 C.ar   88  PHE88      -0.0003
    105  CZ        24.3640    2.0000   -0.3290 C.ar   88  PHE88      -0.0000
    106  N         21.7410    5.6930    4.8240 N.am   89  ASN89      -0.1974
    107  CA        22.6000    5.8890    5.9690 C.3    89  ASN89       0.1688
    108  C         21.8740    5.7640    7.2880 C.2    89  ASN89       0.2292
    109  O         20.7260    6.2050    7.4460 O.2    89  ASN89      -0.2864
    110  CB        23.2770    7.2640    5.8950 C.3    89  ASN89       0.1181
    111  CG        24.1040    7.4270    4.6490 C.2    89  ASN89       0.2629
    112  OD1       25.2690    7.0610    4.6160 O.2    89  ASN89      -0.2716
    113  ND2       23.5050    7.9360    3.5770 N.am   89  ASN89      -0.0877
    114  N         27.3900   10.8950    7.9650 N.3    95  ILE95      -0.1245
    115  CA        26.5650   11.2430    6.7850 C.3    95  ILE95       0.1561
    116  C         25.0740   11.3190    7.2070 C.2    95  ILE95       0.2260
    117  O         24.3820   12.2790    6.8470 O.2    95  ILE95      -0.2867
    118  CB        26.8130   10.2770    5.5950 C.3    95  ILE95       0.0252
    119  CG1       28.2850   10.3970    5.0950 C.3    95  ILE95       0.0019
    120  CG2       25.8210   10.5470    4.4480 C.3    95  ILE95       0.0019
    121  CD1       28.7970    9.2720    4.0860 C.3    95  ILE95       0.0001
@<TRIPOS>BOND
     1    46    45    1
     2    46    47    1
     3    61    60    2
     4    45    42    1
     5    47    41    1
     6    62    60   am
     7    60    59    1
     8    40    38    1
     9    41    42    1
    10    41    35   am
    11    42    43    1
    12    51    50    2
    13    56    57    1
    14    56    59    1
    15    56    55    1
    16    57    58    2
    17    39    38    1
    18    38    37    1
    19    44    43    2
    20    43    48   am
    21    37    34    1
    22    50    55   am
    23    50    49    1
    24    35    34    1
    25    35    36    2
    26    34    33    1
    27    48    49    1
    28    72    73    2
    29    72    71    1
    30    49    52    1
    31    63    64    1
    32    77    79   ar
    33    77    75   ar
    34    66    65    2
    35    79    80   ar
    36    52    53    1
    37    52    54    1
    38    71    74    1
    39    71    70    1
    40    74    75    1
    41    65    64    1
    42    75    76   ar
    43    64    67    1
    44    67    69    1
    45    67    68    1
    46    25    24    2
    47    80    81    1
    48    80    78   ar
    49    88    86    1
    50    76    78   ar
    51    24    23    1
    52    82    83    1
    53    86    83    1
    54    86    87    1
    55    83    84    1
    56    23    26    1
    57    23    22    1
    58   103   105   ar
    59   103   101   ar
    60    18    17    2
    61    26    27    1
    62   105   104   ar
    63    84    85    2
    64   101   100   ar
    65    22    17   am
    66    17    16    1
    67     4     3    2
    68   104   102   ar
    69   100   102   ar
    70   100    99    1
    71    27    28   ar
    72    27    29   ar
    73    28    30   ar
    74     3     2    1
    75     3    15   am
    76    99    96    1
    77    16    15    1
    78    16    19    1
    79    89    90    1
    80     2     1    1
    81     2     5    1
    82    15    21    1
    83    29    31   ar
    84    30    32   ar
    85    90    93    1
    86    90    91    1
    87    19    20    1
    88     5     6    1
    89    96    95    1
    90    96    97    1
    91    93    94    1
    92    21    20    1
    93    31    32   ar
    94    11    13   ar
    95    11     8   ar
    96   113   111   am
    97    91    92    2
    98    97    98    2
    99    97   106   am
   100     6     8   ar
   101     6     7   ar
   102   121   119    1
   103    13    14   ar
   104     8    10   ar
   105   120   118    1
   106   112   111    2
   107   111   110    1
   108   106   107    1
   109   119   118    1
   110     7     9   ar
   111    14    12   ar
   112   118   115    1
   113    10     9   ar
   114    10    12   ar
   115   110   107    1
   116   107   108    1
   117   115   116    1
   118   115   114    1
   119   117   116    2
   120   108   109    2
