@<TRIPOS>MOLECULE
tmp/4nrcA00.pdb
 98 96 0 0 0
SMALL
GASTEIGER

@<TRIPOS>ATOM
      1  N        -29.4720  -18.4790    2.3740 N.3    32  TRP32      -0.1228
      2  CA       -30.3990  -17.5610    1.7030 C.3    32  TRP32       0.1722
      3  C        -29.7710  -16.2140    1.2300 C.2    32  TRP32       0.2437
      4  O        -30.1400  -15.8100    0.1370 O.2    32  TRP32      -0.2733
      5  CB       -31.6800  -17.3060    2.5150 C.3    32  TRP32       0.0563
      6  CG       -31.4640  -16.6940    3.8610 C.ar   32  TRP32       0.0003
      7  CD1      -31.2690  -17.3570    5.0390 C.ar   32  TRP32       0.0946
      8  CD2      -31.4070  -15.2930    4.1710 C.ar   32  TRP32       0.0152
      9  NE1      -31.0570  -16.4580    6.0560 N.ar   32  TRP32      -0.2442
     10  CE2      -31.1470  -15.1830    5.5570 C.ar   32  TRP32       0.0810
     11  CE3      -31.5260  -14.1150    3.4060 C.ar   32  TRP32       0.0012
     12  CZ2      -31.0090  -13.9440    6.2000 C.ar   32  TRP32       0.0191
     13  CZ3      -31.3950  -12.8840    4.0450 C.ar   32  TRP32       0.0001
     14  CH2      -31.1630  -12.8070    5.4290 C.ar   32  TRP32       0.0015
     15  N        -28.8340  -15.5140    1.9370 N.am   33  PRO33      -0.2718
     16  CA       -28.3070  -14.2570    1.3700 C.3    33  PRO33       0.1535
     17  C        -27.3820  -14.4560    0.1630 C.2    33  PRO33       0.2598
     18  O        -27.0670  -13.4720   -0.5040 O.2    33  PRO33      -0.2715
     19  CB       -27.4990  -13.6440    2.5320 C.3    33  PRO33       0.0310
     20  CG       -27.9120  -14.4050    3.7840 C.3    33  PRO33       0.0237
     21  CD       -28.2420  -15.7850    3.2680 C.3    33  PRO33       0.0939
     22  N        -26.9200  -15.7040   -0.0820 N.am   34  PHE34      -0.1974
     23  CA       -25.8860  -16.0420   -1.0640 C.3    34  PHE34       0.1639
     24  C        -26.3410  -16.8970   -2.2410 C.2    34  PHE34       0.2290
     25  O        -25.4950  -17.2410   -3.0750 O.2    34  PHE34      -0.2864
     26  CB       -24.7550  -16.7990   -0.3190 C.3    34  PHE34       0.0560
     27  CG       -24.3710  -16.1470    0.9950 C.ar   34  PHE34      -0.0200
     28  CD1      -23.7850  -14.8820    1.0180 C.ar   34  PHE34      -0.0042
     29  CD2      -24.6640  -16.7660    2.2090 C.ar   34  PHE34      -0.0042
     30  CE1      -23.4900  -14.2450    2.2300 C.ar   34  PHE34      -0.0003
     31  CE2      -24.3340  -16.1490    3.4200 C.ar   34  PHE34      -0.0003
     32  CZ       -23.7700  -14.8830    3.4250 C.ar   34  PHE34      -0.0000
     33  N        -26.7460  -10.6010   -5.8330 N.3    38  VAL38      -0.1245
     34  CA       -27.3640   -9.4240   -5.1920 C.3    38  VAL38       0.1561
     35  C        -27.9370   -8.5300   -6.3180 C.2    38  VAL38       0.2260
     36  O        -27.2720   -8.3310   -7.3380 O.2    38  VAL38      -0.2867
     37  CB       -26.3620   -8.6750   -4.2720 C.3    38  VAL38       0.0252
     38  CG1      -26.9380   -7.3450   -3.7680 C.3    38  VAL38       0.0019
     39  CG2      -25.9290   -9.5680   -3.1050 C.3    38  VAL38       0.0019
     40  N        -30.3520   -2.6910   -4.7660 N.3    43  VAL43      -0.1245
     41  CA       -29.4950   -2.5120   -3.5880 C.3    43  VAL43       0.1561
     42  C        -28.5210   -1.3390   -3.8420 C.2    43  VAL43       0.2260
     43  O        -27.4550   -1.5380   -4.4460 O.2    43  VAL43      -0.2867
     44  CB       -28.7630   -3.8190   -3.1610 C.3    43  VAL43       0.0252
     45  CG1      -27.9050   -3.5890   -1.9080 C.3    43  VAL43       0.0019
     46  CG2      -29.7600   -4.9590   -2.9280 C.3    43  VAL43       0.0019
     47  N        -24.2490   -1.2570   -3.7950 N.3    46  TYR46      -0.1241
     48  CA       -23.6460   -2.5750   -4.0300 C.3    46  TYR46       0.1605
     49  C        -22.8050   -2.6440   -5.3230 C.2    46  TYR46       0.2264
     50  O        -21.6470   -3.0630   -5.2600 O.2    46  TYR46      -0.2867
     51  CB       -24.6810   -3.7120   -3.9980 C.3    46  TYR46       0.0534
     52  CG       -24.0420   -5.0350   -3.6270 C.ar   46  TYR46      -0.0201
     53  CD1      -23.8960   -5.4140   -2.2910 C.ar   46  TYR46      -0.0009
     54  CD2      -23.5530   -5.8960   -4.6080 C.ar   46  TYR46      -0.0009
     55  CE1      -23.3180   -6.6380   -1.9440 C.ar   46  TYR46       0.0417
     56  CE2      -22.9420   -7.1070   -4.2720 C.ar   46  TYR46       0.0417
     57  CZ       -22.8150   -7.4660   -2.9370 C.ar   46  TYR46       0.1957
     58  OH       -22.1980   -8.6410   -2.6030 O.3    46  TYR46      -0.2866
     59  N        -17.4270  -14.7240   -2.1230 N.3    81  VAL81      -0.1245
     60  CA       -18.8090  -14.5590   -1.6380 C.3    81  VAL81       0.1561
     61  C        -18.7780  -14.0140   -0.1910 C.2    81  VAL81       0.2260
     62  O        -19.4590  -13.0320    0.1250 O.2    81  VAL81      -0.2867
     63  CB       -19.6360  -15.8870   -1.7110 C.3    81  VAL81       0.0252
     64  CG1      -21.0190  -15.7180   -1.0880 C.3    81  VAL81       0.0019
     65  CG2      -19.7560  -16.4070   -3.1370 C.3    81  VAL81       0.0019
     66  N        -19.5640  -10.2140    1.3980 N.3    85  CYS85      -0.1235
     67  CA       -20.5320  -10.1380    2.4890 C.3    85  CYS85       0.1677
     68  C        -19.9660   -9.3040    3.6550 C.2    85  CYS85       0.2270
     69  O        -20.6560   -8.4110    4.1430 O.2    85  CYS85      -0.2867
     70  CB       -20.9440  -11.5350    2.9450 C.3    85  CYS85       0.0956
     71  SG       -22.1850  -11.5380    4.2620 S.3    85  CYS85      -0.0801
     72  N        -19.7580   -5.4440    2.7640 N.3    88  PHE88      -0.1227
     73  CA       -21.0300   -4.7190    2.6890 C.3    88  PHE88       0.1736
     74  C        -21.9220   -4.8240    3.9340 C.2    88  PHE88       0.2595
     75  O        -22.8220   -3.9950    4.0920 O.2    88  PHE88      -0.2718
     76  CB       -21.8290   -5.1860    1.4560 C.3    88  PHE88       0.0547
     77  CG       -22.7580   -4.1350    0.8860 C.ar   88  PHE88      -0.0202
     78  CD1      -22.2610   -3.0880    0.1040 C.ar   88  PHE88      -0.0042
     79  CD2      -24.1270   -4.1860    1.1300 C.ar   88  PHE88      -0.0042
     80  CE1      -23.1200   -2.1250   -0.4380 C.ar   88  PHE88      -0.0003
     81  CE2      -24.9880   -3.2180    0.5830 C.ar   88  PHE88      -0.0003
     82  CZ       -24.4770   -2.1940   -0.1910 C.ar   88  PHE88      -0.0000
     83  N        -21.7010   -5.8210    4.8010 N.am   89  ASN89      -0.1974
     84  CA       -22.5850   -6.0170    5.9380 C.3    89  ASN89       0.1688
     85  C        -21.8700   -5.8840    7.2720 C.2    89  ASN89       0.2292
     86  O        -20.7210   -6.3190    7.4410 O.2    89  ASN89      -0.2864
     87  CB       -23.2560   -7.3970    5.8520 C.3    89  ASN89       0.1181
     88  CG       -24.1050   -7.5770    4.6130 C.2    89  ASN89       0.2629
     89  OD1      -25.3030   -7.2840    4.6230 O.2    89  ASN89      -0.2716
     90  ND2      -23.5160   -8.0770    3.5200 N.am   89  ASN89      -0.0877
     91  N        -27.3190  -10.9820    8.0240 N.3    95  ILE95      -0.1245
     92  CA       -26.5130  -11.3590    6.8460 C.3    95  ILE95       0.1561
     93  C        -25.0140  -11.4370    7.2520 C.2    95  ILE95       0.2260
     94  O        -24.3040  -12.3350    6.7980 O.2    95  ILE95      -0.2867
     95  CB       -26.7690  -10.4160    5.6370 C.3    95  ILE95       0.0252
     96  CG1      -28.2420  -10.5570    5.1230 C.3    95  ILE95       0.0019
     97  CG2      -25.7730  -10.6930    4.4890 C.3    95  ILE95       0.0019
     98  CD1      -28.6990   -9.5320    3.9860 C.3    95  ILE95       0.0001
@<TRIPOS>BOND
     1    36    35    2
     2    35    34    1
     3    33    34    1
     4    49    50    2
     5    49    48    1
     6    34    37    1
     7    40    41    1
     8    54    56   ar
     9    54    52   ar
    10    43    42    2
    11    56    57   ar
    12    37    38    1
    13    37    39    1
    14    48    51    1
    15    48    47    1
    16    51    52    1
    17    42    41    1
    18    52    53   ar
    19    41    44    1
    20    44    46    1
    21    44    45    1
    22    65    63    1
    23    25    24    2
    24    57    58    1
    25    57    55   ar
    26    53    55   ar
    27    24    23    1
    28    59    60    1
    29    63    60    1
    30    63    64    1
    31    60    61    1
    32    23    26    1
    33    23    22    1
    34    18    17    2
    35    80    82   ar
    36    80    78   ar
    37    26    27    1
    38    82    81   ar
    39    61    62    2
    40    22    17   am
    41    78    77   ar
    42     4     3    2
    43    17    16    1
    44    81    79   ar
    45    77    79   ar
    46    77    76    1
    47    27    28   ar
    48    27    29   ar
    49    28    30   ar
    50     3     2    1
    51     3    15   am
    52    16    15    1
    53    16    19    1
    54    66    67    1
    55    76    73    1
    56     2     1    1
    57     2     5    1
    58    15    21    1
    59    29    31   ar
    60    30    32   ar
    61    67    70    1
    62    67    68    1
    63     5     6    1
    64    19    20    1
    65    73    72    1
    66    73    74    1
    67    70    71    1
    68    21    20    1
    69    11    13   ar
    70    11     8   ar
    71    31    32   ar
    72    90    88   am
    73    68    69    2
    74     6     8   ar
    75     6     7   ar
    76    74    75    2
    77    74    83   am
    78    98    96    1
    79    13    14   ar
    80     8    10   ar
    81    97    95    1
    82    88    89    2
    83    88    87    1
    84    83    84    1
    85     7     9   ar
    86    96    95    1
    87    14    12   ar
    88    10     9   ar
    89    10    12   ar
    90    95    92    1
    91    87    84    1
    92    84    85    1
    93    94    93    2
    94    92    93    1
    95    92    91    1
    96    85    86    2
