@<TRIPOS>MOLECULE
tmp/4nrkE04.pdb
 154 147 0 0 0
SMALL
GASTEIGER

@<TRIPOS>ATOM
      1  N         29.7300  -73.4010  -56.8480 N.3    95  TYR95      -0.1241
      2  CA        29.0850  -74.4990  -56.1280 C.3    95  TYR95       0.1605
      3  C         28.0150  -73.9960  -55.1620 C.2    95  TYR95       0.2264
      4  O         28.2230  -73.0010  -54.4690 O.2    95  TYR95      -0.2867
      5  CB        30.1380  -75.3190  -55.3720 C.3    95  TYR95       0.0534
      6  CG        29.7600  -76.7660  -55.1430 C.ar   95  TYR95      -0.0201
      7  CD1       30.1130  -77.7460  -56.0600 C.ar   95  TYR95      -0.0009
      8  CD2       29.0490  -77.1520  -54.0140 C.ar   95  TYR95      -0.0009
      9  CE1       29.7710  -79.0690  -55.8620 C.ar   95  TYR95       0.0417
     10  CE2       28.7020  -78.4750  -53.8070 C.ar   95  TYR95       0.0417
     11  CZ        29.0660  -79.4290  -54.7340 C.ar   95  TYR95       0.1957
     12  OH        28.7250  -80.7490  -54.5370 O.3    95  TYR95      -0.2866
     13  N         43.7320  -85.2970  -52.0000 N.3   136  LYS136     -0.1245
     14  CA        43.7950  -84.7590  -53.3500 C.3   136  LYS136      0.1561
     15  C         42.8600  -83.5560  -53.4260 C.2   136  LYS136      0.2260
     16  O         41.9580  -83.4120  -52.6000 O.2   136  LYS136     -0.2867
     17  CB        43.4270  -85.8210  -54.3900 C.3   136  LYS136      0.0271
     18  CG        42.0370  -86.4130  -54.2400 C.3   136  LYS136      0.0035
     19  CD        41.8610  -87.6100  -55.1650 C.3   136  LYS136      0.0206
     20  CE        40.5730  -88.3640  -54.8720 C.3   136  LYS136      0.1093
     21  NZ        40.5450  -89.7010  -55.5310 N.3   136  LYS136     -0.1314
     22  N         39.9220  -81.5000  -54.9810 N.3   138  GLY138     -0.1210
     23  CA        38.7270  -81.6520  -55.7890 C.3   138  GLY138      0.1956
     24  C         38.3170  -80.3710  -56.4860 C.2   138  GLY138      0.2613
     25  O         38.6310  -79.2720  -56.0290 O.2   138  GLY138     -0.2717
     26  N         37.6110  -80.5180  -57.6020 N.am  139  THR139     -0.1938
     27  CA        37.1150  -79.3820  -58.3700 C.3   139  THR139      0.2028
     28  C         35.6850  -79.6610  -58.8170 C.2   139  THR139      0.2643
     29  O         35.1500  -80.7360  -58.5520 O.2   139  THR139     -0.2714
     30  CB        37.9950  -79.0870  -59.6020 C.3   139  THR139      0.1808
     31  OG1       38.1030  -80.2660  -60.4090 O.3   139  THR139     -0.2208
     32  CG2       39.3860  -78.6390  -59.1790 C.3   139  THR139      0.0379
     33  N         35.0630  -78.6950  -59.4840 N.am  140  SER140     -0.1935
     34  CA        33.6860  -78.8640  -59.9350 C.3   140  SER140      0.2055
     35  C         33.4100  -78.1880  -61.2700 C.2   140  SER140      0.2643
     36  O         34.0710  -77.2170  -61.6400 O.2   140  SER140     -0.2714
     37  CB        32.7160  -78.3210  -58.8840 C.3   140  SER140      0.2130
     38  OG        31.3790  -78.3620  -59.3560 O.3   140  SER140     -0.2179
     39  N         32.4180  -78.7080  -61.9850 N.am  141  GLY141     -0.1954
     40  CA        31.9690  -78.1070  -63.2260 C.3   141  GLY141      0.1869
     41  C         31.1820  -76.8460  -62.9310 C.2   141  GLY141      0.2309
     42  O         31.0100  -75.9870  -63.7950 O.2   141  GLY141     -0.2863
     43  N         37.4530  -77.4430  -64.7750 N.3   150  ASN150     -0.1240
     44  CA        36.8580  -77.5780  -63.4490 C.3   150  ASN150      0.1653
     45  C         37.7020  -76.9260  -62.3600 C.2   150  ASN150      0.2266
     46  O         38.9070  -77.1310  -62.2970 O.2   150  ASN150     -0.2867
     47  CB        36.6450  -79.0550  -63.1140 C.3   150  ASN150      0.1155
     48  CG        35.4700  -79.6570  -63.8550 C.2   150  ASN150      0.2627
     49  OD1       34.9500  -79.0670  -64.8020 O.2   150  ASN150     -0.2716
     50  ND2       35.0460  -80.8420  -63.4280 N.am  150  ASN150     -0.0877
     51  N         38.8770  -77.8020  -51.5920 N.3   158  TRP158     -0.1241
     52  CA        38.0290  -78.9710  -51.4130 C.3   158  TRP158      0.1605
     53  C         38.8920  -80.2270  -51.3650 C.2   158  TRP158      0.2264
     54  O         39.0820  -80.8980  -52.3790 O.2   158  TRP158     -0.2867
     55  CB        37.0030  -79.0610  -52.5440 C.3   158  TRP158      0.0550
     56  CG        35.9240  -80.0770  -52.3320 C.ar  158  TRP158      0.0003
     57  CD1       35.7310  -80.8570  -51.2290 C.ar  158  TRP158      0.0946
     58  CD2       34.8930  -80.4320  -53.2610 C.ar  158  TRP158      0.0152
     59  NE1       34.6390  -81.6720  -51.4110 N.ar  158  TRP158     -0.2442
     60  CE2       34.1080  -81.4310  -52.6510 C.ar  158  TRP158      0.0810
     61  CE3       34.5570  -80.0010  -54.5480 C.ar  158  TRP158      0.0012
     62  CZ2       33.0060  -82.0050  -53.2840 C.ar  158  TRP158      0.0191
     63  CZ3       33.4640  -80.5720  -55.1760 C.ar  158  TRP158      0.0001
     64  CH2       32.7020  -81.5630  -54.5430 C.ar  158  TRP158      0.0015
     65  N         39.9670  -83.9770  -50.7490 N.3   160  ILE160     -0.1245
     66  CA        39.3700  -85.3060  -50.7590 C.3   160  ILE160      0.1561
     67  C         40.3890  -86.3630  -50.3430 C.2   160  ILE160      0.2260
     68  O         41.5070  -86.3790  -50.8560 O.2   160  ILE160     -0.2867
     69  CB        38.8200  -85.6560  -52.1540 C.3   160  ILE160      0.0252
     70  CG1       37.9010  -84.5420  -52.6560 C.3   160  ILE160      0.0019
     71  CG2       38.0950  -86.9880  -52.1270 C.3   160  ILE160      0.0019
     72  CD1       36.6590  -84.3590  -51.8140 C.3   160  ILE160      0.0001
     73  N         32.0150  -79.3450  -47.1950 N.3   193  HIS193     -0.1241
     74  CA        31.0940  -79.9340  -48.1550 C.3   193  HIS193      0.1621
     75  C         30.3440  -81.0980  -47.5210 C.2   193  HIS193      0.2264
     76  O         30.9040  -81.8420  -46.7160 O.2   193  HIS193     -0.2867
     77  CB        31.8540  -80.3970  -49.4000 C.3   193  HIS193      0.0745
     78  CG        31.0220  -81.1810  -50.3660 C.ar  193  HIS193      0.0817
     79  ND1       31.0000  -82.5590  -50.3800 N.ar  193  HIS193     -0.2268
     80  CD2       30.1970  -80.7810  -51.3620 C.ar  193  HIS193      0.1154
     81  CE1       30.1890  -82.9740  -51.3370 C.ar  193  HIS193      0.1986
     82  NE2       29.6900  -81.9150  -51.9490 N.ar  193  HIS193     -0.2212
     83  N         26.9250  -84.1180  -48.4470 N.3   195  ASP195     -0.1239
     84  CA        26.2050  -84.7630  -49.5360 C.3   195  ASP195      0.1674
     85  C         25.2190  -85.7960  -49.0010 C.2   195  ASP195      0.2266
     86  O         25.0240  -85.9040  -47.7900 O.2   195  ASP195     -0.2867
     87  CB        27.1930  -85.4180  -50.5010 C.3   195  ASP195      0.1410
     88  CG        26.8000  -85.2350  -51.9490 C.2   195  ASP195      0.3668
     89  OD1       25.6280  -85.5010  -52.2870 O.co2 195  ASP195     -0.2456
     90  OD2       27.6690  -84.8310  -52.7500 O.co2 195  ASP195     -0.2456
     91  N         27.0390  -90.4880  -51.8160 N.3   199  GLN199     -0.1245
     92  CA        28.1770  -89.6600  -52.1990 C.3   199  GLN199      0.1566
     93  C         29.1500  -89.4300  -51.0450 C.2   199  GLN199      0.2260
     94  O         30.3610  -89.3940  -51.2540 O.2   199  GLN199     -0.2867
     95  CB        27.6950  -88.3170  -52.7470 C.3   199  GLN199      0.0367
     96  CG        26.9030  -88.4120  -54.0390 C.3   199  GLN199      0.0905
     97  CD        27.7970  -88.4720  -55.2620 C.2   199  GLN199      0.2608
     98  OE1       28.4500  -89.4830  -55.5200 O.2   199  GLN199     -0.2717
     99  NE2       27.8280  -87.3850  -56.0250 N.am  199  GLN199     -0.0878
    100  N         31.2330  -92.5690  -50.8230 N.3   202  ARG202     -0.1231
    101  CA        32.1310  -92.6100  -51.9710 C.3   202  ARG202      0.1694
    102  C         33.2720  -91.6040  -51.8210 C.2   202  ARG202      0.2591
    103  O         34.4340  -91.9290  -52.0660 O.2   202  ARG202     -0.2718
    104  CB        31.3650  -92.3330  -53.2670 C.3   202  ARG202      0.0321
    105  CG        32.2580  -92.2620  -54.4960 C.3   202  ARG202      0.0489
    106  CD        31.4590  -91.9950  -55.7590 C.3   202  ARG202      0.2205
    107  NE        30.9920  -90.6140  -55.8220 N.pl3 202  ARG202     -0.0865
    108  CZ        31.6800  -89.6180  -56.3700 C.cat 202  ARG202      0.5346
    109  NH1       32.8710  -89.8490  -56.9070 N.pl3 202  ARG202      0.1354
    110  NH2       31.1780  -88.3900  -56.3820 N.pl3 202  ARG202      0.1354
    111  N         32.9350  -90.3810  -51.4220 N.am  203  LEU203     -0.1980
    112  CA        33.9230  -89.3110  -51.3230 C.3   203  LEU203      0.1596
    113  C         34.7830  -89.3880  -50.0640 C.2   203  LEU203      0.2287
    114  O         35.9680  -89.0580  -50.1000 O.2   203  LEU203     -0.2864
    115  CB        33.2360  -87.9460  -51.3760 C.3   203  LEU203      0.0297
    116  CG        32.5330  -87.5770  -52.6810 C.3   203  LEU203      0.0022
    117  CD1       31.6940  -86.3230  -52.4960 C.3   203  LEU203      0.0001
    118  CD2       33.5440  -87.3980  -53.7970 C.3   203  LEU203      0.0001
    119  N         24.2240  -75.7320  -62.4160 N.3   239  LEU239     -0.1231
    120  CA        24.5290  -77.1390  -62.6450 C.3   239  LEU239      0.1693
    121  C         24.0190  -77.9850  -61.4860 C.2   239  LEU239      0.2592
    122  O         24.3320  -77.7060  -60.3280 O.2   239  LEU239     -0.2718
    123  CB        26.0350  -77.3410  -62.8260 C.3   239  LEU239      0.0284
    124  CG        26.5050  -78.7590  -63.1530 C.3   239  LEU239      0.0019
    125  CD1       25.8990  -79.2350  -64.4640 C.3   239  LEU239      0.0001
    126  CD2       28.0240  -78.8240  -63.2020 C.3   239  LEU239      0.0001
    127  N         23.2270  -79.0080  -61.7920 N.am  240  LYS240     -0.1966
    128  CA        22.6360  -79.8360  -60.7470 C.3   240  LYS240      0.1728
    129  C         23.7020  -80.5370  -59.9140 C.2   240  LYS240      0.2616
    130  O         24.6410  -81.1240  -60.4520 O.2   240  LYS240     -0.2715
    131  CB        21.6940  -80.8830  -61.3440 C.3   240  LYS240      0.0311
    132  CG        20.9620  -81.7020  -60.2900 C.3   240  LYS240      0.0038
    133  CD        19.9590  -82.6610  -60.9070 C.3   240  LYS240      0.0206
    134  CE        19.3420  -83.5590  -59.8440 C.3   240  LYS240      0.1093
    135  NZ        18.4730  -84.6170  -60.4320 N.3   240  LYS240     -0.1314
    136  N         23.5460  -80.4600  -58.5960 N.am  241  GLN241     -0.1963
    137  CA        24.4870  -81.0630  -57.6610 C.3   241  GLN241      0.1733
    138  C         23.7130  -81.7300  -56.5350 C.2   241  GLN241      0.2617
    139  O         22.6410  -81.2650  -56.1500 O.2   241  GLN241     -0.2715
    140  CB        25.4510  -80.0160  -57.0930 C.3   241  GLN241      0.0408
    141  CG        26.3240  -79.3230  -58.1310 C.3   241  GLN241      0.0908
    142  CD        27.5350  -80.1470  -58.5310 C.2   241  GLN241      0.2608
    143  OE1       27.6000  -81.3490  -58.2690 O.2   241  GLN241     -0.2717
    144  NE2       28.5010  -79.5020  -59.1750 N.am  241  GLN241     -0.0878
    145  N         24.2610  -82.8170  -56.0050 N.am  242  SER242     -0.1936
    146  CA        23.6060  -83.5520  -54.9330 C.3   242  SER242      0.2055
    147  C         24.0400  -83.0160  -53.5780 C.2   242  SER242      0.2643
    148  O         23.3740  -83.2370  -52.5680 O.2   242  SER242     -0.2714
    149  CB        23.9210  -85.0450  -55.0320 C.3   242  SER242      0.2130
    150  OG        25.3070  -85.2820  -54.8500 O.3   242  SER242     -0.2179
    151  N         25.1660  -82.3110  -53.5650 N.am  243  GLY243     -0.1954
    152  CA        25.7300  -81.8120  -52.3270 C.3   243  GLY243      0.1869
    153  C         25.6590  -80.3060  -52.1700 C.2   243  GLY243      0.2309
    154  O         25.3490  -79.5760  -53.1130 O.2   243  GLY243     -0.2863
@<TRIPOS>BOND
     1    49    48    2
     2    43    44    1
     3   125   124    1
     4    48    50   am
     5    48    47    1
     6    42    41    2
     7    44    47    1
     8    44    45    1
     9    40    41    1
    10    40    39    1
    11   126   124    1
    12   124   123    1
    13   123   120    1
    14   120   119    1
    15   120   121    1
    16    45    46    2
    17    39    35   am
    18   127   121   am
    19   127   128    1
    20    36    35    2
    21   121   122    2
    22   131   128    1
    23   131   132    1
    24    35    34    1
    25   133   132    1
    26   133   134    1
    27   128   129    1
    28   130   129    2
    29   135   134    1
    30    31    30    1
    31    34    33    1
    32    34    37    1
    33   129   136   am
    34    30    32    1
    35    30    27    1
    36    33    28   am
    37    38    37    1
    38   144   142   am
    39    28    29    2
    40    28    27    1
    41   136   137    1
    42   142   143    2
    43   142   141    1
    44    27    26    1
    45   141   140    1
    46   137   140    1
    47   137   138    1
    48    26    24   am
    49   109   108    1
    50     1     2    1
    51   138   139    2
    52   138   145   am
    53    24    25    2
    54    24    23    1
    55   110   108    1
    56   108   107    2
    57     2     5    1
    58     2     3    1
    59     7     9   ar
    60     7     6   ar
    61    99    97   am
    62   145   146    1
    63     9    11   ar
    64   107   106    1
    65    23    22    1
    66   106   105    1
    67    21    20    1
    68    98    97    2
    69     5     6    1
    70    97    96    1
    71    63    61   ar
    72    63    64   ar
    73    19    20    1
    74    19    18    1
    75     3     4    2
    76     6     8   ar
    77   149   146    1
    78   149   150    1
    79   146   147    1
    80    11    12    1
    81    11    10   ar
    82    61    58   ar
    83    64    62   ar
    84   105   104    1
    85    17    18    1
    86    17    14    1
    87    96    95    1
    88     8    10   ar
    89   118   116    1
    90   147   151   am
    91   147   148    2
    92   151   152    1
    93    15    14    1
    94    15    16    2
    95    14    13    1
    96    62    60   ar
    97   104   101    1
    98    58    60   ar
    99    58    56   ar
   100   154   153    2
   101    90    88   ar
   102    95    92    1
   103   116   117    1
   104   116   115    1
   105    70    69    1
   106    70    72    1
   107    60    59   ar
   108    55    56    1
   109    55    52    1
   110    54    53    2
   111    56    57   ar
   112   152   153    1
   113    89    88   ar
   114    92    91    1
   115    92    93    1
   116    69    71    1
   117    69    66    1
   118   103   102    2
   119   101   102    1
   120   101   100    1
   121    82    80   ar
   122    82    81   ar
   123    88    87    1
   124   102   111   am
   125    51    52    1
   126   111   112    1
   127    52    53    1
   128    59    57   ar
   129   115   112    1
   130    80    78   ar
   131    81    79   ar
   132   112   113    1
   133    94    93    2
   134    68    67    2
   135    66    65    1
   136    66    67    1
   137    87    84    1
   138    79    78   ar
   139    78    77    1
   140   114   113    2
   141    84    85    1
   142    84    83    1
   143    77    74    1
   144    85    86    2
   145    74    75    1
   146    74    73    1
   147    75    76    2
