@<TRIPOS>MOLECULE
tmp/4nrlE00.pdb
 175 170 0 0 0
SMALL
GASTEIGER

@<TRIPOS>ATOM
      1  N         11.9880    9.2570  -56.9080 N.3    95  TYR95      -0.1241
      2  CA        12.6310   10.3590  -56.1950 C.3    95  TYR95       0.1605
      3  C         13.6880    9.8530  -55.2130 C.2    95  TYR95       0.2264
      4  O         13.4800    8.8410  -54.5430 O.2    95  TYR95      -0.2867
      5  CB        11.5670   11.1850  -55.4620 C.3    95  TYR95       0.0534
      6  CG        11.9400   12.6300  -55.2110 C.ar   95  TYR95      -0.0201
      7  CD1       11.5730   13.6230  -56.1080 C.ar   95  TYR95      -0.0009
      8  CD2       12.6560   13.0010  -54.0810 C.ar   95  TYR95      -0.0009
      9  CE1       11.9060   14.9440  -55.8900 C.ar   95  TYR95       0.0417
     10  CE2       12.9960   14.3220  -53.8540 C.ar   95  TYR95       0.0417
     11  CZ        12.6170   15.2890  -54.7620 C.ar   95  TYR95       0.1957
     12  OH        12.9510   16.6060  -54.5430 O.3    95  TYR95      -0.2866
     13  N          1.8490   17.1970  -54.9080 N.3   138  GLY138     -0.1210
     14  CA         3.0200   17.4110  -55.7330 C.3   138  GLY138      0.1956
     15  C          3.4420   16.1590  -56.4700 C.2   138  GLY138      0.2613
     16  O          3.1350   15.0450  -56.0470 O.2   138  GLY138     -0.2717
     17  N          4.1510   16.3460  -57.5770 N.am  139  THR139     -0.1938
     18  CA         4.6500   15.2330  -58.3740 C.3   139  THR139      0.2028
     19  C          6.0730   15.5290  -58.8280 C.2   139  THR139      0.2643
     20  O          6.6070   16.5990  -58.5450 O.2   139  THR139     -0.2714
     21  CB         3.7650   14.9620  -59.6090 C.3   139  THR139      0.1808
     22  OG1        3.6490   16.1610  -60.3860 O.3   139  THR139     -0.2208
     23  CG2        2.3770   14.4940  -59.1920 C.3   139  THR139      0.0379
     24  N          6.6880   14.5810  -59.5270 N.am  140  SER140     -0.1935
     25  CA         8.0520   14.7750  -60.0000 C.3   140  SER140      0.2055
     26  C          8.3330   14.0400  -61.3050 C.2   140  SER140      0.2644
     27  O          7.6910   13.0370  -61.6200 O.2   140  SER140     -0.2714
     28  CB         9.0530   14.3270  -58.9350 C.3   140  SER140      0.2130
     29  OG        10.3660   14.2730  -59.4670 O.3   140  SER140     -0.2179
     30  N          9.3050   14.5480  -62.0560 N.am  141  GLY141     -0.1939
     31  CA         9.7310   13.9150  -63.2900 C.3   141  GLY141      0.2014
     32  C         10.5710   12.6920  -62.9880 C.2   141  GLY141      0.2639
     33  O         10.8290   11.8650  -63.8630 O.2   141  GLY141     -0.2714
     34  N         11.0130   12.5910  -61.7380 N.am  142  SER142     -0.1949
     35  CA        11.7410   11.4190  -61.2700 C.3   142  SER142      0.1924
     36  C         10.8160   10.2130  -61.1790 C.2   142  SER142      0.2314
     37  O         11.2690    9.0740  -61.2100 O.2   142  SER142     -0.2863
     38  CB        12.3870   11.6910  -59.9090 C.3   142  SER142      0.2116
     39  OG        13.5090   12.5460  -60.0370 O.3   142  SER142     -0.2180
     40  N          4.1740   13.2670  -64.7270 N.3   150  ASN150     -0.1240
     41  CA         4.8020   13.3820  -63.4150 C.3   150  ASN150      0.1653
     42  C          3.9590   12.7540  -62.3090 C.2   150  ASN150      0.2266
     43  O          2.7840   13.0720  -62.1570 O.2   150  ASN150     -0.2867
     44  CB         5.0740   14.8490  -63.0870 C.3   150  ASN150      0.1155
     45  CG         6.1930   15.4340  -63.9230 C.2   150  ASN150      0.2627
     46  OD1        6.6680   14.8070  -64.8690 O.2   150  ASN150     -0.2716
     47  ND2        6.6190   16.6460  -63.5800 N.am  150  ASN150     -0.0877
     48  N          2.7860   13.6220  -51.5080 N.3   158  TRP158     -0.1241
     49  CA         3.6620   14.7670  -51.3020 C.3   158  TRP158      0.1605
     50  C          2.8180   16.0360  -51.2240 C.2   158  TRP158      0.2264
     51  O          2.7150   16.7810  -52.1970 O.2   158  TRP158     -0.2867
     52  CB         4.6800   14.8510  -52.4420 C.3   158  TRP158      0.0550
     53  CG         5.7660   15.8680  -52.2810 C.ar  158  TRP158      0.0003
     54  CD1        5.9750   16.6960  -51.2170 C.ar  158  TRP158      0.0946
     55  CD2        6.7970   16.1650  -53.2290 C.ar  158  TRP158      0.0152
     56  NE1        7.0760   17.4890  -51.4450 N.ar  158  TRP158     -0.2442
     57  CE2        7.5980   17.1820  -52.6740 C.ar  158  TRP158      0.0810
     58  CE3        7.1220   15.6660  -54.4950 C.ar  158  TRP158      0.0012
     59  CZ2        8.7020   17.7090  -53.3400 C.ar  158  TRP158      0.0191
     60  CZ3        8.2170   16.1900  -55.1550 C.ar  158  TRP158      0.0001
     61  CH2        8.9950   17.2010  -54.5770 C.ar  158  TRP158      0.0015
     62  N          1.6010   19.7450  -50.4790 N.3   160  ILE160     -0.1245
     63  CA         2.2160   21.0680  -50.4570 C.3   160  ILE160      0.1561
     64  C          1.2230   22.1780  -50.1300 C.2   160  ILE160      0.2260
     65  O          0.1250   22.2100  -50.6840 O.2   160  ILE160     -0.2867
     66  CB         2.8850   21.3770  -51.8030 C.3   160  ILE160      0.0252
     67  CG1        4.0680   20.4380  -52.0150 C.3   160  ILE160      0.0019
     68  CG2        3.3640   22.8160  -51.8660 C.3   160  ILE160      0.0019
     69  CD1        4.9420   20.8610  -53.1400 C.3   160  ILE160      0.0001
     70  N          9.6950   15.1820  -47.1890 N.3   193  HIS193     -0.1241
     71  CA        10.6010   15.7510  -48.1740 C.3   193  HIS193      0.1621
     72  C         11.3640   16.9270  -47.5770 C.2   193  HIS193      0.2264
     73  O         10.8180   17.6950  -46.7880 O.2   193  HIS193     -0.2867
     74  CB         9.8220   16.1970  -49.4150 C.3   193  HIS193      0.0745
     75  CG        10.6290   17.0080  -50.3790 C.ar  193  HIS193      0.0817
     76  ND1       10.6300   18.3870  -50.3710 N.ar  193  HIS193     -0.2268
     77  CD2       11.4520   16.6370  -51.3880 C.ar  193  HIS193      0.1154
     78  CE1       11.4250   18.8300  -51.3290 C.ar  193  HIS193      0.1986
     79  NE2       11.9350   17.7890  -51.9620 N.ar  193  HIS193     -0.2212
     80  N         14.8140   19.8920  -48.5590 N.3   195  ASP195     -0.1225
     81  CA        15.5470   20.5070  -49.6560 C.3   195  ASP195      0.1805
     82  C         16.5360   21.5420  -49.1350 C.2   195  ASP195      0.2598
     83  O         16.7240   21.6710  -47.9240 O.2   195  ASP195     -0.2718
     84  CB        14.5700   21.1470  -50.6420 C.3   195  ASP195      0.1424
     85  CG        14.9780   20.9360  -52.0820 C.2   195  ASP195      0.3668
     86  OD1       16.1690   21.1310  -52.3990 O.co2 195  ASP195     -0.2456
     87  OD2       14.1060   20.5630  -52.8940 O.co2 195  ASP195     -0.2456
     88  N         17.1790   22.2700  -50.0430 N.am  196  ASP196     -0.1960
     89  CA        18.0390   23.3720  -49.6290 C.3   196  ASP196      0.1840
     90  C         17.1780   24.5450  -49.1740 C.2   196  ASP196      0.2622
     91  O         15.9600   24.5320  -49.3600 O.2   196  ASP196     -0.2715
     92  CB        19.0050   23.7840  -50.7530 C.3   196  ASP196      0.1450
     93  CG        18.2960   24.2100  -52.0330 C.2   196  ASP196      0.3671
     94  OD1       17.2650   24.9130  -51.9690 O.co2 196  ASP196     -0.2456
     95  OD2       18.7930   23.8490  -53.1210 O.co2 196  ASP196     -0.2456
     96  N         17.8140   25.5490  -48.5770 N.am  197  LYS197     -0.1963
     97  CA        17.1090   26.6880  -47.9910 C.3   197  LYS197      0.1728
     98  C         16.1460   27.3780  -48.9560 C.2   197  LYS197      0.2617
     99  O         15.0360   27.7480  -48.5750 O.2   197  LYS197     -0.2715
    100  CB        18.1150   27.7100  -47.4600 C.3   197  LYS197      0.0311
    101  CG        17.4720   28.9020  -46.7730 C.3   197  LYS197      0.0038
    102  CD        18.4980   29.9620  -46.4190 C.3   197  LYS197      0.0206
    103  CE        17.8720   31.0770  -45.5980 C.3   197  LYS197      0.1093
    104  NZ        16.8000   31.7830  -46.3550 N.3   197  LYS197     -0.1314
    105  N         16.5700   27.5390  -50.2060 N.am  198  THR198     -0.1937
    106  CA        15.7670   28.2490  -51.1940 C.3   198  THR198      0.2028
    107  C         14.4870   27.4890  -51.5220 C.2   198  THR198      0.2642
    108  O         13.3920   28.0510  -51.4730 O.2   198  THR198     -0.2714
    109  CB        16.5570   28.4930  -52.4950 C.3   198  THR198      0.1808
    110  OG1       17.5550   29.4950  -52.2690 O.3   198  THR198     -0.2208
    111  CG2       15.6280   28.9540  -53.6090 C.3   198  THR198      0.0379
    112  N         14.6260   26.2100  -51.8520 N.am  199  GLN199     -0.1976
    113  CA        13.4740   25.4020  -52.2270 C.3   199  GLN199      0.1601
    114  C         12.5280   25.2040  -51.0500 C.2   199  GLN199      0.2287
    115  O         11.3110   25.1640  -51.2250 O.2   199  GLN199     -0.2864
    116  CB        13.9250   24.0490  -52.7730 C.3   199  GLN199      0.0394
    117  CG        14.6800   24.1540  -54.0780 C.3   199  GLN199      0.0908
    118  CD        13.9170   24.9600  -55.1030 C.2   199  GLN199      0.2608
    119  OE1       12.8110   24.5920  -55.4990 O.2   199  GLN199     -0.2717
    120  NE2       14.4960   26.0780  -55.5280 N.am  199  GLN199     -0.0878
    121  N         10.4800   28.3870  -50.8350 N.3   202  ARG202     -0.1231
    122  CA         9.5770   28.4000  -51.9770 C.3   202  ARG202      0.1694
    123  C          8.4210   27.4070  -51.8030 C.2   202  ARG202      0.2591
    124  O          7.2570   27.7580  -52.0010 O.2   202  ARG202     -0.2718
    125  CB        10.3520   28.1120  -53.2610 C.3   202  ARG202      0.0321
    126  CG         9.4980   28.1240  -54.5080 C.3   202  ARG202      0.0489
    127  CD        10.3410   27.9160  -55.7460 C.3   202  ARG202      0.2205
    128  NE        10.6720   26.5090  -55.9440 N.pl3 202  ARG202     -0.0865
    129  CZ         9.8700   25.6280  -56.5350 C.cat 202  ARG202      0.5346
    130  NH1        8.6800   26.0030  -56.9890 N.pl3 202  ARG202      0.1354
    131  NH2       10.2580   24.3690  -56.6710 N.pl3 202  ARG202      0.1354
    132  N          8.7460   26.1710  -51.4310 N.am  203  LEU203     -0.1980
    133  CA         7.7430   25.1130  -51.3080 C.3   203  LEU203      0.1596
    134  C          6.8910   25.2050  -50.0420 C.2   203  LEU203      0.2287
    135  O          5.6950   24.9190  -50.0780 O.2   203  LEU203     -0.2864
    136  CB         8.4100   23.7360  -51.3610 C.3   203  LEU203      0.0297
    137  CG         9.1220   23.3530  -52.6580 C.3   203  LEU203      0.0022
    138  CD1        9.8880   22.0500  -52.4820 C.3   203  LEU203      0.0001
    139  CD2        8.1250   23.2460  -53.8000 C.3   203  LEU203      0.0001
    140  N         17.6610   11.4940  -62.4750 N.3   239  LEU239     -0.1231
    141  CA        17.4480   12.9110  -62.7490 C.3   239  LEU239      0.1693
    142  C         17.9240   13.7400  -61.5690 C.2   239  LEU239      0.2592
    143  O         17.5740   13.4470  -60.4230 O.2   239  LEU239     -0.2718
    144  CB        15.9760   13.2130  -63.0390 C.3   239  LEU239      0.0284
    145  CG        15.4360   13.0840  -64.4670 C.3   239  LEU239      0.0019
    146  CD1       15.7130   11.7110  -65.0670 C.3   239  LEU239      0.0001
    147  CD2       13.9450   13.3780  -64.4590 C.3   239  LEU239      0.0001
    148  N         18.7310   14.7600  -61.8440 N.am  240  LYS240     -0.1966
    149  CA        19.3300   15.5410  -60.7730 C.3   240  LYS240      0.1728
    150  C         18.2510   16.2490  -59.9710 C.2   240  LYS240      0.2616
    151  O         17.3060   16.8060  -60.5300 O.2   240  LYS240     -0.2715
    152  CB        20.3240   16.5670  -61.3170 C.3   240  LYS240      0.0311
    153  CG        21.0220   17.3380  -60.2130 C.3   240  LYS240      0.0038
    154  CD        22.1030   18.2630  -60.7260 C.3   240  LYS240      0.0206
    155  CE        22.7490   18.9930  -59.5600 C.3   240  LYS240      0.1093
    156  NZ        23.6420   20.1030  -59.9880 N.3   240  LYS240     -0.1314
    157  N         18.3950   16.2050  -58.6540 N.am  241  GLN241     -0.1963
    158  CA        17.4150   16.7810  -57.7540 C.3   241  GLN241      0.1733
    159  C         18.1450   17.4300  -56.5900 C.2   241  GLN241      0.2617
    160  O         19.2170   16.9750  -56.1930 O.2   241  GLN241     -0.2715
    161  CB        16.4470   15.7070  -57.2560 C.3   241  GLN241      0.0408
    162  CG        15.0430   16.2080  -56.9970 C.3   241  GLN241      0.0908
    163  CD        14.2740   16.4690  -58.2770 C.2   241  GLN241      0.2608
    164  OE1       14.0990   15.5730  -59.1040 O.2   241  GLN241     -0.2717
    165  NE2       13.8140   17.7020  -58.4480 N.am  241  GLN241     -0.0878
    166  N         17.5640   18.4890  -56.0390 N.am  242  SER242     -0.1936
    167  CA        18.2060   19.2170  -54.9540 C.3   242  SER242      0.2055
    168  C         17.6650   18.7610  -53.6080 C.2   242  SER242      0.2643
    169  O         18.2450   19.0540  -52.5640 O.2   242  SER242     -0.2714
    170  CB        18.0030   20.7240  -55.1200 C.3   242  SER242      0.2130
    171  OG        16.6390   21.0730  -54.9770 O.3   242  SER242     -0.2179
    172  N         16.5450   18.0460  -53.6420 N.am  243  GLY243     -0.1954
    173  CA        15.9070   17.5790  -52.4270 C.3   243  GLY243      0.1869
    174  C         16.0170   16.0830  -52.2040 C.2   243  GLY243      0.2309
    175  O         16.3570   15.3250  -53.1140 O.2   243  GLY243     -0.2863
@<TRIPOS>BOND
     1   146   145    1
     2    46    45    2
     3    40    41    1
     4   145   147    1
     5   145   144    1
     6    45    47   am
     7    45    44    1
     8    33    32    2
     9    41    44    1
    10    41    42    1
    11    31    32    1
    12    31    30    1
    13   144   141    1
    14    32    34   am
    15   141   140    1
    16   141   142    1
    17    42    43    2
    18    30    26   am
    19   148   142   am
    20   148   149    1
    21    34    35    1
    22    27    26    2
    23   142   143    2
    24   152   149    1
    25   152   153    1
    26    26    25    1
    27    35    36    1
    28    35    38    1
    29    37    36    2
    30   149   150    1
    31   154   153    1
    32   154   155    1
    33   151   150    2
    34    22    21    1
    35    39    38    1
    36    25    24    1
    37    25    28    1
    38   156   155    1
    39   150   157   am
    40    21    23    1
    41    21    18    1
    42    24    19   am
    43    29    28    1
    44   164   163    2
    45    19    20    2
    46    19    18    1
    47   157   158    1
    48   165   163   am
    49    18    17    1
    50   163   162    1
    51   158   161    1
    52   158   159    1
    53    17    15   am
    54   161   162    1
    55   130   129    1
    56     1     2    1
    57   131   129    1
    58   159   160    2
    59   159   166   am
    60   129   128    2
    61    15    16    2
    62    15    14    1
    63     2     5    1
    64     2     3    1
    65     7     9   ar
    66     7     6   ar
    67   166   167    1
    68   128   127    1
    69     9    11   ar
    70   127   126    1
    71    14    13    1
    72   120   118   am
    73   119   118    2
    74     5     6    1
    75     3     4    2
    76     6     8   ar
    77    60    61   ar
    78    60    58   ar
    79   170   171    1
    80   170   167    1
    81   118   117    1
    82   167   168    1
    83    11    12    1
    84    11    10   ar
    85    61    59   ar
    86   126   125    1
    87    58    55   ar
    88     8    10   ar
    89   117   116    1
    90   139   137    1
    91   172   168   am
    92   172   173    1
    93   111   109    1
    94   168   169    2
    95    59    57   ar
    96   125   122    1
    97    55    57   ar
    98    55    53   ar
    99    69    67    1
   100    95    93   ar
   101   175   174    2
   102    87    85   ar
   103   116   113    1
   104    57    56   ar
   105   137   138    1
   106   137   136    1
   107   109   110    1
   108   109   106    1
   109    52    53    1
   110    52    49    1
   111   173   174    1
   112    86    85   ar
   113    53    54   ar
   114   113   112    1
   115   113   114    1
   116    51    50    2
   117    85    84    1
   118    93    94   ar
   119    93    92    1
   120    67    66    1
   121   124   123    2
   122   122   123    1
   123   122   121    1
   124    79    77   ar
   125    79    78   ar
   126    68    66    1
   127   112   107   am
   128    66    63    1
   129   123   132   am
   130   107   108    2
   131   107   106    1
   132    48    49    1
   133    56    54   ar
   134   132   133    1
   135    77    75   ar
   136   136   133    1
   137    78    76   ar
   138   133   134    1
   139    49    50    1
   140   115   114    2
   141   106   105    1
   142    92    89    1
   143    65    64    2
   144    84    81    1
   145    62    63    1
   146    63    64    1
   147    75    76   ar
   148    75    74    1
   149   105    98   am
   150   135   134    2
   151    88    89    1
   152    88    82   am
   153    81    82    1
   154    81    80    1
   155    89    90    1
   156    74    71    1
   157    91    90    2
   158    90    96   am
   159    82    83    2
   160    98    99    2
   161    98    97    1
   162    96    97    1
   163    71    72    1
   164    71    70    1
   165    97   100    1
   166    72    73    2
   167   100   101    1
   168   101   102    1
   169   102   103    1
   170   104   103    1
