@<TRIPOS>MOLECULE
tmp/4nrpA00.pdb
 143 131 0 0 0
SMALL
GASTEIGER

@<TRIPOS>ATOM
      1  N        -11.2200    6.9960  -16.3050 N.3    59  LYS59      -0.1245
      2  CA       -10.5860    7.9950  -15.4400 C.3    59  LYS59       0.1561
      3  C        -10.6830    7.5530  -13.9920 C.2    59  LYS59       0.2260
      4  O        -11.7240    7.0470  -13.5550 O.2    59  LYS59      -0.2867
      5  CB       -11.2260    9.3780  -15.6050 C.3    59  LYS59       0.0271
      6  CG       -11.1120    9.9660  -17.0100 C.3    59  LYS59       0.0035
      7  CD       -11.8940   11.2670  -17.1250 C.3    59  LYS59       0.0206
      8  CE       -11.0650   12.4710  -16.7090 C.3    59  LYS59       0.1093
      9  NZ       -10.3230   13.0300  -17.8750 N.3    59  LYS59      -0.1314
     10  N        -14.4990   15.5920   -9.9860 N.3    66  TYR66      -0.1241
     11  CA       -15.5720   16.4930  -10.4030 C.3    66  TYR66       0.1605
     12  C        -16.5510   15.8210  -11.3670 C.2    66  TYR66       0.2264
     13  O        -16.2630   14.7540  -11.9220 O.2    66  TYR66      -0.2867
     14  CB       -14.9850   17.7670  -11.0300 C.3    66  TYR66       0.0534
     15  CG       -14.2220   17.5230  -12.3110 C.ar   66  TYR66      -0.0201
     16  CD1      -12.8950   17.0900  -12.2830 C.ar   66  TYR66      -0.0009
     17  CD2      -14.8250   17.7250  -13.5520 C.ar   66  TYR66      -0.0009
     18  CE1      -12.1970   16.8550  -13.4530 C.ar   66  TYR66       0.0417
     19  CE2      -14.1310   17.4950  -14.7290 C.ar   66  TYR66       0.0417
     20  CZ       -12.8180   17.0610  -14.6700 C.ar   66  TYR66       0.1957
     21  OH       -12.1230   16.8330  -15.8310 O.3    66  TYR66      -0.2866
     22  N         -5.8390    8.9020  -16.3800 N.3   112  ASN112     -0.1240
     23  CA        -6.6020    8.5430  -17.5880 C.3   112  ASN112      0.1653
     24  C         -5.9270    7.3310  -18.2020 C.2   112  ASN112      0.2266
     25  O         -4.7120    7.3390  -18.4060 O.2   112  ASN112     -0.2867
     26  CB        -6.5740    9.6630  -18.6420 C.3   112  ASN112      0.1155
     27  CG        -7.4810   10.8390  -18.3180 C.2   112  ASN112      0.2627
     28  OD1       -7.8710   11.5820  -19.2220 O.2   112  ASN112     -0.2716
     29  ND2       -7.8100   11.0260  -17.0530 N.am  112  ASN112     -0.0877
     30  N         -6.1840    4.8130  -21.4920 N.3   114  TYR114     -0.1241
     31  CA        -6.7430    4.7230  -22.8420 C.3   114  TYR114      0.1605
     32  C         -6.5200    3.3620  -23.4770 C.2   114  TYR114      0.2264
     33  O         -5.4160    2.8130  -23.4140 O.2   114  TYR114     -0.2867
     34  CB        -6.1000    5.7700  -23.7540 C.3   114  TYR114      0.0534
     35  CG        -6.3450    7.2010  -23.3410 C.ar  114  TYR114     -0.0201
     36  CD1       -7.4570    7.8970  -23.8110 C.ar  114  TYR114     -0.0009
     37  CD2       -5.4650    7.8590  -22.4920 C.ar  114  TYR114     -0.0009
     38  CE1       -7.6850    9.2130  -23.4450 C.ar  114  TYR114      0.0417
     39  CE2       -5.6810    9.1760  -22.1160 C.ar  114  TYR114      0.0417
     40  CZ        -6.7950    9.8470  -22.5910 C.ar  114  TYR114      0.1957
     41  OH        -7.0280   11.1520  -22.2190 O.3   114  TYR114     -0.2866
     42  N         -9.9250   11.9550  -26.3160 N.3   120  ILE120     -0.1245
     43  CA       -10.6830   12.8750  -25.4720 C.3   120  ILE120      0.1561
     44  C        -11.0880   14.0780  -26.3260 C.2   120  ILE120      0.2260
     45  O        -10.2850   14.5980  -27.1020 O.2   120  ILE120     -0.2867
     46  CB        -9.9390   13.2620  -24.1570 C.3   120  ILE120      0.0252
     47  CG1      -10.8990   13.9560  -23.1740 C.3   120  ILE120      0.0019
     48  CG2       -8.7010   14.1100  -24.4410 C.3   120  ILE120      0.0019
     49  CD1      -10.3760   14.0940  -21.7530 C.3   120  ILE120      0.0001
     50  N        -11.7340   20.2960  -24.9950 N.3   123  HIS123     -0.1241
     51  CA       -12.1560   20.8600  -23.7110 C.3   123  HIS123      0.1621
     52  C        -11.1220   21.8040  -23.1650 C.2   123  HIS123      0.2264
     53  O         -9.9850   21.8350  -23.6270 O.2   123  HIS123     -0.2867
     54  CB       -12.4060   19.7470  -22.6920 C.3   123  HIS123      0.0745
     55  CG       -11.1510   19.0200  -22.2850 C.ar  123  HIS123      0.0817
     56  ND1      -10.5900   18.0660  -23.0510 N.ar  123  HIS123     -0.2268
     57  CD2      -10.3260   19.1720  -21.1700 C.ar  123  HIS123      0.1154
     58  CE1       -9.4680   17.6180  -22.4530 C.ar  123  HIS123      0.1986
     59  NE2       -9.3090   18.3010  -21.3000 N.ar  123  HIS123     -0.2212
     60  N         -9.5660   22.5170  -19.2550 N.3   125  ASP125     -0.1239
     61  CA        -9.6470   22.0090  -17.8770 C.3   125  ASP125      0.1674
     62  C        -10.4090   23.0530  -17.0590 C.2   125  ASP125      0.2266
     63  O        -10.0070   24.2170  -17.0430 O.2   125  ASP125     -0.2867
     64  CB        -8.2600   21.7390  -17.2850 C.3   125  ASP125      0.1410
     65  CG        -7.6150   20.4760  -17.8390 C.2   125  ASP125      0.3668
     66  OD1       -8.0480   19.9700  -18.9000 O.co2 125  ASP125     -0.2456
     67  OD2       -6.6570   19.9950  -17.2090 O.co2 125  ASP125     -0.2456
     68  N          0.9860   17.1850  -16.4170 N.3   136  SER136     -0.1217
     69  CA         0.6520   15.8190  -16.8220 C.3   136  SER136      0.1889
     70  C          1.8860   14.9990  -17.1850 C.2   136  SER136      0.2288
     71  O          2.8440   15.5220  -17.7620 O.2   136  SER136     -0.2866
     72  CB        -0.3500   15.8190  -17.9720 C.3   136  SER136      0.2089
     73  OG         0.2730   16.1910  -19.1830 O.3   136  SER136     -0.2183
     74  N         -0.7060   15.5100  -28.0120 N.3   145  LEU145     -0.1245
     75  CA        -1.7770   16.3210  -27.4610 C.3   145  LEU145      0.1561
     76  C         -2.0350   17.4940  -28.4060 C.2   145  LEU145      0.2260
     77  O         -1.1330   18.2790  -28.7010 O.2   145  LEU145     -0.2867
     78  CB        -1.4040   16.7980  -26.0460 C.3   145  LEU145      0.0270
     79  CG        -2.3540   17.7020  -25.2550 C.3   145  LEU145      0.0019
     80  CD1       -3.6680   17.0100  -24.9020 C.3   145  LEU145      0.0001
     81  CD2       -1.6340   18.1790  -23.9970 C.3   145  LEU145      0.0001
     82  N          3.7590   13.8770  -26.9400 N.3   167  VAL167     -0.1245
     83  CA         3.8190   13.5490  -25.5130 C.3   167  VAL167      0.1561
     84  C          4.3480   12.1250  -25.3460 C.2   167  VAL167      0.2260
     85  O          3.6040   11.1390  -25.4590 O.2   167  VAL167     -0.2867
     86  CB         2.4680   13.7620  -24.7700 C.3   167  VAL167      0.0252
     87  CG1        2.1630   15.2490  -24.5960 C.3   167  VAL167      0.0019
     88  CG2        1.3140   13.0620  -25.4790 C.3   167  VAL167      0.0019
     89  N         -7.8970   21.7560  -25.7200 N.3   185  HIS185     -0.1241
     90  CA        -7.0490   20.6330  -26.1180 C.3   185  HIS185      0.1621
     91  C         -7.8350   19.3570  -26.2230 C.2   185  HIS185      0.2264
     92  O         -8.9760   19.2760  -25.7550 O.2   185  HIS185     -0.2867
     93  CB        -5.8170   20.4660  -25.2190 C.3   185  HIS185      0.0745
     94  CG        -6.1350   20.2880  -23.7540 C.ar  185  HIS185      0.0817
     95  ND1       -6.2380   21.3300  -22.9040 N.ar  185  HIS185     -0.2268
     96  CD2       -6.3320   19.1350  -22.9920 C.ar  185  HIS185      0.1154
     97  CE1       -6.5120   20.8710  -21.6630 C.ar  185  HIS185      0.1986
     98  NE2       -6.5630   19.5280  -21.7180 N.ar  185  HIS185     -0.2212
     99  N         -7.3230   14.8110  -27.7420 N.3   187  ILE187     -0.1245
    100  CA        -6.4890   13.7420  -28.2790 C.3   187  ILE187      0.1561
    101  C         -7.2810   13.0630  -29.3890 C.2   187  ILE187      0.2260
    102  O         -8.4570   12.7520  -29.2140 O.2   187  ILE187     -0.2867
    103  CB        -6.0870   12.7080  -27.2080 C.3   187  ILE187      0.0252
    104  CG1       -5.1500   13.3430  -26.1750 C.3   187  ILE187      0.0019
    105  CG2       -5.3700   11.5270  -27.8460 C.3   187  ILE187      0.0019
    106  CD1       -4.8050   12.4240  -25.0250 C.3   187  ILE187      0.0001
    107  N         -2.2620    3.7050  -23.5720 N.3   196  ARG196     -0.1245
    108  CA        -1.5570    4.8870  -23.1060 C.3   196  ARG196      0.1563
    109  C         -2.2240    5.3280  -21.8210 C.2   196  ARG196      0.2260
    110  O         -3.4430    5.2210  -21.6850 O.2   196  ARG196     -0.2867
    111  CB        -1.6270    6.0010  -24.1510 C.3   196  ARG196      0.0307
    112  CG        -0.9220    7.2650  -23.7060 C.3   196  ARG196      0.0489
    113  CD        -1.3850    8.4900  -24.4580 C.3   196  ARG196      0.2205
    114  NE        -0.7490    9.6730  -23.8890 N.pl3 196  ARG196     -0.0865
    115  CZ        -1.3960   10.6430  -23.2530 C.cat 196  ARG196      0.5346
    116  NH1       -2.7200   10.5970  -23.1250 N.pl3 196  ARG196      0.1354
    117  NH2       -0.7150   11.6700  -22.7560 N.pl3 196  ARG196      0.1354
    118  N         -2.0420    8.4390  -18.5050 N.3   198  VAL198     -0.1245
    119  CA        -1.5590    9.7480  -18.1300 C.3   198  VAL198      0.1561
    120  C         -1.9660   10.0140  -16.6890 C.2   198  VAL198      0.2260
    121  O         -3.0690    9.6500  -16.2570 O.2   198  VAL198     -0.2867
    122  CB        -2.0610   10.8440  -19.1120 C.3   198  VAL198      0.0252
    123  CG1       -3.5790   10.9610  -19.0730 C.3   198  VAL198      0.0019
    124  CG2       -1.4130   12.1930  -18.8230 C.3   198  VAL198      0.0019
    125  N         -2.5170   13.1720  -14.2900 N.3   200  ILE200     -0.1245
    126  CA        -2.7090   14.6190  -14.3130 C.3   200  ILE200      0.1561
    127  C         -2.7390   15.1360  -12.8780 C.2   200  ILE200      0.2260
    128  O         -3.5680   14.7250  -12.0660 O.2   200  ILE200     -0.2867
    129  CB        -3.9850   15.0200  -15.0850 C.3   200  ILE200      0.0252
    130  CG1       -3.9490   14.4130  -16.4950 C.3   200  ILE200      0.0019
    131  CG2       -4.1090   16.5420  -15.1680 C.3   200  ILE200      0.0019
    132  CD1       -5.3030   14.3070  -17.1610 C.3   200  ILE200      0.0001
    133  N         -2.9630   18.3640  -10.3670 N.3   202  ARG202     -0.1245
    134  CA        -3.5180   19.7100  -10.3290 C.3   202  ARG202      0.1563
    135  C         -3.8340   20.1390   -8.8980 C.2   202  ARG202      0.2260
    136  O         -3.8280   19.3150   -7.9720 O.2   202  ARG202     -0.2867
    137  CB        -4.7940   19.7820  -11.1830 C.3   202  ARG202      0.0307
    138  CG        -4.5480   19.7590  -12.6910 C.3   202  ARG202      0.0489
    139  CD        -5.8390   19.5880  -13.4820 C.3   202  ARG202      0.2205
    140  NE        -6.4790   18.2960  -13.2380 N.pl3 202  ARG202     -0.0865
    141  CZ        -7.3600   17.7240  -14.0560 C.cat 202  ARG202      0.5346
    142  NH1       -7.7000   18.3110  -15.2020 N.pl3 202  ARG202      0.1354
    143  NH2       -7.8900   16.5510  -13.7380 N.pl3 202  ARG202      0.1354
@<TRIPOS>BOND
     1   101   102    2
     2   101   100    1
     3    77    76    2
     4    76    75    1
     5   100    99    1
     6   100   103    1
     7    74    75    1
     8   105   103    1
     9    75    78    1
    10   103   104    1
    11    45    44    2
    12    82    83    1
    13    44    43    1
    14    42    43    1
    15    91    90    1
    16    91    92    2
    17   104   106    1
    18    90    89    1
    19    90    93    1
    20    78    79    1
    21    83    84    1
    22    83    86    1
    23    88    86    1
    24    43    46    1
    25    85    84    2
    26    79    80    1
    27    79    81    1
    28    93    94    1
    29    50    51    1
    30    86    87    1
    31   113   114    1
    32   113   112    1
    33    48    46    1
    34    46    47    1
    35   111   112    1
    36   111   108    1
    37   114   115    2
    38    36    38   ar
    39    36    35   ar
    40    34    35    1
    41    34    31    1
    42    94    96   ar
    43    94    95   ar
    44    51    52    1
    45    51    54    1
    46    53    52    2
    47   107   108    1
    48    32    33    2
    49    32    31    1
    50    38    40   ar
    51    35    37   ar
    52   115   116    1
    53   115   117    1
    54    47    49    1
    55   108   109    1
    56    56    58   ar
    57    56    55   ar
    58    96    98   ar
    59    95    97   ar
    60    31    30    1
    61    54    55    1
    62    40    41    1
    63    40    39   ar
    64    37    39   ar
    65    58    59   ar
    66    55    57   ar
    67   109   110    2
    68    98    97   ar
    69    59    57   ar
    70    60    61    1
    71    28    27    2
    72    73    72    1
    73   122   123    1
    74   122   124    1
    75   122   119    1
    76    66    65   ar
    77    26    27    1
    78    26    23    1
    79   118   119    1
    80    25    24    2
    81    27    29   am
    82    24    23    1
    83   119   120    1
    84    72    69    1
    85    61    64    1
    86    61    62    1
    87     9     8    1
    88    65    64    1
    89    65    67   ar
    90    71    70    2
    91    23    22    1
    92    70    69    1
    93   132   130    1
    94     7     6    1
    95     7     8    1
    96    62    63    2
    97     6     5    1
    98    69    68    1
    99   120   121    2
   100   130   129    1
   101     1     2    1
   102    21    20    1
   103     5     2    1
   104     2     3    1
   105   142   141    1
   106   131   129    1
   107   129   126    1
   108    19    20   ar
   109    19    17   ar
   110    20    18   ar
   111   126   125    1
   112   126   127    1
   113   141   143    1
   114   141   140    2
   115     3     4    2
   116    17    15   ar
   117   139   140    1
   118   139   138    1
   119    18    16   ar
   120   127   128    2
   121   138   137    1
   122    15    16   ar
   123    15    14    1
   124    13    12    2
   125    12    11    1
   126   137   134    1
   127    14    11    1
   128    11    10    1
   129   133   134    1
   130   134   135    1
   131   135   136    2
