@<TRIPOS>MOLECULE
tmp/4nrqA00.pdb
 157 143 0 0 0
SMALL
GASTEIGER

@<TRIPOS>ATOM
      1  N          6.9740   11.3710   19.9700 N.3    60  LYS60      -0.1245
      2  CA         8.0000   10.8070   20.8500 C.3    60  LYS60       0.1561
      3  C          7.6000   10.8760   22.3180 C.2    60  LYS60       0.2260
      4  O          7.0830   11.8940   22.7880 O.2    60  LYS60      -0.2867
      5  CB         9.3560   11.4880   20.6390 C.3    60  LYS60       0.0271
      6  CG        10.0670   11.0730   19.3580 C.3    60  LYS60       0.0035
      7  CD        11.2680   11.9630   19.0500 C.3    60  LYS60       0.0206
      8  CE        12.5570   11.4480   19.6810 C.3    60  LYS60       0.1093
      9  NZ        12.9950   10.1360   19.1080 N.3    60  LYS60      -0.1314
     10  N         15.5400   14.8150   26.5150 N.3    67  TYR67      -0.1241
     11  CA        16.3680   15.9330   26.0560 C.3    67  TYR67       0.1605
     12  C         15.6770   16.7960   24.9920 C.2    67  TYR67       0.2264
     13  O         14.5650   16.4890   24.5500 O.2    67  TYR67      -0.2867
     14  CB        17.7070   15.4070   25.5170 C.3    67  TYR67       0.0534
     15  CG        17.5700   14.5480   24.2820 C.ar   67  TYR67      -0.0201
     16  CD1       17.7170   15.0980   23.0100 C.ar   67  TYR67      -0.0009
     17  CD2       17.2860   13.1870   24.3850 C.ar   67  TYR67      -0.0009
     18  CE1       17.5850   14.3180   21.8730 C.ar   67  TYR67       0.0417
     19  CE2       17.1520   12.3980   23.2530 C.ar   67  TYR67       0.0417
     20  CZ        17.3040   12.9680   22.0020 C.ar   67  TYR67       0.1957
     21  OH        17.1760   12.1900   20.8790 O.3    67  TYR67      -0.2866
     22  N          8.9580    6.0040   19.8270 N.3   111  ASN111     -0.1240
     23  CA         8.5620    6.7470   18.6300 C.3   111  ASN111      0.1653
     24  C          7.3070    6.1230   18.0410 C.2   111  ASN111      0.2266
     25  O          7.2810    4.9300   17.7550 O.2   111  ASN111     -0.2867
     26  CB         9.6570    6.7010   17.5600 C.3   111  ASN111      0.1155
     27  CG        10.8680    7.5470   17.8940 C.2   111  ASN111      0.2627
     28  OD1       11.0220    8.0470   19.0010 O.2   111  ASN111     -0.2716
     29  ND2       11.7450    7.7020   16.9170 N.am  111  ASN111     -0.0877
     30  N          4.8650    6.3630   14.8270 N.3   113  TYR113     -0.1241
     31  CA         4.7890    6.8850   13.4700 C.3   113  TYR113      0.1605
     32  C          3.4230    6.6630   12.8330 C.2   113  TYR113      0.2264
     33  O          2.7970    5.6140   13.0190 O.2   113  TYR113     -0.2867
     34  CB         5.8470    6.2280   12.5790 C.3   113  TYR113      0.0534
     35  CG         7.2800    6.4290   13.0190 C.ar  113  TYR113     -0.0201
     36  CD1        8.0190    7.5290   12.5820 C.ar  113  TYR113     -0.0009
     37  CD2        7.9070    5.5030   13.8520 C.ar  113  TYR113     -0.0009
     38  CE1        9.3370    7.7080   12.9770 C.ar  113  TYR113      0.0417
     39  CE2        9.2210    5.6730   14.2510 C.ar  113  TYR113      0.0417
     40  CZ         9.9320    6.7760   13.8150 C.ar  113  TYR113      0.1957
     41  OH        11.2370    6.9410   14.2150 O.3   113  TYR113     -0.2866
     42  N         12.1840    9.8810    9.7850 N.3   119  ILE119     -0.1245
     43  CA        13.1620   10.5940   10.6020 C.3   119  ILE119      0.1561
     44  C         14.2140   11.1140    9.6500 C.2   119  ILE119      0.2260
     45  O         14.6720   10.3950    8.7540 O.2   119  ILE119     -0.2867
     46  CB        13.8840    9.7280   11.6590 C.3   119  ILE119      0.0252
     47  CG1       13.0880    8.4820   12.0220 C.3   119  ILE119      0.0019
     48  CG2       14.1940   10.5570   12.9020 C.3   119  ILE119      0.0019
     49  CD1       13.9650    7.3880   12.5800 C.3   119  ILE119      0.0001
     50  N         20.3730   11.8170   10.9700 N.3   122  HIS122     -0.1241
     51  CA        20.9480   12.2100   12.2480 C.3   122  HIS122      0.1621
     52  C         21.8730   11.1670   12.8000 C.2   122  HIS122      0.2264
     53  O         21.8750   10.0180   12.3550 O.2   122  HIS122     -0.2867
     54  CB        19.8470   12.5430   13.2590 C.3   122  HIS122      0.0745
     55  CG        19.1120   11.3350   13.7790 C.ar  122  HIS122      0.0817
     56  ND1       18.2730   10.6120   13.0140 N.ar  122  HIS122     -0.2268
     57  CD2       19.1160   10.7360   15.0360 C.ar  122  HIS122      0.1154
     58  CE1       17.7670    9.6000   13.7430 C.ar  122  HIS122      0.1986
     59  NE2       18.2860    9.6760   14.9800 N.ar  122  HIS122     -0.2212
     60  N         22.6380    9.6700   16.6540 N.3   124  ASP124     -0.1239
     61  CA        22.2110    9.6860   18.0570 C.3   124  ASP124      0.1674
     62  C         23.2620   10.4620   18.8440 C.2   124  ASP124      0.2266
     63  O         24.4370   10.1060   18.7950 O.2   124  ASP124     -0.2867
     64  CB        22.0400    8.2650   18.6120 C.3   124  ASP124      0.1410
     65  CG        20.6800    7.6650   18.2830 C.2   124  ASP124      0.3668
     66  OD1       20.0750    8.0630   17.2580 O.co2 124  ASP124     -0.2456
     67  OD2       20.2200    6.7900   19.0530 O.co2 124  ASP124     -0.2456
     68  N         17.1790   -0.9520   19.9360 N.3   135  SER135     -0.1217
     69  CA        15.8280   -0.5700   19.5320 C.3   135  SER135      0.1889
     70  C         15.0040   -1.7710   19.0810 C.2   135  SER135      0.2288
     71  O         15.5310   -2.7000   18.4600 O.2   135  SER135     -0.2866
     72  CB        15.8570    0.5080   18.4420 C.3   135  SER135      0.2089
     73  OG        16.4270    0.0120   17.2500 O.3   135  SER135     -0.2183
     74  N         11.3350   -2.8190   17.1510 N.3   137  SER137     -0.1217
     75  CA        10.2610   -2.3470   16.2680 C.3   137  SER137      0.1889
     76  C          8.9630   -3.1170   16.4960 C.2   137  SER137      0.2288
     77  O          8.9910   -4.3100   16.8080 O.2   137  SER137     -0.2866
     78  CB        10.6960   -2.4550   14.8090 C.3   137  SER137      0.2089
     79  OG        11.8940   -1.7230   14.5900 O.3   137  SER137     -0.2183
     80  N         15.6470    0.8150    8.0530 N.3   144  LEU144     -0.1245
     81  CA        16.5120    1.8680    8.5750 C.3   144  LEU144      0.1561
     82  C         17.6580    2.1220    7.6010 C.2   144  LEU144      0.2260
     83  O         18.4100    1.2060    7.2590 O.2   144  LEU144     -0.2867
     84  CB        17.0390    1.5010    9.9710 C.3   144  LEU144      0.0270
     85  CG        18.0050    2.4390   10.7100 C.3   144  LEU144      0.0019
     86  CD1       17.4470    3.8490   10.8550 C.3   144  LEU144      0.0001
     87  CD2       18.3560    1.8660   12.0780 C.3   144  LEU144      0.0001
     88  N         13.8410   -3.6210    9.2550 N.3   166  VAL166     -0.1245
     89  CA        13.4770   -3.6450   10.6700 C.3   166  VAL166      0.1561
     90  C         12.0470   -4.1690   10.8290 C.2   166  VAL166      0.2260
     91  O         11.0670   -3.4090   10.8250 O.2   166  VAL166     -0.2867
     92  CB        13.6980   -2.2790   11.3840 C.3   166  VAL166      0.0252
     93  CG1       15.1760   -2.0510   11.6690 C.3   166  VAL166      0.0019
     94  CG2       13.1190   -1.1170   10.5850 C.3   166  VAL166      0.0019
     95  N         23.0420   -1.0050   17.6850 N.3   174  LEU174     -0.1245
     96  CA        24.0160   -0.1790   16.9730 C.3   174  LEU174      0.1561
     97  C         25.2160    0.1580   17.8500 C.2   174  LEU174      0.2260
     98  O         25.0600    0.5120   19.0200 O.2   174  LEU174     -0.2867
     99  CB        23.3670    1.1120   16.4510 C.3   174  LEU174      0.0270
    100  CG        22.1960    0.9800   15.4690 C.3   174  LEU174      0.0019
    101  CD1       21.5710    2.3410   15.2050 C.3   174  LEU174      0.0001
    102  CD2       22.6300    0.3280   14.1650 C.3   174  LEU174      0.0001
    103  N         21.8990    8.0170   10.2640 N.3   184  HIS184     -0.1241
    104  CA        20.7860    7.1460    9.9120 C.3   184  HIS184      0.1621
    105  C         19.4970    7.9150    9.7880 C.2   184  HIS184      0.2264
    106  O         19.4020    9.0670   10.2240 O.2   184  HIS184     -0.2867
    107  CB        20.6730    5.9450   10.8580 C.3   184  HIS184      0.0745
    108  CG        20.4350    6.3110   12.3040 C.ar  184  HIS184      0.0817
    109  ND1       21.4290    6.3510   13.2130 N.ar  184  HIS184     -0.2268
    110  CD2       19.2630    6.6300   12.9880 C.ar  184  HIS184      0.1154
    111  CE1       20.9250    6.6920   14.4150 C.ar  184  HIS184      0.1986
    112  NE2       19.5980    6.8600   14.2780 N.ar  184  HIS184     -0.2212
    113  N         14.9520    7.3430    8.3390 N.3   186  ILE186     -0.1245
    114  CA        13.8800    6.5330    7.7540 C.3   186  ILE186      0.1561
    115  C         13.1640    7.3230    6.6550 C.2   186  ILE186      0.2260
    116  O         12.7880    8.4800    6.8530 O.2   186  ILE186     -0.2867
    117  CB        12.8710    6.0220    8.8130 C.3   186  ILE186      0.0252
    118  CG1       13.5440    5.0050    9.7380 C.3   186  ILE186      0.0019
    119  CG2       11.6700    5.3620    8.1420 C.3   186  ILE186      0.0019
    120  CD1       12.6720    4.4980   10.8660 C.3   186  ILE186      0.0001
    121  N          3.6500    2.4660   12.7440 N.3   195  ARG195     -0.1245
    122  CA         4.8580    1.8270   13.2370 C.3   195  ARG195      0.1563
    123  C          5.3300    2.4710   14.5330 C.2   195  ARG195      0.2260
    124  O          5.3380    3.6930   14.6600 O.2   195  ARG195     -0.2867
    125  CB         5.9570    1.8990   12.1830 C.3   195  ARG195      0.0307
    126  CG         7.1770    1.0730   12.5300 C.3   195  ARG195      0.0489
    127  CD         8.3490    1.4030   11.6310 C.3   195  ARG195      0.2205
    128  NE         9.5630    0.7930   12.1570 N.pl3 195  ARG195     -0.0865
    129  CZ        10.5310    1.4630   12.7660 C.cat 195  ARG195      0.5346
    130  NH1       10.4480    2.7820   12.9040 N.pl3 195  ARG195      0.1354
    131  NH2       11.5930    0.8140   13.2230 N.pl3 195  ARG195      0.1354
    132  N          8.4840    2.1480   17.7370 N.3   197  VAL197     -0.1245
    133  CA         9.7980    1.6380   18.0980 C.3   197  VAL197      0.1561
    134  C         10.1030    2.0540   19.5300 C.2   197  VAL197      0.2260
    135  O          9.7560    3.1650   19.9500 O.2   197  VAL197     -0.2867
    136  CB        10.8910    2.1320   17.1170 C.3   197  VAL197      0.0252
    137  CG1       11.0800    3.6410   17.2090 C.3   197  VAL197      0.0019
    138  CG2       12.2120    1.4070   17.3530 C.3   197  VAL197      0.0019
    139  N         13.2540    2.6170   22.0030 N.3   199  ILE199     -0.1245
    140  CA        14.6950    2.8270   21.9430 C.3   199  ILE199      0.1561
    141  C         15.2600    2.8550   23.3500 C.2   199  ILE199      0.2260
    142  O         14.8870    3.6980   24.1660 O.2   199  ILE199     -0.2867
    143  CB        15.0640    4.1260   21.1950 C.3   199  ILE199      0.0252
    144  CG1       14.3680    4.1730   19.8260 C.3   199  ILE199      0.0019
    145  CG2       16.5760    4.2450   21.0560 C.3   199  ILE199      0.0019
    146  CD1       14.4200    5.5270   19.1440 C.3   199  ILE199      0.0001
    147  N         18.5280    3.0170   25.8290 N.3   201  ARG201     -0.1245
    148  CA        19.8660    3.5960   25.8770 C.3   201  ARG201      0.1563
    149  C         20.2840    3.9320   27.3030 C.2   201  ARG201      0.2260
    150  O         19.4390    4.1370   28.1780 O.2   201  ARG201     -0.2867
    151  CB        19.9210    4.8670   25.0160 C.3   201  ARG201      0.0307
    152  CG        19.8830    4.6220   23.5130 C.3   201  ARG201      0.0489
    153  CD        19.7290    5.9080   22.7180 C.3   201  ARG201      0.2205
    154  NE        18.4360    6.5450   22.9670 N.pl3 201  ARG201     -0.0865
    155  CZ        17.8440    7.4080   22.1470 C.cat 201  ARG201      0.5346
    156  NH1       18.4130    7.7510   20.9970 N.pl3 201  ARG201      0.1354
    157  NH2       16.6720    7.9230   22.4780 N.pl3 201  ARG201      0.1354
@<TRIPOS>BOND
     1   115   116    2
     2   115   114    1
     3    83    82    2
     4    82    81    1
     5   114   113    1
     6   114   117    1
     7    80    81    1
     8   119   117    1
     9    81    84    1
    10    45    44    2
    11   117   118    1
    12    88    89    1
    13    44    43    1
    14   118   120    1
    15    42    43    1
    16   105   104    1
    17   105   106    2
    18   104   103    1
    19   104   107    1
    20    84    85    1
    21    94    92    1
    22    43    46    1
    23    89    90    1
    24    89    92    1
    25    85    86    1
    26    85    87    1
    27    91    90    2
    28   107   108    1
    29    50    51    1
    30    92    93    1
    31   127   128    1
    32   127   126    1
    33    46    47    1
    34    46    48    1
    35    47    49    1
    36   128   129    2
    37   125   126    1
    38   125   122    1
    39    51    52    1
    40    51    54    1
    41   108   110   ar
    42   108   109   ar
    43    53    52    2
    44    34    35    1
    45    34    31    1
    46    36    38   ar
    47    36    35   ar
    48   121   122    1
    49   129   130    1
    50   129   131    1
    51    32    33    2
    52    32    31    1
    53    38    40   ar
    54   110   112   ar
    55    56    58   ar
    56    56    55   ar
    57    35    37   ar
    58   109   111   ar
    59   122   123    1
    60    54    55    1
    61    31    30    1
    62    58    59   ar
    63    55    57   ar
    64    40    41    1
    65    40    39   ar
    66    37    39   ar
    67   102   100    1
    68   112   111   ar
    69   123   124    2
    70    79    78    1
    71    78    75    1
    72    59    57   ar
    73   101   100    1
    74   100    99    1
    75    75    76    1
    76    75    74    1
    77    99    96    1
    78    76    77    2
    79    60    61    1
    80    29    27   am
    81    96    95    1
    82    96    97    1
    83   136   137    1
    84   136   138    1
    85   136   133    1
    86    73    72    1
    87    66    65   ar
    88    26    27    1
    89    26    23    1
    90   132   133    1
    91    25    24    2
    92    97    98    2
    93    27    28    2
    94    24    23    1
    95    61    64    1
    96    61    62    1
    97   133   134    1
    98    65    64    1
    99    65    67   ar
   100    72    69    1
   101    71    70    2
   102    23    22    1
   103    63    62    2
   104     7     6    1
   105     7     8    1
   106    70    69    1
   107     9     8    1
   108   146   144    1
   109     6     5    1
   110   134   135    2
   111    69    68    1
   112   144   143    1
   113     1     2    1
   114     5     2    1
   115     2     3    1
   116    21    20    1
   117   156   155    1
   118   145   143    1
   119   143   140    1
   120    18    20   ar
   121    18    16   ar
   122   140   139    1
   123   140   141    1
   124    20    19   ar
   125   155   157    1
   126   155   154    2
   127     3     4    2
   128   153   154    1
   129   153   152    1
   130    16    15   ar
   131    19    17   ar
   132   141   142    2
   133   152   151    1
   134    15    17   ar
   135    15    14    1
   136    13    12    2
   137    12    11    1
   138   151   148    1
   139    14    11    1
   140   147   148    1
   141   148   149    1
   142    11    10    1
   143   149   150    2
