@<TRIPOS>MOLECULE
tmp/4nrrA00.pdb
 192 195 0 0 0
SMALL
GASTEIGER

@<TRIPOS>ATOM
      1  N         42.1820   81.1630   44.2460 N.3   120  TRP120     -0.1241
      2  CA        42.5820   82.3720   43.4910 C.3   120  TRP120      0.1605
      3  C         41.5130   83.4170   43.3990 C.2   120  TRP120      0.2264
      4  O         40.3480   83.1650   43.7190 O.2   120  TRP120     -0.2867
      5  CB        43.0030   81.9840   42.0940 C.3   120  TRP120      0.0550
      6  CG        44.1310   80.9910   42.1390 C.ar  120  TRP120      0.0003
      7  CD1       44.1190   79.6990   41.6370 C.ar  120  TRP120      0.0946
      8  CD2       45.4780   81.1800   42.7500 C.ar  120  TRP120      0.0152
      9  NE1       45.3160   79.0930   41.8740 N.ar  120  TRP120     -0.2442
     10  CE2       46.1800   79.9280   42.5600 C.ar  120  TRP120      0.0810
     11  CE3       46.1130   82.2140   43.4040 C.ar  120  TRP120      0.0012
     12  CZ2       47.5000   79.7240   43.0050 C.ar  120  TRP120      0.0191
     13  CZ3       47.4690   82.0190   43.8400 C.ar  120  TRP120      0.0001
     14  CH2       48.1350   80.7910   43.6320 C.ar  120  TRP120      0.0015
     15  N         39.8650   84.9530   40.9790 N.3   122  TRP122     -0.1241
     16  CA        39.0290   85.2530   39.8470 C.3   122  TRP122      0.1605
     17  C         37.5690   84.9530   40.0200 C.2   122  TRP122      0.2264
     18  O         36.7290   85.2430   39.1230 O.2   122  TRP122     -0.2867
     19  CB        39.5680   84.5950   38.5670 C.3   122  TRP122      0.0550
     20  CG        39.8960   83.1000   38.6160 C.ar  122  TRP122      0.0003
     21  CD1       41.1190   82.5170   38.8390 C.ar  122  TRP122      0.0946
     22  CD2       38.9920   81.9830   38.3430 C.ar  122  TRP122      0.0152
     23  NE1       41.0390   81.1800   38.7100 N.ar  122  TRP122     -0.2442
     24  CE2       39.7860   80.7980   38.4240 C.ar  122  TRP122      0.0810
     25  CE3       37.6360   81.8760   38.0340 C.ar  122  TRP122      0.0012
     26  CZ2       39.2500   79.5310   38.2750 C.ar  122  TRP122      0.0191
     27  CZ3       37.1040   80.5940   37.8450 C.ar  122  TRP122      0.0001
     28  CH2       37.8980   79.4380   37.9800 C.ar  122  TRP122      0.0015
     29  N         52.4270   87.3360   43.3930 N.3   148  TYR148     -0.1241
     30  CA        51.6320   86.1500   43.7770 C.3   148  TYR148      0.1605
     31  C         51.8610   85.6190   45.2230 C.2   148  TYR148      0.2264
     32  O         50.8950   85.1250   45.8420 O.2   148  TYR148     -0.2867
     33  CB        51.6720   85.0180   42.6960 C.3   148  TYR148      0.0534
     34  CG        50.4830   85.1720   41.7550 C.ar  148  TYR148     -0.0201
     35  CD1       49.2100   84.7110   42.1220 C.ar  148  TYR148     -0.0009
     36  CD2       50.6230   85.8380   40.5120 C.ar  148  TYR148     -0.0009
     37  CE1       48.1000   84.9170   41.2870 C.ar  148  TYR148      0.0417
     38  CE2       49.5570   86.0500   39.6590 C.ar  148  TYR148      0.0417
     39  CZ        48.2760   85.5930   40.0310 C.ar  148  TYR148      0.1957
     40  OH        47.1720   85.8040   39.1900 O.3   148  TYR148     -0.2866
     41  N         39.3860   75.1310   44.2060 N.3   204  ASN204     -0.1225
     42  CA        40.4510   75.1360   43.2530 C.3   204  ASN204      0.1785
     43  C         41.8450   75.4940   43.8680 C.2   204  ASN204      0.2597
     44  O         42.1170   76.6250   44.2420 O.2   204  ASN204     -0.2718
     45  CB        40.1350   76.1160   42.1820 C.3   204  ASN204      0.1169
     46  CG        41.2210   76.1880   41.1580 C.2   204  ASN204      0.2627
     47  OD1       41.8200   75.1680   40.8520 O.2   204  ASN204     -0.2716
     48  ND2       41.5040   77.3730   40.6460 N.am  204  ASN204     -0.0877
     49  N         42.7490   74.5400   43.9290 N.am  205  ALA205     -0.1979
     50  CA        44.1810   74.8890   44.2070 C.3   205  ALA205      0.1597
     51  C         44.4940   75.5040   45.5800 C.2   205  ALA205      0.2287
     52  O         45.2350   76.5020   45.6580 O.2   205  ALA205     -0.2864
     53  CB        44.7510   75.7610   43.0960 C.3   205  ALA205      0.0319
     54  N         46.8230   71.0610   43.2490 N.3   235  GLU235     -0.1245
     55  CA        47.6730   71.0440   42.0420 C.3   235  GLU235      0.1567
     56  C         48.6380   69.8630   42.0660 C.2   235  GLU235      0.2260
     57  O         49.0010   69.3440   40.9800 O.2   235  GLU235     -0.2867
     58  CB        48.4940   72.3270   41.9080 C.3   235  GLU235      0.0388
     59  CG        47.6860   73.5620   41.5370 C.3   235  GLU235      0.1160
     60  CD        48.3510   74.8810   41.9720 C.2   235  GLU235      0.3649
     61  OE1       48.3030   75.8880   41.2120 O.co2 235  GLU235     -0.2457
     62  OE2       48.9090   74.9450   43.0910 O.co2 235  GLU235     -0.2457
     63  N         51.7210   70.2850   42.8520 N.3   237  LYS237     -0.1245
     64  CA        52.9250   70.8130   42.2000 C.3   237  LYS237      0.1561
     65  C         54.1960   70.6650   43.0490 C.2   237  LYS237      0.2260
     66  O         55.2960   70.9770   42.5690 O.2   237  LYS237     -0.2867
     67  CB        52.7700   72.2780   41.7200 C.3   237  LYS237      0.0271
     68  CG        52.4330   73.2370   42.8520 C.3   237  LYS237      0.0035
     69  CD        52.4610   74.7020   42.4410 C.3   237  LYS237      0.0206
     70  CE        53.8650   75.3130   42.6250 C.3   237  LYS237      0.1093
     71  NZ        54.3990   75.2910   44.0380 N.3   237  LYS237     -0.1314
     72  N         47.3900   69.2300   38.5560 N.3   258  HIS258     -0.1241
     73  CA        47.2650   70.3380   37.6280 C.3   258  HIS258      0.1621
     74  C         48.6400   70.5130   37.0330 C.2   258  HIS258      0.2264
     75  O         49.6090   70.4930   37.7430 O.2   258  HIS258     -0.2867
     76  CB        46.8870   71.5970   38.4160 C.3   258  HIS258      0.0745
     77  CG        45.4880   71.5470   39.0980 C.ar  258  HIS258      0.0817
     78  ND1       44.8720   72.6700   39.6070 N.ar  258  HIS258     -0.2268
     79  CD2       44.6310   70.4850   39.3750 C.ar  258  HIS258      0.1154
     80  CE1       43.6920   72.3350   40.1660 C.ar  258  HIS258      0.1986
     81  NE2       43.5460   70.9850   40.0370 N.ar  258  HIS258     -0.2212
     82  N         51.0360   73.0810   34.9610 N.3   260  TRP260     -0.1241
     83  CA        51.2620   74.3810   34.3150 C.3   260  TRP260      0.1605
     84  C         52.7340   74.7070   34.0380 C.2   260  TRP260      0.2264
     85  O         53.4300   75.4280   34.8260 O.2   260  TRP260     -0.2867
     86  CB        50.6050   75.4890   35.1550 C.3   260  TRP260      0.0550
     87  CG        49.1260   75.2910   35.1700 C.ar  260  TRP260      0.0003
     88  CD1       48.3450   74.7890   36.2090 C.ar  260  TRP260      0.0946
     89  CD2       48.1870   75.4760   34.0200 C.ar  260  TRP260      0.0152
     90  NE1       47.0470   74.6920   35.8040 N.ar  260  TRP260     -0.2442
     91  CE2       46.8790   75.0820   34.5080 C.ar  260  TRP260      0.0810
     92  CE3       48.3210   75.9360   32.7270 C.ar  260  TRP260      0.0012
     93  CZ2       45.7290   75.1860   33.7300 C.ar  260  TRP260      0.0191
     94  CZ3       47.1850   76.0110   31.9060 C.ar  260  TRP260      0.0001
     95  CH2       45.9050   75.6330   32.3980 C.ar  260  TRP260      0.0015
     96  N         53.3150   78.8310   33.5770 N.3   263  ASN263     -0.1225
     97  CA        53.1750   79.4280   34.9320 C.3   263  ASN263      0.1785
     98  C         54.2760   79.0320   35.8710 C.2   263  ASN263      0.2597
     99  O         54.6660   79.8450   36.6960 O.2   263  ASN263     -0.2718
    100  CB        51.8500   79.1060   35.6310 C.3   263  ASN263      0.1169
    101  CG        50.6520   79.1850   34.6990 C.2   263  ASN263      0.2627
    102  OD1       50.6960   78.6600   33.5640 O.2   263  ASN263     -0.2716
    103  ND2       49.5580   79.7920   35.1780 N.am  263  ASN263     -0.0877
    104  N         54.8030   77.8130   35.7570 N.am  264  TRP264     -0.1976
    105  CA        55.9250   77.4570   36.6700 C.3   264  TRP264      0.1640
    106  C         57.3290   77.7460   36.1890 C.2   264  TRP264      0.2290
    107  O         58.3200   77.3300   36.8560 O.2   264  TRP264     -0.2864
    108  CB        55.8070   76.0190   37.1040 C.3   264  TRP264      0.0576
    109  CG        54.4550   75.7580   37.7100 C.ar  264  TRP264      0.0006
    110  CD1       53.6290   76.6900   38.3690 C.ar  264  TRP264      0.0946
    111  CD2       53.7520   74.4780   37.8100 C.ar  264  TRP264      0.0152
    112  NE1       52.4800   76.0930   38.8110 N.ar  264  TRP264     -0.2442
    113  CE2       52.4670   74.7680   38.4960 C.ar  264  TRP264      0.0810
    114  CE3       54.0370   73.1580   37.4350 C.ar  264  TRP264      0.0012
    115  CZ2       51.5220   73.7650   38.7690 C.ar  264  TRP264      0.0191
    116  CZ3       53.0740   72.1640   37.7210 C.ar  264  TRP264      0.0001
    117  CH2       51.8470   72.4680   38.3740 C.ar  264  TRP264      0.0015
    118  N         43.5630   69.7010   35.3820 N.3   304  GLU304     -0.1245
    119  CA        43.8820   70.9440   34.6510 C.3   304  GLU304      0.1567
    120  C         45.2370   70.7600   34.0010 C.2   304  GLU304      0.2260
    121  O         46.1880   70.3160   34.6620 O.2   304  GLU304     -0.2867
    122  CB        44.0650   72.1530   35.5830 C.3   304  GLU304      0.0388
    123  CG        42.8500   72.6750   36.3430 C.3   304  GLU304      0.1160
    124  CD        43.2190   73.9300   37.1270 C.2   304  GLU304      0.3649
    125  OE1       44.4390   74.3320   37.1330 O.co2 304  GLU304     -0.2457
    126  OE2       42.3140   74.5020   37.7830 O.co2 304  GLU304     -0.2457
    127  N         42.4450   72.5260   30.2820 N.3   357  TRP357     -0.1241
    128  CA        42.0800   73.8900   30.6330 C.3   357  TRP357      0.1605
    129  C         42.4210   74.8220   29.4770 C.2   357  TRP357      0.2264
    130  O         43.5920   75.1000   29.2170 O.2   357  TRP357     -0.2867
    131  CB        42.8200   74.3010   31.8930 C.3   357  TRP357      0.0550
    132  CG        42.4540   75.6740   32.3010 C.ar  357  TRP357      0.0003
    133  CD1       42.8680   76.8720   31.7460 C.ar  357  TRP357      0.0946
    134  CD2       41.5480   76.0380   33.3900 C.ar  357  TRP357      0.0152
    135  NE1       42.3110   77.9190   32.3900 N.ar  357  TRP357     -0.2442
    136  CE2       41.5100   77.4850   33.4160 C.ar  357  TRP357      0.0810
    137  CE3       40.8470   75.3310   34.3390 C.ar  357  TRP357      0.0012
    138  CZ2       40.7360   78.1840   34.3520 C.ar  357  TRP357      0.0191
    139  CZ3       40.0520   76.0300   35.2320 C.ar  357  TRP357      0.0001
    140  CH2       39.9980   77.4220   35.2390 C.ar  357  TRP357      0.0015
    141  N         39.9700   82.9630   32.8690 N.3   380  PRO380     -0.2116
    142  CA        39.2530   83.7860   33.8070 C.3   380  PRO380      0.1372
    143  C         39.8150   85.1700   33.7460 C.2   380  PRO380      0.2244
    144  O         40.9090   85.3470   33.2590 O.2   380  PRO380     -0.2868
    145  CB        39.5190   83.1140   35.1750 C.3   380  PRO380      0.0268
    146  CG        39.9420   81.7170   34.8280 C.3   380  PRO380      0.0207
    147  CD        40.7320   81.9000   33.5410 C.3   380  PRO380      0.0892
    148  N         41.3480   87.1650   35.6200 N.3   382  HIS382     -0.1226
    149  CA        42.6500   87.6280   36.2320 C.3   382  HIS382      0.1752
    150  C         43.8540   87.4780   35.2810 C.2   382  HIS382      0.2595
    151  O         45.0280   87.7940   35.6190 O.2   382  HIS382     -0.2718
    152  CB        42.9150   86.8600   37.5310 C.3   382  HIS382      0.0759
    153  CG        43.2180   85.4080   37.3060 C.ar  382  HIS382      0.0818
    154  ND1       42.4740   84.6170   36.4920 N.ar  382  HIS382     -0.2268
    155  CD2       44.2420   84.5940   37.8020 C.ar  382  HIS382      0.1154
    156  CE1       42.9640   83.3810   36.4800 C.ar  382  HIS382      0.1986
    157  NE2       44.0600   83.3590   37.2840 N.ar  382  HIS382     -0.2212
    158  N         43.5530   86.9710   34.0840 N.am  383  GLU383     -0.1979
    159  CA        44.5450   86.5280   33.0890 C.3   383  GLU383      0.1602
    160  C         44.2280   87.1200   31.6930 C.2   383  GLU383      0.2287
    161  O         43.0560   87.3970   31.3790 O.2   383  GLU383     -0.2864
    162  CB        44.5370   84.9960   32.9820 C.3   383  GLU383      0.0415
    163  CG        45.4460   84.4140   34.0400 C.3   383  GLU383      0.1163
    164  CD        45.3170   82.9220   34.1830 C.2   383  GLU383      0.3649
    165  OE1       44.4690   82.3390   33.4850 O.co2 383  GLU383     -0.2457
    166  OE2       46.0820   82.3250   34.9680 O.co2 383  GLU383     -0.2457
    167  N         44.6460   83.3800   26.4530 N.3   387  TRP387     -0.1227
    168  CA        45.8860   82.6600   26.7870 C.3   387  TRP387      0.1737
    169  C         45.7960   81.1750   26.5410 C.2   387  TRP387      0.2595
    170  O         46.5770   80.6480   25.7920 O.2   387  TRP387     -0.2718
    171  CB        46.2580   82.9190   28.2150 C.3   387  TRP387      0.0564
    172  CG        47.6410   82.5200   28.6680 C.ar  387  TRP387      0.0003
    173  CD1       48.7120   82.0820   27.9160 C.ar  387  TRP387      0.0946
    174  CD2       48.1340   82.5410   30.0470 C.ar  387  TRP387      0.0152
    175  NE1       49.8010   81.8340   28.7090 N.ar  387  TRP387     -0.2442
    176  CE2       49.5340   82.0730   29.9870 C.ar  387  TRP387      0.0810
    177  CE3       47.5560   82.8780   31.3140 C.ar  387  TRP387      0.0012
    178  CZ2       50.3260   81.9400   31.1390 C.ar  387  TRP387      0.0191
    179  CZ3       48.3520   82.7660   32.4650 C.ar  387  TRP387      0.0001
    180  CH2       49.7170   82.3240   32.3930 C.ar  387  TRP387      0.0015
    181  N         44.7960   80.4770   27.0800 N.am  388  TYR388     -0.1976
    182  CA        44.7960   79.0300   27.0460 C.3   388  TYR388      0.1639
    183  C         43.5320   78.4800   26.3830 C.2   388  TYR388      0.2290
    184  O         43.4230   77.2800   26.1810 O.2   388  TYR388     -0.2864
    185  CB        44.9030   78.5290   28.4940 C.3   388  TYR388      0.0560
    186  CG        46.2870   78.6440   29.1660 C.ar  388  TYR388     -0.0198
    187  CD1       47.4330   78.2070   28.5140 C.ar  388  TYR388     -0.0009
    188  CD2       46.4370   79.1310   30.4960 C.ar  388  TYR388     -0.0009
    189  CE1       48.6910   78.2890   29.1060 C.ar  388  TYR388      0.0417
    190  CE2       47.6990   79.1990   31.1190 C.ar  388  TYR388      0.0417
    191  CZ        48.8220   78.7590   30.4320 C.ar  388  TYR388      0.1957
    192  OH        50.0690   78.7640   30.9930 O.3   388  TYR388     -0.2866
@<TRIPOS>BOND
     1   170   169    2
     2   184   183    2
     3   183   182    1
     4   167   168    1
     5   169   168    1
     6   169   181   am
     7   168   171    1
     8   182   181    1
     9   182   185    1
    10   173   172   ar
    11   173   175   ar
    12   171   172    1
    13   185   186    1
    14   187   189   ar
    15   187   186   ar
    16   172   174   ar
    17   175   176   ar
    18   189   191   ar
    19   186   188   ar
    20   130   129    2
    21   129   128    1
    22   176   174   ar
    23   176   178   ar
    24   174   177   ar
    25   127   128    1
    26   191   192    1
    27   191   190   ar
    28   188   190   ar
    29   128   131    1
    30   178   180   ar
    31   177   179   ar
    32   161   160    2
    33   160   159    1
    34   133   132   ar
    35   133   135   ar
    36   131   132    1
    37    94    95   ar
    38    94    92   ar
    39   132   134   ar
    40   135   136   ar
    41   180   179   ar
    42    95    93   ar
    43    92    89   ar
    44   141   147    1
    45   141   142    1
    46   162   159    1
    47   162   163    1
    48   159   158    1
    49   144   143    2
    50   134   136   ar
    51   134   137   ar
    52   136   138   ar
    53   165   164   ar
    54   147   146    1
    55   102   101    2
    56    96    97    1
    57    93    91   ar
    58   143   142    1
    59   142   145    1
    60   120   119    1
    61   120   121    2
    62    89    91   ar
    63    89    87   ar
    64    84    83    1
    65    84    85    2
    66   163   164    1
    67   158   150   am
    68   164   166   ar
    69    83    82    1
    70    83    86    1
    71   137   139   ar
    72   138   140   ar
    73    91    90   ar
    74   119   118    1
    75   119   122    1
    76   101   103   am
    77   101   100    1
    78   146   145    1
    79    97   100    1
    80    97    98    1
    81    86    87    1
    82    87    88   ar
    83   139   140   ar
    84   150   151    2
    85   150   149    1
    86   122   123    1
    87   148   149    1
    88   104    98   am
    89   104   105    1
    90    90    88   ar
    91    98    99    2
    92   106   105    1
    93   106   107    2
    94   149   152    1
    95   123   124    1
    96   156   154   ar
    97   156   157   ar
    98   154   153   ar
    99   105   108    1
   100    74    73    1
   101    74    75    2
   102   108   109    1
   103   124   125   ar
   104   124   126   ar
   105   157   155   ar
   106   153   152    1
   107   153   155   ar
   108   114   116   ar
   109   114   111   ar
   110    73    76    1
   111    73    72    1
   112   109   111   ar
   113   109   110   ar
   114   116   117   ar
   115   111   113   ar
   116    27    28   ar
   117    27    25   ar
   118    28    26   ar
   119    25    22   ar
   120    26    24   ar
   121    22    24   ar
   122    22    20   ar
   123   110   112   ar
   124   117   115   ar
   125    76    77    1
   126    24    23   ar
   127   113   115   ar
   128   113   112   ar
   129    19    20    1
   130    19    16    1
   131    20    21   ar
   132    23    21   ar
   133    77    79   ar
   134    77    78   ar
   135    18    17    2
   136    40    39    1
   137    79    81   ar
   138    78    80   ar
   139    38    39   ar
   140    38    36   ar
   141    16    17    1
   142    16    15    1
   143    39    37   ar
   144    81    80   ar
   145    36    34   ar
   146    48    46   am
   147    47    46    2
   148    57    56    2
   149    46    45    1
   150    61    60   ar
   151    37    35   ar
   152    59    58    1
   153    59    60    1
   154     7     9   ar
   155     7     6   ar
   156    67    64    1
   157    67    68    1
   158    34    35   ar
   159    34    33    1
   160     9    10   ar
   161    58    55    1
   162    60    62   ar
   163    55    56    1
   164    55    54    1
   165     5     6    1
   166     5     2    1
   167     6     8   ar
   168    45    42    1
   169    64    63    1
   170    64    65    1
   171    69    70    1
   172    69    68    1
   173    10     8   ar
   174    10    12   ar
   175    66    65    2
   176    70    71    1
   177    33    30    1
   178     8    11   ar
   179    12    14   ar
   180    53    50    1
   181    42    43    1
   182    42    41    1
   183    29    30    1
   184     3     2    1
   185     3     4    2
   186    11    13   ar
   187     2     1    1
   188    14    13   ar
   189    30    31    1
   190    43    49   am
   191    43    44    2
   192    49    50    1
   193    50    51    1
   194    31    32    2
   195    51    52    2
