@<TRIPOS>MOLECULE
tmp/4nrsA00.pdb
 192 195 0 0 0
SMALL
GASTEIGER

@<TRIPOS>ATOM
      1  N         42.8290   81.1260   45.1960 N.3   120  TRP120     -0.1241
      2  CA        43.1740   82.3180   44.4010 C.3   120  TRP120      0.1605
      3  C         42.0630   83.3380   44.2780 C.2   120  TRP120      0.2264
      4  O         40.9090   83.0860   44.6720 O.2   120  TRP120     -0.2867
      5  CB        43.7290   81.9270   43.0330 C.3   120  TRP120      0.0550
      6  CG        44.8580   80.9270   43.1300 C.ar  120  TRP120      0.0003
      7  CD1       44.8490   79.5890   42.7050 C.ar  120  TRP120      0.0946
      8  CD2       46.2030   81.1340   43.7230 C.ar  120  TRP120      0.0152
      9  NE1       46.0540   78.9800   42.9690 N.ar  120  TRP120     -0.2442
     10  CE2       46.9110   79.8420   43.5930 C.ar  120  TRP120      0.0810
     11  CE3       46.8650   82.2160   44.3120 C.ar  120  TRP120      0.0012
     12  CZ2       48.2260   79.6670   44.0410 C.ar  120  TRP120      0.0191
     13  CZ3       48.2010   82.0380   44.7470 C.ar  120  TRP120      0.0001
     14  CH2       48.8600   80.7930   44.6170 C.ar  120  TRP120      0.0015
     15  N         40.3270   84.9580   41.8420 N.3   122  TRP122     -0.1241
     16  CA        39.4530   85.2040   40.6790 C.3   122  TRP122      0.1605
     17  C         37.9970   84.8640   40.8530 C.2   122  TRP122      0.2264
     18  O         37.1760   85.0680   39.9480 O.2   122  TRP122     -0.2867
     19  CB        40.0250   84.6390   39.3780 C.3   122  TRP122      0.0550
     20  CG        40.4240   83.1790   39.4240 C.ar  122  TRP122      0.0003
     21  CD1       41.6710   82.6520   39.7250 C.ar  122  TRP122      0.0946
     22  CD2       39.5660   82.0110   39.1700 C.ar  122  TRP122      0.0152
     23  NE1       41.6430   81.2720   39.6740 N.ar  122  TRP122     -0.2442
     24  CE2       40.4140   80.8300   39.3430 C.ar  122  TRP122      0.0810
     25  CE3       38.2310   81.8370   38.8310 C.ar  122  TRP122      0.0012
     26  CZ2       39.9310   79.5460   39.1780 C.ar  122  TRP122      0.0191
     27  CZ3       37.7530   80.5330   38.6480 C.ar  122  TRP122      0.0001
     28  CH2       38.5830   79.4150   38.8290 C.ar  122  TRP122      0.0015
     29  N         53.6260   87.5660   44.5550 N.3   148  TYR148     -0.1241
     30  CA        52.7940   86.4000   44.9260 C.3   148  TYR148      0.1605
     31  C         52.9180   85.9010   46.3770 C.2   148  TYR148      0.2264
     32  O         51.8880   85.6150   47.0150 O.2   148  TYR148     -0.2867
     33  CB        52.8490   85.2440   43.8870 C.3   148  TYR148      0.0534
     34  CG        51.6250   85.2860   42.9780 C.ar  148  TYR148     -0.0201
     35  CD1       50.3520   85.0530   43.4820 C.ar  148  TYR148     -0.0009
     36  CD2       51.7270   85.6490   41.6420 C.ar  148  TYR148     -0.0009
     37  CE1       49.2210   85.1450   42.6760 C.ar  148  TYR148      0.0417
     38  CE2       50.5960   85.7450   40.8250 C.ar  148  TYR148      0.0417
     39  CZ        49.3360   85.4870   41.3380 C.ar  148  TYR148      0.1957
     40  OH        48.1820   85.5720   40.5350 O.3   148  TYR148     -0.2866
     41  N         40.0610   74.9400   45.2940 N.3   204  ASN204     -0.1225
     42  CA        41.1330   74.9750   44.3250 C.3   204  ASN204      0.1785
     43  C         42.4930   75.3700   44.9320 C.2   204  ASN204      0.2597
     44  O         42.7070   76.5040   45.3240 O.2   204  ASN204     -0.2718
     45  CB        40.7820   75.8580   43.1360 C.3   204  ASN204      0.1169
     46  CG        41.8760   75.8540   42.0730 C.2   204  ASN204      0.2627
     47  OD1       42.3580   74.7810   41.6480 O.2   204  ASN204     -0.2716
     48  ND2       42.2860   77.0530   41.6400 N.am  204  ASN204     -0.0877
     49  N         43.3810   74.4010   45.0340 N.am  205  ALA205     -0.1979
     50  CA        44.8030   74.6270   45.2440 C.3   205  ALA205      0.1597
     51  C         45.1540   75.2860   46.5600 C.2   205  ALA205      0.2287
     52  O         45.7780   76.3390   46.5730 O.2   205  ALA205     -0.2864
     53  CB        45.4210   75.3680   44.0680 C.3   205  ALA205      0.0319
     54  N         47.5880   70.6450   44.1700 N.3   235  GLU235     -0.1245
     55  CA        48.4430   70.6920   42.9710 C.3   235  GLU235      0.1567
     56  C         49.4300   69.5330   42.9780 C.2   235  GLU235      0.2260
     57  O         49.7570   69.0090   41.9060 O.2   235  GLU235     -0.2867
     58  CB        49.2550   71.9930   42.9050 C.3   235  GLU235      0.0388
     59  CG        48.4540   73.2510   42.5930 C.3   235  GLU235      0.1160
     60  CD        49.1400   74.5170   43.1230 C.2   235  GLU235      0.3649
     61  OE1       49.5890   75.3530   42.3220 O.co2 235  GLU235     -0.2457
     62  OE2       49.2570   74.6860   44.3540 O.co2 235  GLU235     -0.2457
     63  N         52.5940   70.0110   43.9550 N.3   237  LYS237     -0.1245
     64  CA        53.7190   70.6130   43.2420 C.3   237  LYS237      0.1561
     65  C         55.0150   70.5470   44.0190 C.2   237  LYS237      0.2260
     66  O         56.0560   70.9870   43.5230 O.2   237  LYS237     -0.2867
     67  CB        53.4240   72.0510   42.7830 C.3   237  LYS237      0.0271
     68  CG        53.4780   73.1670   43.8300 C.3   237  LYS237      0.0035
     69  CD        53.4380   74.5560   43.1780 C.3   237  LYS237      0.0206
     70  CE        52.8020   75.5900   44.1100 C.3   237  LYS237      0.1093
     71  NZ        52.4260   76.8880   43.4590 N.3   237  LYS237     -0.1314
     72  N         48.0590   69.0040   39.6190 N.3   258  HIS258     -0.1241
     73  CA        47.9790   70.0540   38.5640 C.3   258  HIS258      0.1621
     74  C         49.3870   70.3180   38.0590 C.2   258  HIS258      0.2264
     75  O         50.2870   70.5080   38.8780 O.2   258  HIS258     -0.2867
     76  CB        47.4540   71.3730   39.1360 C.3   258  HIS258      0.0745
     77  CG        46.1280   71.2970   39.9110 C.ar  258  HIS258      0.0817
     78  ND1       45.4440   72.4110   40.2710 N.ar  258  HIS258     -0.2268
     79  CD2       45.4050   70.2290   40.4280 C.ar  258  HIS258      0.1154
     80  CE1       44.3520   72.0760   40.9830 C.ar  258  HIS258      0.1986
     81  NE2       44.3220   70.7450   41.0800 N.ar  258  HIS258     -0.2212
     82  N         52.0130   72.7570   35.7460 N.3   260  TRP260     -0.1241
     83  CA        52.2090   74.0700   35.0670 C.3   260  TRP260      0.1605
     84  C         53.6470   74.4910   34.8180 C.2   260  TRP260      0.2264
     85  O         54.2700   75.1660   35.6600 O.2   260  TRP260     -0.2867
     86  CB        51.4930   75.1620   35.8580 C.3   260  TRP260      0.0550
     87  CG        50.0020   74.9500   35.9210 C.ar  260  TRP260      0.0003
     88  CD1       49.2400   74.5480   37.0180 C.ar  260  TRP260      0.0946
     89  CD2       49.0470   75.1210   34.8160 C.ar  260  TRP260      0.0152
     90  NE1       47.9100   74.4530   36.6830 N.ar  260  TRP260     -0.2442
     91  CE2       47.7150   74.7880   35.3680 C.ar  260  TRP260      0.0810
     92  CE3       49.1560   75.5140   33.4750 C.ar  260  TRP260      0.0012
     93  CZ2       46.5440   74.8430   34.5810 C.ar  260  TRP260      0.0191
     94  CZ3       47.9930   75.5590   32.6890 C.ar  260  TRP260      0.0001
     95  CH2       46.7120   75.2310   33.2320 C.ar  260  TRP260      0.0015
     96  N         54.3370   78.7370   34.3190 N.3   263  ASN263     -0.1225
     97  CA        54.1440   79.3480   35.6350 C.3   263  ASN263      0.1785
     98  C         55.2600   79.0470   36.6160 C.2   263  ASN263      0.2597
     99  O         55.6680   79.9160   37.3750 O.2   263  ASN263     -0.2718
    100  CB        52.8280   78.9000   36.2490 C.3   263  ASN263      0.1169
    101  CG        51.6620   78.9620   35.2700 C.2   263  ASN263      0.2627
    102  OD1       51.7670   78.5270   34.0970 O.2   263  ASN263     -0.2716
    103  ND2       50.5360   79.4950   35.7430 N.am  263  ASN263     -0.0877
    104  N         55.7730   77.8240   36.5910 N.am  264  TRP264     -0.1976
    105  CA        56.8620   77.4440   37.4990 C.3   264  TRP264      0.1640
    106  C         58.2570   77.7650   36.9710 C.2   264  TRP264      0.2290
    107  O         59.2690   77.4790   37.6430 O.2   264  TRP264     -0.2864
    108  CB        56.7240   75.9830   37.9450 C.3   264  TRP264      0.0576
    109  CG        55.3700   75.6560   38.5650 C.ar  264  TRP264      0.0006
    110  CD1       54.4640   76.5400   39.1780 C.ar  264  TRP264      0.0946
    111  CD2       54.7140   74.3230   38.6630 C.ar  264  TRP264      0.0152
    112  NE1       53.3360   75.8720   39.6080 N.ar  264  TRP264     -0.2442
    113  CE2       53.4260   74.5440   39.3370 C.ar  264  TRP264      0.0810
    114  CE3       55.0590   73.0190   38.2730 C.ar  264  TRP264      0.0012
    115  CZ2       52.5480   73.4890   39.6120 C.ar  264  TRP264      0.0191
    116  CZ3       54.1620   71.9750   38.5480 C.ar  264  TRP264      0.0001
    117  CH2       52.9400   72.2050   39.2030 C.ar  264  TRP264      0.0015
    118  N         44.3900   69.3180   36.2220 N.3   304  GLU304     -0.1245
    119  CA        44.8030   70.5420   35.5330 C.3   304  GLU304      0.1567
    120  C         46.1410   70.4080   34.8030 C.2   304  GLU304      0.2260
    121  O         47.1140   69.8620   35.3570 O.2   304  GLU304     -0.2867
    122  CB        44.9510   71.6900   36.5260 C.3   304  GLU304      0.0388
    123  CG        43.6920   72.4280   36.9120 C.3   304  GLU304      0.1160
    124  CD        44.0030   73.6310   37.7660 C.2   304  GLU304      0.3649
    125  OE1       45.1860   74.0550   37.8270 O.co2 304  GLU304     -0.2457
    126  OE2       43.0530   74.1460   38.3890 O.co2 304  GLU304     -0.2457
    127  N         43.2730   72.2580   31.0420 N.3   357  TRP357     -0.1241
    128  CA        42.8970   73.6610   31.3520 C.3   357  TRP357      0.1605
    129  C         43.1760   74.6080   30.1720 C.2   357  TRP357      0.2264
    130  O         44.3450   74.8850   29.8470 O.2   357  TRP357     -0.2867
    131  CB        43.5980   74.1100   32.6380 C.3   357  TRP357      0.0550
    132  CG        43.1810   75.4740   33.1160 C.ar  357  TRP357      0.0003
    133  CD1       43.5420   76.6990   32.5810 C.ar  357  TRP357      0.0946
    134  CD2       42.3230   75.8000   34.2730 C.ar  357  TRP357      0.0152
    135  NE1       42.9700   77.7340   33.2770 N.ar  357  TRP357     -0.2442
    136  CE2       42.2330   77.2640   34.3150 C.ar  357  TRP357      0.0810
    137  CE3       41.6250   75.0510   35.2300 C.ar  357  TRP357      0.0012
    138  CZ2       41.4670   77.9330   35.2770 C.ar  357  TRP357      0.0191
    139  CZ3       40.8580   75.7410   36.1940 C.ar  357  TRP357      0.0001
    140  CH2       40.7860   77.1500   36.2120 C.ar  357  TRP357      0.0015
    141  N         40.6120   82.8740   33.4760 N.3   380  PRO380     -0.2116
    142  CA        40.0460   83.7160   34.5350 C.3   380  PRO380      0.1372
    143  C         40.5490   85.1460   34.4740 C.2   380  PRO380      0.2244
    144  O         41.6370   85.3850   33.9360 O.2   380  PRO380     -0.2868
    145  CB        40.5070   83.0180   35.8180 C.3   380  PRO380      0.0268
    146  CG        40.5830   81.5900   35.4080 C.3   380  PRO380      0.0207
    147  CD        41.2450   81.6820   34.0630 C.3   380  PRO380      0.0892
    148  N         42.1060   87.1270   36.4200 N.3   382  HIS382     -0.1226
    149  CA        43.4000   87.5660   36.9740 C.3   382  HIS382      0.1752
    150  C         44.5050   87.3660   35.9640 C.2   382  HIS382      0.2595
    151  O         45.6460   87.6810   36.2090 O.2   382  HIS382     -0.2718
    152  CB        43.7260   86.8700   38.2930 C.3   382  HIS382      0.0759
    153  CG        43.9480   85.3850   38.1490 C.ar  382  HIS382      0.0818
    154  ND1       43.1910   84.5910   37.3010 N.ar  382  HIS382     -0.2268
    155  CD2       44.8680   84.5270   38.7770 C.ar  382  HIS382      0.1154
    156  CE1       43.6180   83.3120   37.3840 C.ar  382  HIS382      0.1986
    157  NE2       44.6520   83.2710   38.2860 N.ar  382  HIS382     -0.2212
    158  N         44.1530   86.8820   34.7850 N.am  383  GLU383     -0.1979
    159  CA        45.1410   86.4780   33.7680 C.3   383  GLU383      0.1602
    160  C         44.7960   87.0210   32.3760 C.2   383  GLU383      0.2287
    161  O         43.6050   87.2190   32.0520 O.2   383  GLU383     -0.2864
    162  CB        45.2420   84.9430   33.7220 C.3   383  GLU383      0.0415
    163  CG        46.0100   84.3500   34.9040 C.3   383  GLU383      0.1163
    164  CD        46.0000   82.8240   34.9360 C.2   383  GLU383      0.3649
    165  OE1       45.1470   82.1990   34.2290 O.co2 383  GLU383     -0.2457
    166  OE2       46.8470   82.2500   35.6790 O.co2 383  GLU383     -0.2457
    167  N         45.1680   83.2960   27.0890 N.3   387  TRP387     -0.1227
    168  CA        46.4590   82.6160   27.4040 C.3   387  TRP387      0.1737
    169  C         46.5160   81.1440   27.0800 C.2   387  TRP387      0.2595
    170  O         47.4260   80.7130   26.3650 O.2   387  TRP387     -0.2718
    171  CB        46.8170   82.7750   28.8780 C.3   387  TRP387      0.0564
    172  CG        48.2470   82.4500   29.2310 C.ar  387  TRP387      0.0003
    173  CD1       49.3170   82.1950   28.3600 C.ar  387  TRP387      0.0946
    174  CD2       48.8320   82.3810   30.5870 C.ar  387  TRP387      0.0152
    175  NE1       50.4850   81.9610   29.0620 N.ar  387  TRP387     -0.2442
    176  CE2       50.2620   82.0550   30.4050 C.ar  387  TRP387      0.0810
    177  CE3       48.3350   82.5390   31.8810 C.ar  387  TRP387      0.0012
    178  CZ2       51.1130   81.8880   31.4810 C.ar  387  TRP387      0.0191
    179  CZ3       49.2130   82.3720   32.9630 C.ar  387  TRP387      0.0001
    180  CH2       50.5640   82.0520   32.7680 C.ar  387  TRP387      0.0015
    181  N         45.5370   80.3730   27.5820 N.am  388  TYR388     -0.1976
    182  CA        45.5800   78.9120   27.5940 C.3   388  TYR388      0.1639
    183  C         44.3620   78.2830   26.9570 C.2   388  TYR388      0.2290
    184  O         44.3550   77.0810   26.7390 O.2   388  TYR388     -0.2864
    185  CB        45.6900   78.4010   29.0400 C.3   388  TYR388      0.0560
    186  CG        47.0760   78.4830   29.7090 C.ar  388  TYR388     -0.0198
    187  CD1       48.2370   78.1580   29.0190 C.ar  388  TYR388     -0.0009
    188  CD2       47.2150   78.8660   31.0480 C.ar  388  TYR388     -0.0009
    189  CE1       49.4940   78.2240   29.6250 C.ar  388  TYR388      0.0417
    190  CE2       48.4730   78.9310   31.6640 C.ar  388  TYR388      0.0417
    191  CZ        49.6160   78.5900   30.9500 C.ar  388  TYR388      0.1957
    192  OH        50.8820   78.5940   31.5470 O.3   388  TYR388     -0.2866
@<TRIPOS>BOND
     1   170   169    2
     2   184   183    2
     3   183   182    1
     4   169   168    1
     5   169   181   am
     6   167   168    1
     7   168   171    1
     8   181   182    1
     9   182   185    1
    10   173   175   ar
    11   173   172   ar
    12   171   172    1
    13   187   189   ar
    14   187   186   ar
    15   185   186    1
    16   175   176   ar
    17   172   174   ar
    18   189   191   ar
    19   186   188   ar
    20   130   129    2
    21   129   128    1
    22   176   174   ar
    23   176   178   ar
    24   174   177   ar
    25   191   192    1
    26   191   190   ar
    27   127   128    1
    28   188   190   ar
    29   128   131    1
    30   178   180   ar
    31   177   179   ar
    32   161   160    2
    33   160   159    1
    34   133   132   ar
    35   133   135   ar
    36   131   132    1
    37    94    95   ar
    38    94    92   ar
    39   180   179   ar
    40   132   134   ar
    41    95    93   ar
    42   135   136   ar
    43    92    89   ar
    44   141   147    1
    45   141   142    1
    46   162   159    1
    47   162   163    1
    48   159   158    1
    49   144   143    2
    50   147   146    1
    51   102   101    2
    52   165   164   ar
    53   134   136   ar
    54   134   137   ar
    55   136   138   ar
    56    96    97    1
    57   143   142    1
    58   142   145    1
    59    93    91   ar
    60   158   150   am
    61   120   121    2
    62   120   119    1
    63    89    91   ar
    64    89    87   ar
    65    84    83    1
    66    84    85    2
    67   163   164    1
    68   164   166   ar
    69    83    82    1
    70    83    86    1
    71   137   139   ar
    72   101   103   am
    73   101   100    1
    74   138   140   ar
    75    91    90   ar
    76   146   145    1
    77   119   118    1
    78   119   122    1
    79    97   100    1
    80    97    98    1
    81    86    87    1
    82    87    88   ar
    83   150   151    2
    84   150   149    1
    85   139   140   ar
    86   148   149    1
    87   122   123    1
    88   104    98   am
    89   104   105    1
    90    98    99    2
    91    90    88   ar
    92   123   124    1
    93   106   105    1
    94   106   107    2
    95   149   152    1
    96   154   156   ar
    97   154   153   ar
    98   156   157   ar
    99   105   108    1
   100   124   125   ar
   101   124   126   ar
   102   108   109    1
   103    74    73    1
   104    74    75    2
   105   153   152    1
   106   153   155   ar
   107   114   116   ar
   108   114   111   ar
   109   157   155   ar
   110   116   117   ar
   111    73    76    1
   112    73    72    1
   113   109   111   ar
   114   109   110   ar
   115    27    28   ar
   116    27    25   ar
   117   111   113   ar
   118    28    26   ar
   119    25    22   ar
   120    76    77    1
   121    22    24   ar
   122    22    20   ar
   123    26    24   ar
   124   110   112   ar
   125   117   115   ar
   126   113   112   ar
   127   113   115   ar
   128    24    23   ar
   129    19    20    1
   130    19    16    1
   131    20    21   ar
   132    23    21   ar
   133    77    78   ar
   134    77    79   ar
   135    18    17    2
   136    78    80   ar
   137    79    81   ar
   138    40    39    1
   139    16    17    1
   140    16    15    1
   141    38    39   ar
   142    38    36   ar
   143    80    81   ar
   144    39    37   ar
   145    48    46   am
   146    36    34   ar
   147    47    46    2
   148    57    56    2
   149    46    45    1
   150    61    60   ar
   151    59    58    1
   152    59    60    1
   153    37    35   ar
   154     7     9   ar
   155     7     6   ar
   156    67    64    1
   157    67    68    1
   158    58    55    1
   159     9    10   ar
   160    55    56    1
   161    55    54    1
   162    34    35   ar
   163    34    33    1
   164     5     6    1
   165     5     2    1
   166    60    62   ar
   167     6     8   ar
   168    45    42    1
   169    69    68    1
   170    69    70    1
   171    64    63    1
   172    64    65    1
   173    71    70    1
   174    66    65    2
   175    10     8   ar
   176    10    12   ar
   177     8    11   ar
   178    33    30    1
   179    12    14   ar
   180    53    50    1
   181     3     2    1
   182     3     4    2
   183    11    13   ar
   184    42    43    1
   185    42    41    1
   186     2     1    1
   187    29    30    1
   188    14    13   ar
   189    30    31    1
   190    43    49   am
   191    43    44    2
   192    49    50    1
   193    50    51    1
   194    31    32    2
   195    51    52    2
