@<TRIPOS>MOLECULE
tmp/4nruC00.pdb
 159 153 0 0 0
SMALL
GASTEIGER

@<TRIPOS>ATOM
      1  N         79.8810   64.7460    3.9190 N.3    27  PHE27      -0.1241
      2  CA        79.0230   65.5590    4.7760 C.3    27  PHE27       0.1605
      3  C         79.4420   67.0200    4.7360 C.2    27  PHE27       0.2264
      4  O         80.6180   67.3300    4.8960 O.2    27  PHE27      -0.2867
      5  CB        78.9990   65.0540    6.2290 C.3    27  PHE27       0.0534
      6  CG        78.2990   63.7220    6.4120 C.ar   27  PHE27      -0.0203
      7  CD1       76.9330   63.6570    6.5710 C.ar   27  PHE27      -0.0042
      8  CD2       79.0240   62.5400    6.4460 C.ar   27  PHE27      -0.0042
      9  CE1       76.2870   62.4360    6.7430 C.ar   27  PHE27      -0.0003
     10  CE2       78.3920   61.3170    6.6090 C.ar   27  PHE27      -0.0003
     11  CZ        77.0210   61.2570    6.7550 C.ar   27  PHE27      -0.0000
     12  N         78.9180   60.5320   10.5180 N.3   167  LEU167     -0.1245
     13  CA        78.9420   61.4110   11.6750 C.3   167  LEU167      0.1561
     14  C         79.2410   60.5940   12.9170 C.2   167  LEU167      0.2260
     15  O         78.6440   59.5430   13.1190 O.2   167  LEU167     -0.2867
     16  CB        77.6070   62.1310   11.8200 C.3   167  LEU167      0.0270
     17  CG        77.4410   63.4930   11.1390 C.3   167  LEU167      0.0019
     18  CD1       78.4460   63.8020   10.0560 C.3   167  LEU167      0.0001
     19  CD2       76.0280   63.6530   10.5930 C.3   167  LEU167      0.0001
     20  N         62.0580   45.3700    6.6310 N.3   217  MET217     -0.1230
     21  CA        60.9520   46.0700    7.2280 C.3   217  MET217      0.1702
     22  C         61.0350   47.5470    6.8790 C.2   217  MET217      0.2593
     23  O         62.1200   48.0860    6.6320 O.2   217  MET217     -0.2718
     24  CB        60.9630   45.9310    8.7380 C.3   217  MET217      0.0401
     25  CG        61.9920   46.7790    9.4670 C.3   217  MET217      0.0596
     26  SD        61.7940   46.5940   11.2550 S.3   217  MET217     -0.1393
     27  CE        60.3810   47.6330   11.5830 C.3   217  MET217      0.0692
     28  N         59.8690   48.1780    6.8760 N.am  218  SER218     -0.1938
     29  CA        59.7430   49.6210    6.8290 C.3   218  SER218      0.2055
     30  C         59.3220   50.0570    8.2170 C.2   218  SER218      0.2642
     31  O         58.3090   49.5790    8.7280 O.2   218  SER218     -0.2714
     32  CB        58.6800   50.0200    5.7950 C.3   218  SER218      0.2130
     33  OG        58.0350   51.2260    6.1720 O.3   218  SER218     -0.2179
     34  N         60.0680   50.9740    8.8280 N.am  219  MET219     -0.1976
     35  CA        59.7580   51.4020   10.2020 C.3   219  MET219      0.1605
     36  C         58.3930   52.0560   10.3030 C.2   219  MET219      0.2287
     37  O         57.6850   51.8690   11.2950 O.2   219  MET219     -0.2864
     38  CB        60.8390   52.3320   10.7320 C.3   219  MET219      0.0413
     39  CG        60.6600   52.7830   12.1630 C.3   219  MET219      0.0598
     40  SD        60.6110   51.4600   13.3960 S.3   219  MET219     -0.1393
     41  CE        62.2850   50.8410   13.2600 C.3   219  MET219      0.0692
     42  N         68.2570   42.4800   13.6540 N.3   339  TYR339     -0.1241
     43  CA        68.7220   43.0990   12.4250 C.3   339  TYR339      0.1605
     44  C         70.2160   43.2330   12.6150 C.2   339  TYR339      0.2264
     45  O         70.7080   44.2020   13.2060 O.2   339  TYR339     -0.2867
     46  CB        68.0300   44.4390   12.2040 C.3   339  TYR339      0.0534
     47  CG        68.1220   45.0090   10.8020 C.ar  339  TYR339     -0.0201
     48  CD1       69.3460   45.2650   10.2030 C.ar  339  TYR339     -0.0009
     49  CD2       66.9650   45.3600   10.0960 C.ar  339  TYR339     -0.0009
     50  CE1       69.4270   45.7960    8.9200 C.ar  339  TYR339      0.0417
     51  CE2       67.0380   45.9000    8.8220 C.ar  339  TYR339      0.0417
     52  CZ        68.2710   46.1160    8.2430 C.ar  339  TYR339      0.1957
     53  OH        68.3550   46.6370    6.9780 O.3   339  TYR339     -0.2866
     54  N         66.7380   49.8430   15.2650 N.3   389  LEU389     -0.1231
     55  CA        67.0580   50.6270   14.0520 C.3   389  LEU389      0.1693
     56  C         67.0690   52.1130   14.3750 C.2   389  LEU389      0.2592
     57  O         66.4250   52.9200   13.6970 O.2   389  LEU389     -0.2718
     58  CB        66.0720   50.3340   12.9280 C.3   389  LEU389      0.0284
     59  CG        66.2920   49.0800   12.0920 C.3   389  LEU389      0.0019
     60  CD1       67.0850   48.0030   12.8180 C.3   389  LEU389      0.0001
     61  CD2       64.9470   48.5300   11.6310 C.3   389  LEU389      0.0001
     62  N         67.7960   52.4310   15.4390 N.am  390  ARG390     -0.1966
     63  CA        67.9460   53.7760   16.0000 C.3   390  ARG390      0.1729
     64  C         66.6440   54.5670   16.2120 C.2   390  ARG390      0.2616
     65  O         66.6480   55.7830   16.0740 O.2   390  ARG390     -0.2715
     66  CB        69.0030   54.5920   15.2100 C.3   390  ARG390      0.0348
     67  CG        68.8430   54.5810   13.6980 C.3   390  ARG390      0.0492
     68  CD        69.4970   55.7660   12.9900 C.3   390  ARG390      0.2205
     69  NE        68.7430   56.1170   11.7760 N.pl3 390  ARG390     -0.0865
     70  CZ        68.7440   57.3090   11.1810 C.cat 390  ARG390      0.5346
     71  NH1       69.4710   58.3210   11.6650 N.pl3 390  ARG390      0.1354
     72  NH2       68.0110   57.4900   10.0840 N.pl3 390  ARG390      0.1354
     73  N         65.5470   53.8830   16.5570 N.am  391  ARG391     -0.1977
     74  CA        64.3140   54.5560   17.0310 C.3   391  ARG391      0.1597
     75  C         63.9340   54.0480   18.4060 C.2   391  ARG391      0.2287
     76  O         64.0740   52.8640   18.6720 O.2   391  ARG391     -0.2864
     77  CB        63.0820   54.3140   16.1420 C.3   391  ARG391      0.0334
     78  CG        63.3250   54.0140   14.7040 C.3   391  ARG391      0.0492
     79  CD        63.5150   55.2530   13.8850 C.3   391  ARG391      0.2205
     80  NE        64.3530   54.9210   12.7490 N.pl3 391  ARG391     -0.0865
     81  CZ        64.3740   55.5760   11.6030 C.cat 391  ARG391      0.5346
     82  NH1       63.5890   56.6270   11.4010 N.pl3 391  ARG391      0.1354
     83  NH2       65.1910   55.1660   10.6480 N.pl3 391  ARG391      0.1354
     84  N         69.2000   63.0430   16.8550 N.3   408  SER408     -0.1217
     85  CA        69.3490   62.5990   15.4630 C.3   408  SER408      0.1889
     86  C         68.6310   63.5120   14.4910 C.2   408  SER408      0.2288
     87  O         69.1120   63.7320   13.3870 O.2   408  SER408     -0.2866
     88  CB        68.8450   61.1600   15.2820 C.3   408  SER408      0.2089
     89  OG        69.5990   60.2850   16.0960 O.3   408  SER408     -0.2183
     90  N         70.5360   66.7280   14.2390 N.3   411  ARG411     -0.1231
     91  CA        71.8220   66.4690   13.5740 C.3   411  ARG411      0.1694
     92  C         71.7290   66.5460   12.0660 C.2   411  ARG411      0.2591
     93  O         72.6210   67.0850   11.4190 O.2   411  ARG411     -0.2718
     94  CB        72.3230   65.0970   13.9480 C.3   411  ARG411      0.0321
     95  CG        73.7030   64.7820   13.4400 C.3   411  ARG411      0.0489
     96  CD        74.1870   63.4940   14.0440 C.3   411  ARG411      0.2205
     97  NE        74.1150   63.5740   15.4880 N.pl3 411  ARG411     -0.0865
     98  CZ        73.5680   62.6540   16.2770 C.cat 411  ARG411      0.5346
     99  NH1       73.0550   61.5280   15.7760 N.pl3 411  ARG411      0.1354
    100  NH2       73.5490   62.8650   17.5890 N.pl3 411  ARG411      0.1354
    101  N         70.6470   66.0070   11.5120 N.am  412  GLN412     -0.1979
    102  CA        70.4110   66.0780   10.0730 C.3   412  GLN412      0.1601
    103  C         70.0510   67.4650    9.5890 C.2   412  GLN412      0.2287
    104  O         70.0370   67.7020    8.3870 O.2   412  GLN412     -0.2864
    105  CB        69.2940   65.1340    9.6610 C.3   412  GLN412      0.0394
    106  CG        69.5970   63.6740    9.9160 C.3   412  GLN412      0.0908
    107  CD        68.5130   62.7630    9.3690 C.2   412  GLN412      0.2608
    108  OE1       68.0120   62.9800    8.2710 O.2   412  GLN412     -0.2717
    109  NE2       68.1540   61.7350   10.1310 N.am  412  GLN412     -0.0878
    110  N         73.7290   68.9650    9.0790 N.3   415  TRP415     -0.1227
    111  CA        74.5630   68.4170    7.9900 C.3   415  TRP415      0.1737
    112  C         73.7670   67.9360    6.7850 C.2   415  TRP415      0.2596
    113  O         72.6370   67.4870    6.9340 O.2   415  TRP415     -0.2718
    114  CB        75.3820   67.2460    8.4850 C.3   415  TRP415      0.0564
    115  CG        76.2230   67.5170    9.6450 C.ar  415  TRP415      0.0003
    116  CD1       75.8850   67.3610   10.9490 C.ar  415  TRP415      0.0946
    117  CD2       77.5730   67.9560    9.6280 C.ar  415  TRP415      0.0152
    118  NE1       76.9380   67.6820   11.7540 N.ar  415  TRP415     -0.2442
    119  CE2       77.9930   68.0530   10.9690 C.ar  415  TRP415      0.0810
    120  CE3       78.4640   68.3000    8.6130 C.ar  415  TRP415      0.0012
    121  CZ2       79.2630   68.4640   11.3210 C.ar  415  TRP415      0.0191
    122  CZ3       79.7340   68.6990    8.9590 C.ar  415  TRP415      0.0001
    123  CH2       80.1250   68.7880   10.2980 C.ar  415  TRP415      0.0015
    124  N         74.3740   68.0240    5.6010 N.am  416  THR416     -0.1939
    125  CA        73.7600   67.5010    4.3880 C.3   416  THR416      0.2028
    126  C         74.7910   66.7280    3.5640 C.2   416  THR416      0.2642
    127  O         75.9920   67.0110    3.6100 O.2   416  THR416     -0.2714
    128  CB        73.0800   68.6140    3.5560 C.3   416  THR416      0.1808
    129  OG1       72.1980   68.0190    2.5990 O.3   416  THR416     -0.2208
    130  CG2       74.0880   69.4660    2.8030 C.3   416  THR416      0.0379
    131  N         74.3270   65.7380    2.8190 N.am  417  LYS417     -0.1977
    132  CA        75.2240   64.9660    1.9650 C.3   417  LYS417      0.1596
    133  C         75.4650   65.6460    0.6280 C.2   417  LYS417      0.2287
    134  O         74.6000   66.3060    0.0780 O.2   417  LYS417     -0.2864
    135  CB        74.6990   63.5540    1.7310 C.3   417  LYS417      0.0298
    136  CG        74.6890   62.7000    2.9910 C.3   417  LYS417      0.0038
    137  CD        74.1190   61.3230    2.6970 C.3   417  LYS417      0.0206
    138  CE        74.1080   60.4470    3.9440 C.3   417  LYS417      0.1093
    139  NZ        73.3290   59.1910    3.7420 N.3   417  LYS417     -0.1314
    140  N         66.9190   67.4480   -0.9630 N.3   434  ARG434     -0.1245
    141  CA        66.4660   67.4970    0.4360 C.3   434  ARG434      0.1563
    142  C         64.9540   67.8050    0.5920 C.2   434  ARG434      0.2260
    143  O         64.3870   67.7130    1.6760 O.2   434  ARG434     -0.2867
    144  CB        67.3770   68.3330    1.3310 C.3   434  ARG434      0.0307
    145  CG        67.7030   67.7190    2.6520 C.3   434  ARG434      0.0489
    146  CD        69.0780   68.1280    3.0730 C.3   434  ARG434      0.2205
    147  NE        69.1190   69.0090    4.2240 N.pl3 434  ARG434     -0.0865
    148  CZ        69.6020   68.6560    5.4000 C.cat 434  ARG434      0.5346
    149  NH1       70.0580   67.4440    5.6020 N.pl3 434  ARG434      0.1354
    150  NH2       69.6230   69.5130    6.3780 N.pl3 434  ARG434      0.1354
    151  N         63.5520   64.7790    1.9690 N.3   437  GLN437     -0.1245
    152  CA        64.2510   64.5400    3.1820 C.3   437  GLN437      0.1566
    153  C         63.8000   65.5060    4.2190 C.2   437  GLN437      0.2260
    154  O         63.7260   65.1640    5.3490 O.2   437  GLN437     -0.2867
    155  CB        65.7440   64.6380    2.9440 C.3   437  GLN437      0.0367
    156  CG        66.3930   63.3010    2.6850 C.3   437  GLN437      0.0905
    157  CD        66.5250   62.5070    3.9560 C.2   437  GLN437      0.2608
    158  OE1       66.4350   61.2850    3.9660 O.2   437  GLN437     -0.2717
    159  NE2       66.7220   63.2140    5.0550 N.am  437  GLN437     -0.0878
@<TRIPOS>BOND
     1   140   141    1
     2   134   133    2
     3   141   142    1
     4   141   144    1
     5   142   143    2
     6   133   132    1
     7   144   145    1
     8   135   132    1
     9   135   136    1
    10   132   131    1
    11   151   152    1
    12   129   128    1
    13   145   146    1
    14   156   155    1
    15   156   157    1
    16   137   136    1
    17   137   138    1
    18   130   128    1
    19   131   126   am
    20   155   152    1
    21   146   147    1
    22   152   153    1
    23   128   125    1
    24   126   127    2
    25   126   125    1
    26   139   138    1
    27     1     2    1
    28   157   158    2
    29   157   159   am
    30   153   154    2
    31   147   148    2
    32   125   124    1
    33     3     2    1
    34     3     4    2
    35     2     5    1
    36   148   149    1
    37   148   150    1
    38   124   112   am
    39    32    33    1
    40    32    29    1
    41     5     6    1
    42     6     8   ar
    43     6     7   ar
    44     8    10   ar
    45     7     9   ar
    46    10    11   ar
    47    20    21    1
    48    23    22    2
    49     9    11   ar
    50   112   113    2
    51   112   111    1
    52    29    28    1
    53    29    30    1
    54    28    22   am
    55    22    21    1
    56    53    52    1
    57    21    24    1
    58   111   114    1
    59   111   110    1
    60    30    31    2
    61    30    34   am
    62    52    51   ar
    63    52    50   ar
    64   108   107    2
    65   104   103    2
    66   114   115    1
    67   120   122   ar
    68   120   117   ar
    69    24    25    1
    70    51    49   ar
    71    34    35    1
    72    50    48   ar
    73   122   123   ar
    74   107   106    1
    75   107   109   am
    76    25    26    1
    77   103   102    1
    78   117   115   ar
    79   117   119   ar
    80   115   116   ar
    81   105   106    1
    82   105   102    1
    83    18    17    1
    84   102   101    1
    85    72    70    1
    86    49    47   ar
    87    35    36    1
    88    35    38    1
    89    48    47   ar
    90   123   121   ar
    91    36    37    2
    92    12    13    1
    93    19    17    1
    94    83    81    1
    95    38    39    1
    96    47    46    1
    97   116   118   ar
    98   119   121   ar
    99   119   118   ar
   100    17    16    1
   101    70    71    1
   102    70    69    2
   103    26    27    1
   104    82    81    1
   105    93    92    2
   106   101    92   am
   107    81    80    2
   108    61    59    1
   109    13    16    1
   110    13    14    1
   111    69    68    1
   112    92    91    1
   113    59    60    1
   114    59    58    1
   115    39    40    1
   116    46    43    1
   117    43    44    1
   118    43    42    1
   119    44    45    2
   120    80    79    1
   121    14    15    2
   122    58    55    1
   123    68    67    1
   124    41    40    1
   125    87    86    2
   126    95    94    1
   127    95    96    1
   128    91    94    1
   129    91    90    1
   130    57    56    2
   131    67    66    1
   132    79    78    1
   133    96    97    1
   134    55    56    1
   135    55    54    1
   136    56    62   am
   137    86    85    1
   138    78    77    1
   139    66    63    1
   140    88    85    1
   141    88    89    1
   142    62    63    1
   143    85    84    1
   144    97    98    2
   145    99    98    1
   146    63    64    1
   147    65    64    2
   148    77    74    1
   149    64    73   am
   150    98   100    1
   151    73    74    1
   152    74    75    1
   153    75    76    2
