@<TRIPOS>MOLECULE
tmp/4nruE01.pdb
 114 110 0 0 0
SMALL
GASTEIGER

@<TRIPOS>ATOM
      1  N         25.6550  -60.8320   62.8800 N.3    73  LEU73      -0.1231
      2  CA        25.9620  -59.9310   63.9760 C.3    73  LEU73       0.1693
      3  C         27.1850  -59.0750   63.6990 C.2    73  LEU73       0.2591
      4  O         28.1500  -59.5610   63.1300 O.2    73  LEU73      -0.2718
      5  CB        26.1830  -60.7520   65.2440 C.3    73  LEU73       0.0284
      6  CG        24.9530  -61.5340   65.7140 C.3    73  LEU73       0.0019
      7  CD1       25.3520  -62.4980   66.8220 C.3    73  LEU73       0.0001
      8  CD2       23.8520  -60.5720   66.1740 C.3    73  LEU73       0.0001
      9  N         27.1600  -57.8080   64.1150 N.am   74  LEU74      -0.1980
     10  CA        28.3910  -57.0480   64.1630 C.3    74  LEU74       0.1596
     11  C         29.3900  -57.8380   65.0390 C.2    74  LEU74       0.2287
     12  O         28.9900  -58.4670   66.0110 O.2    74  LEU74      -0.2864
     13  CB        28.1900  -55.6650   64.7950 C.3    74  LEU74       0.0297
     14  CG        27.9710  -54.3880   63.9770 C.3    74  LEU74       0.0022
     15  CD1       28.0910  -53.1710   64.8970 C.3    74  LEU74       0.0001
     16  CD2       28.9420  -54.2490   62.8120 C.3    74  LEU74       0.0001
     17  N         32.2050  -58.2210   68.0430 N.3    76  PRO76      -0.2102
     18  CA        32.0910  -57.5540   69.3240 C.3    76  PRO76       0.1504
     19  C         32.7170  -56.1710   69.3060 C.2    76  PRO76       0.2576
     20  O         33.7790  -55.9880   68.7170 O.2    76  PRO76      -0.2718
     21  CB        32.8480  -58.4960   70.2820 C.3    76  PRO76       0.0282
     22  CG        32.7340  -59.8370   69.6440 C.3    76  PRO76       0.0208
     23  CD        32.8210  -59.5580   68.1680 C.3    76  PRO76       0.0893
     24  N         32.0740  -55.2280   69.9900 N.am   77  GLN77      -0.1966
     25  CA        32.4160  -53.8170   69.9110 C.3    77  GLN77       0.1733
     26  C         33.8940  -53.5880   70.1990 C.2    77  GLN77       0.2616
     27  O         34.5860  -52.9100   69.4470 O.2    77  GLN77      -0.2715
     28  CB        31.5340  -52.9960   70.8660 C.3    77  GLN77       0.0408
     29  CG        31.6220  -51.4750   70.7040 C.3    77  GLN77       0.0908
     30  CD        31.0580  -50.9410   69.3780 C.2    77  GLN77       0.2608
     31  OE1       30.1250  -51.5080   68.7840 O.2    77  GLN77      -0.2717
     32  NE2       31.6270  -49.8280   68.9110 N.am   77  GLN77      -0.0878
     33  N         34.3740  -54.1660   71.2870 N.am   78  GLU78      -0.1963
     34  CA        35.7220  -53.8930   71.7480 C.3    78  GLU78       0.1733
     35  C         36.7170  -54.3580   70.6710 C.2    78  GLU78       0.2616
     36  O         37.7230  -53.6980   70.4230 O.2    78  GLU78      -0.2715
     37  CB        35.9520  -54.5860   73.0970 C.3    78  GLU78       0.0429
     38  CG        37.0970  -54.0340   73.9340 C.3    78  GLU78       0.1163
     39  CD        37.2720  -54.7730   75.2640 C.2    78  GLU78       0.3649
     40  OE1       37.2490  -56.0300   75.2760 O.co2  78  GLU78      -0.2457
     41  OE2       37.4460  -54.0970   76.3050 O.co2  78  GLU78      -0.2457
     42  N         36.4040  -55.4690   70.0110 N.am   79  ILE79      -0.1977
     43  CA        37.2750  -56.0350   68.9790 C.3    79  ILE79       0.1596
     44  C         37.2250  -55.1890   67.7030 C.2    79  ILE79       0.2287
     45  O         38.2650  -54.6980   67.2160 O.2    79  ILE79      -0.2864
     46  CB        36.9080  -57.5080   68.6750 C.3    79  ILE79       0.0276
     47  CG1       37.2470  -58.4040   69.8900 C.3    79  ILE79       0.0022
     48  CG2       37.6330  -57.9960   67.4310 C.3    79  ILE79       0.0022
     49  CD1       36.7010  -59.8160   69.8070 C.3    79  ILE79       0.0001
     50  N         39.1390  -51.9940   68.0360 N.3    82  ALA82      -0.1245
     51  CA        40.5810  -52.1230   68.0510 C.3    82  ALA82       0.1562
     52  C         41.0560  -52.4710   66.6530 C.2    82  ALA82       0.2260
     53  O         42.0940  -51.9950   66.2000 O.2    82  ALA82      -0.2867
     54  CB        41.0020  -53.1960   69.0250 C.3    82  ALA82       0.0290
     55  N         41.2370  -61.9220   65.3720 N.3   319  VAL319     -0.1231
     56  CA        41.4440  -61.4630   66.7300 C.3   319  VAL319      0.1692
     57  C         40.5060  -62.1930   67.6990 C.2   319  VAL319      0.2591
     58  O         40.8790  -62.5590   68.8190 O.2   319  VAL319     -0.2718
     59  CB        41.1820  -59.9590   66.8480 C.3   319  VAL319      0.0266
     60  CG1       41.2280  -59.5350   68.3100 C.3   319  VAL319      0.0020
     61  CG2       42.1890  -59.1640   66.0310 C.3   319  VAL319      0.0020
     62  N         39.2670  -62.3630   67.2730 N.am  320  GLU320     -0.1979
     63  CA        38.2700  -62.9970   68.0950 C.3   320  GLU320      0.1602
     64  C         38.7650  -64.4020   68.4700 C.2   320  GLU320      0.2287
     65  O         38.7290  -64.7870   69.6250 O.2   320  GLU320     -0.2864
     66  CB        36.9350  -63.0550   67.3340 C.3   320  GLU320      0.0415
     67  CG        35.8230  -63.7380   68.0970 C.3   320  GLU320      0.1163
     68  CD        34.4790  -63.5730   67.4360 C.2   320  GLU320      0.3649
     69  OE1       34.1120  -62.4190   67.0810 O.co2 320  GLU320     -0.2457
     70  OE2       33.7680  -64.5980   67.2980 O.co2 320  GLU320     -0.2457
     71  N         42.6760  -63.9650   70.0280 N.3   323  ARG323     -0.1231
     72  CA        42.7040  -63.0260   71.1410 C.3   323  ARG323      0.1694
     73  C         44.0710  -62.3940   71.3310 C.2   323  ARG323      0.2592
     74  O         44.5250  -62.2100   72.4590 O.2   323  ARG323     -0.2718
     75  CB        42.2540  -63.7150   72.4310 C.3   323  ARG323      0.0321
     76  CG        40.8770  -64.3450   72.3420 C.3   323  ARG323      0.0489
     77  CD        39.7660  -63.2930   72.3050 C.3   323  ARG323      0.2205
     78  NE        38.4710  -63.9180   72.0310 N.pl3 323  ARG323     -0.0865
     79  CZ        37.2770  -63.3510   72.2230 C.cat 323  ARG323      0.5346
     80  NH1       37.1590  -62.1150   72.7020 N.pl3 323  ARG323      0.1354
     81  NH2       36.1770  -64.0310   71.9240 N.pl3 323  ARG323      0.1354
     82  N         44.7100  -62.0470   70.2180 N.am  324  VAL324     -0.1966
     83  CA        45.9070  -61.1940   70.2200 C.3   324  VAL324      0.1727
     84  C         45.5690  -59.7970   69.6330 C.2   324  VAL324      0.2616
     85  O         44.6150  -59.6700   68.8530 O.2   324  VAL324     -0.2715
     86  CB        47.0150  -61.8510   69.3730 C.3   324  VAL324      0.0290
     87  CG1       48.3040  -61.1090   69.5640 C.3   324  VAL324      0.0023
     88  CG2       47.2180  -63.3050   69.7760 C.3   324  VAL324      0.0023
     89  N         46.3300  -58.7600   70.0140 N.am  325  ASP325     -0.1958
     90  CA        46.2290  -57.4300   69.3730 C.3   325  ASP325      0.1825
     91  C         46.2130  -57.5470   67.8540 C.2   325  ASP325      0.2464
     92  O         46.9870  -58.3130   67.2920 O.2   325  ASP325     -0.2730
     93  CB        47.3740  -56.4930   69.7850 C.3   325  ASP325      0.1450
     94  CG        46.9160  -55.3640   70.7080 C.2   325  ASP325      0.3671
     95  OD1       46.6390  -55.6170   71.9020 O.co2 325  ASP325     -0.2456
     96  OD2       46.8450  -54.2090   70.2380 O.co2 325  ASP325     -0.2456
     97  N         45.3210  -56.7970   67.1910 N.am  326  PRO326     -0.2727
     98  CA        45.2790  -56.7650   65.7260 C.3   326  PRO326      0.1402
     99  C         46.6490  -56.4630   65.1080 C.2   326  PRO326      0.2269
    100  O         47.0510  -57.1020   64.1280 O.2   326  PRO326     -0.2865
    101  CB        44.3010  -55.6280   65.4210 C.3   326  PRO326      0.0296
    102  CG        43.4750  -55.4680   66.6350 C.3   326  PRO326      0.0237
    103  CD        44.2990  -55.9220   67.8000 C.3   326  PRO326      0.0939
    104  N         28.9450  -66.1150   61.9280 N.3   361  ARG361     -0.1245
    105  CA        28.1720  -65.3110   62.8510 C.3   361  ARG361      0.1563
    106  C         28.0760  -63.8730   62.3450 C.2   361  ARG361      0.2260
    107  O         27.0420  -63.2070   62.5130 O.2   361  ARG361     -0.2867
    108  CB        28.7970  -65.3510   64.2500 C.3   361  ARG361      0.0307
    109  CG        27.9450  -64.6750   65.3050 C.3   361  ARG361      0.0489
    110  CD        28.4300  -65.0130   66.6870 C.3   361  ARG361      0.2205
    111  NE        29.8160  -64.6210   66.8590 N.pl3 361  ARG361     -0.0865
    112  CZ        30.2150  -63.3650   66.9910 C.cat 361  ARG361      0.5346
    113  NH1       29.3330  -62.3750   66.9550 N.pl3 361  ARG361      0.1354
    114  NH2       31.4960  -63.1070   67.1560 N.pl3 361  ARG361      0.1354
@<TRIPOS>BOND
     1   104   105    1
     2   106   107    2
     3   106   105    1
     4    16    14    1
     5   105   108    1
     6     1     2    1
     7     4     3    2
     8     3     2    1
     9     3     9   am
    10     2     5    1
    11    14    13    1
    12    14    15    1
    13     9    10    1
    14   100    99    2
    15    10    13    1
    16    10    11    1
    17   108   109    1
    18    11    12    2
    19    99    98    1
    20     5     6    1
    21   109   110    1
    22    55    56    1
    23   101    98    1
    24   101   102    1
    25     6     8    1
    26     6     7    1
    27    98    97    1
    28    61    59    1
    29    53    52    2
    30   102   103    1
    31    52    51    1
    32   110   111    1
    33    56    59    1
    34    56    57    1
    35    59    60    1
    36   111   112    2
    37   113   112    1
    38   112   114    1
    39    69    68   ar
    40    97   103    1
    41    97    91   am
    42    45    44    2
    43    62    57   am
    44    62    63    1
    45    92    91    2
    46    70    68   ar
    47    66    63    1
    48    66    67    1
    49    48    46    1
    50    68    67    1
    51    57    58    2
    52    44    43    1
    53    91    90    1
    54    50    51    1
    55    17    23    1
    56    17    18    1
    57    51    54    1
    58    63    64    1
    59    23    22    1
    60    64    65    2
    61    46    43    1
    62    46    47    1
    63    20    19    2
    64    31    30    2
    65    85    84    2
    66    32    30   am
    67    43    42    1
    68    19    18    1
    69    19    24   am
    70    18    21    1
    71    90    93    1
    72    90    89    1
    73    86    87    1
    74    86    88    1
    75    86    83    1
    76    30    29    1
    77    27    26    2
    78    84    89   am
    79    84    83    1
    80    22    21    1
    81    93    94    1
    82    49    47    1
    83    25    24    1
    84    25    26    1
    85    25    28    1
    86    42    35   am
    87    71    72    1
    88    26    33   am
    89    82    83    1
    90    82    73   am
    91    96    94   ar
    92    36    35    2
    93    35    34    1
    94    29    28    1
    95    94    95   ar
    96    72    73    1
    97    72    75    1
    98    33    34    1
    99    73    74    2
   100    34    37    1
   101    81    79    1
   102    78    79    2
   103    78    77    1
   104    79    80    1
   105    77    76    1
   106    76    75    1
   107    37    38    1
   108    38    39    1
   109    39    40   ar
   110    39    41   ar
