@<TRIPOS>MOLECULE
tmp/4ns0A00.pdb
 98 94 0 0 0
SMALL
GASTEIGER

@<TRIPOS>ATOM
      1  N         11.5460   12.1640   40.4370 N.3    40  TYR40      -0.1241
      2  CA        12.3760   11.5390   39.4070 C.3    40  TYR40       0.1605
      3  C         11.5110   10.9580   38.2980 C.2    40  TYR40       0.2264
      4  O         10.3270   10.6700   38.4870 O.2    40  TYR40      -0.2867
      5  CB        13.2630   10.4540   40.0100 C.3    40  TYR40       0.0534
      6  CG        12.5010    9.2470   40.4970 C.ar   40  TYR40      -0.0201
      7  CD1       11.7820    9.2910   41.6740 C.ar   40  TYR40      -0.0009
      8  CD2       12.4980    8.0580   39.7660 C.ar   40  TYR40      -0.0009
      9  CE1       11.0800    8.1840   42.1250 C.ar   40  TYR40       0.0417
     10  CE2       11.7930    6.9470   40.2040 C.ar   40  TYR40       0.0417
     11  CZ        11.0790    7.0150   41.3790 C.ar   40  TYR40       0.1957
     12  OH        10.3860    5.8980   41.8240 O.3    40  TYR40      -0.2866
     13  N         10.9110    7.9890   35.2470 N.3    42  LYS42      -0.1245
     14  CA        11.1950    6.6560   34.7620 C.3    42  LYS42       0.1561
     15  C         10.6890    6.5140   33.3420 C.2    42  LYS42       0.2260
     16  O          9.6050    7.0070   32.9950 O.2    42  LYS42      -0.2867
     17  CB        10.5300    5.6060   35.6400 C.3    42  LYS42       0.0271
     18  CG        11.1280    5.4850   37.0230 C.3    42  LYS42       0.0035
     19  CD        10.2620    4.6150   37.9180 C.3    42  LYS42       0.0206
     20  CE         9.0650    5.3980   38.4370 C.3    42  LYS42       0.1093
     21  NZ         8.1330    4.5520   39.2130 N.3    42  LYS42      -0.1314
     22  N          9.9190    3.6540   30.2630 N.3    44  HIS44      -0.1241
     23  CA         9.6060    2.2650   29.9460 C.3    44  HIS44       0.1621
     24  C          9.2430    2.1440   28.4680 C.2    44  HIS44       0.2264
     25  O          8.4370    2.9180   27.9630 O.2    44  HIS44      -0.2867
     26  CB         8.4070    1.7740   30.7640 C.3    44  HIS44       0.0745
     27  CG         8.7280    1.4160   32.1800 C.ar   44  HIS44       0.0817
     28  ND1        8.5010    2.2740   33.2330 N.ar   44  HIS44      -0.2268
     29  CD2        9.2310    0.2810   32.7210 C.ar   44  HIS44       0.1154
     30  CE1        8.8570    1.6900   34.3620 C.ar   44  HIS44       0.1986
     31  NE2        9.3100    0.4810   34.0790 N.ar   44  HIS44      -0.2212
     32  N         13.9130   -0.2840   30.9880 N.3    54  LYS54      -0.1231
     33  CA        13.7410    0.7950   31.9600 C.3    54  LYS54       0.1693
     34  C         14.9770    1.7050   32.0630 C.2    54  LYS54       0.2592
     35  O         16.1090    1.2260   32.1140 O.2    54  LYS54      -0.2718
     36  CB        13.3890    0.1860   33.3320 C.3    54  LYS54       0.0285
     37  CG        13.7210    1.0460   34.5470 C.3    54  LYS54       0.0035
     38  CD        13.0390    0.5070   35.8000 C.3    54  LYS54       0.0206
     39  CE        11.7770    1.2970   36.1170 C.3    54  LYS54       0.1093
     40  NZ        10.8740    0.5800   37.0570 N.3    54  LYS54      -0.1314
     41  N         14.7400    3.0160   32.0850 N.am   55  LEU55      -0.1966
     42  CA        15.7720    3.9870   32.4120 C.3    55  LEU55       0.1728
     43  C         15.2020    4.9630   33.4180 C.2    55  LEU55       0.2616
     44  O         13.9800    5.0680   33.5610 O.2    55  LEU55      -0.2715
     45  CB        16.2580    4.7210   31.1600 C.3    55  LEU55       0.0311
     46  CG        17.0410    3.8820   30.1550 C.3    55  LEU55       0.0022
     47  CD1       17.2920    4.6690   28.8770 C.3    55  LEU55       0.0001
     48  CD2       18.3470    3.3930   30.7590 C.3    55  LEU55       0.0001
     49  N         16.0890    5.6710   34.1080 N.am   56  ARG56      -0.1977
     50  CA        15.6980    6.5080   35.2250 C.3    56  ARG56       0.1597
     51  C         16.5880    7.7350   35.3610 C.2    56  ARG56       0.2287
     52  O         17.8070    7.6370   35.2810 O.2    56  ARG56      -0.2864
     53  CB        15.7680    5.6910   36.5060 C.3    56  ARG56       0.0334
     54  CG        15.1830    6.3730   37.7270 C.3    56  ARG56       0.0492
     55  CD        15.8600    5.8440   38.9710 C.3    56  ARG56       0.2205
     56  NE        15.1850    6.2310   40.2090 N.pl3  56  ARG56      -0.0865
     57  CZ        15.4830    7.2870   40.9580 C.cat  56  ARG56       0.5346
     58  NH1       16.4450    8.1430   40.6150 N.pl3  56  ARG56       0.1354
     59  NH2       14.7860    7.4950   42.0700 N.pl3  56  ARG56       0.1354
     60  N         18.4700   10.6330   28.6370 N.3    72  LEU72      -0.1245
     61  CA        18.5340    9.1890   28.7850 C.3    72  LEU72       0.1561
     62  C         18.5360    8.5950   27.3880 C.2    72  LEU72       0.2260
     63  O         17.7000    8.9440   26.5680 O.2    72  LEU72      -0.2867
     64  CB        17.3400    8.6830   29.5880 C.3    72  LEU72       0.0270
     65  CG        17.2670    9.1430   31.0540 C.3    72  LEU72       0.0019
     66  CD1       15.9180    8.7960   31.6670 C.3    72  LEU72       0.0001
     67  CD2       18.3790    8.5260   31.8830 C.3    72  LEU72       0.0001
     68  N         10.2860    9.9740   45.3920 N.3    94  GLU94      -0.1245
     69  CA        10.9530    8.9740   46.2130 C.3    94  GLU94       0.1567
     70  C         10.6950    9.3190   47.6760 C.2    94  GLU94       0.2260
     71  O         10.8040   10.4710   48.0770 O.2    94  GLU94      -0.2867
     72  CB        12.4680    8.9050   45.9020 C.3    94  GLU94       0.0388
     73  CG        13.1810    7.7540   46.6050 C.3    94  GLU94       0.1160
     74  CD        14.6430    7.6020   46.2260 C.2    94  GLU94       0.3649
     75  OE1       15.1990    8.4890   45.5400 O.co2  94  GLU94      -0.2457
     76  OE2       15.2460    6.5780   46.6290 O.co2  94  GLU94      -0.2457
     77  N         13.3020    4.8160   50.2310 N.3    98  GLY98      -0.1210
     78  CA        13.6970    4.3460   48.9110 C.3    98  GLY98       0.1956
     79  C         12.5820    3.6920   48.1180 C.2    98  GLY98       0.2612
     80  O         12.8350    3.0890   47.0910 O.2    98  GLY98      -0.2717
     81  N         11.3510    3.8080   48.6050 N.am   99  HIS99      -0.1961
     82  CA        10.1650    3.4450   47.8320 C.3    99  HIS99       0.1787
     83  C          9.6800    4.7230   47.1580 C.2    99  HIS99       0.2620
     84  O         10.4450    5.6720   47.0600 O.2    99  HIS99      -0.2715
     85  CB         9.0950    2.8350   48.7390 C.3    99  HIS99       0.0785
     86  CG         9.5310    1.5680   49.3980 C.ar   99  HIS99       0.0821
     87  ND1        9.6110    1.4280   50.7660 N.ar   99  HIS99      -0.2267
     88  CD2        9.9270    0.3850   48.8760 C.ar   99  HIS99       0.1154
     89  CE1       10.0320    0.2110   51.0590 C.ar   99  HIS99       0.1986
     90  NE2       10.2310   -0.4420   49.9290 N.ar   99  HIS99      -0.2212
     91  N          8.4340    4.7550   46.6790 N.am  100  ASN100     -0.1972
     92  CA         7.9190    5.9420   45.9960 C.3   100  ASN100      0.1688
     93  C          6.4030    6.0160   45.8820 C.2   100  ASN100      0.2292
     94  O          5.6810    5.0490   46.1520 O.2   100  ASN100     -0.2864
     95  CB         8.4820    5.9940   44.5880 C.3   100  ASN100      0.1181
     96  CG         7.9950    4.8520   43.7410 C.2   100  ASN100      0.2629
     97  OD1        8.3950    3.7040   43.9380 O.2   100  ASN100     -0.2716
     98  ND2        7.1080    5.1480   42.8080 N.am  100  ASN100     -0.0877
@<TRIPOS>BOND
     1    63    62    2
     2    62    61    1
     3    25    24    2
     4    24    23    1
     5    60    61    1
     6    61    64    1
     7    47    46    1
     8    64    65    1
     9    23    22    1
    10    23    26    1
    11    46    48    1
    12    46    45    1
    13    26    27    1
    14    32    33    1
    15    65    66    1
    16    65    67    1
    17    45    42    1
    18    33    34    1
    19    33    36    1
    20    34    41   am
    21    34    35    2
    22    41    42    1
    23    27    29   ar
    24    27    28   ar
    25    42    43    1
    26    29    31   ar
    27    16    15    2
    28    28    30   ar
    29    36    37    1
    30    15    14    1
    31    43    44    2
    32    43    49   am
    33    31    30   ar
    34    49    50    1
    35    37    38    1
    36    14    13    1
    37    14    17    1
    38    50    51    1
    39    50    53    1
    40    52    51    2
    41    17    18    1
    42    38    39    1
    43    39    40    1
    44    53    54    1
    45    18    19    1
    46    54    55    1
    47    19    20    1
    48     3     4    2
    49     3     2    1
    50    20    21    1
    51    55    56    1
    52     2     5    1
    53     2     1    1
    54     8    10   ar
    55     8     6   ar
    56     5     6    1
    57    10    11   ar
    58    56    57    2
    59     6     7   ar
    60    58    57    1
    61    57    59    1
    62    11    12    1
    63    11     9   ar
    64     7     9   ar
    65    98    96   am
    66    96    97    2
    67    96    95    1
    68    95    92    1
    69    68    69    1
    70    75    74   ar
    71    93    92    1
    72    93    94    2
    73    72    69    1
    74    72    73    1
    75    92    91    1
    76    69    70    1
    77    74    73    1
    78    74    76   ar
    79    91    83   am
    80    84    83    2
    81    80    79    2
    82    83    82    1
    83    70    71    2
    84    82    81    1
    85    82    85    1
    86    79    81   am
    87    79    78    1
    88    85    86    1
    89    88    86   ar
    90    88    90   ar
    91    78    77    1
    92    86    87   ar
    93    90    89   ar
    94    87    89   ar
