@<TRIPOS>MOLECULE
tmp/4ns3E00.pdb
 187 185 0 0 0
SMALL
GASTEIGER

@<TRIPOS>ATOM
      1  N        -80.8670   19.5140   12.1370 N.3   185  TYR185     -0.1241
      2  CA       -81.6470   19.7050   10.9250 C.3   185  TYR185      0.1605
      3  C        -81.2450   18.6700    9.8710 C.2   185  TYR185      0.2264
      4  O        -80.1520   18.7150    9.3460 O.2   185  TYR185     -0.2867
      5  CB       -81.4370   21.1380   10.4310 C.3   185  TYR185      0.0534
      6  CG       -82.2020   21.5980    9.2060 C.ar  185  TYR185     -0.0201
      7  CD1      -83.3030   20.9130    8.7220 C.ar  185  TYR185     -0.0009
      8  CD2      -81.7960   22.7370    8.5220 C.ar  185  TYR185     -0.0009
      9  CE1      -83.9750   21.3580    7.6020 C.ar  185  TYR185      0.0417
     10  CE2      -82.4640   23.1880    7.4160 C.ar  185  TYR185      0.0417
     11  CZ       -83.5500   22.5030    6.9600 C.ar  185  TYR185      0.1957
     12  OH       -84.2020   22.9730    5.8480 O.3   185  TYR185     -0.2866
     13  N        -81.7670   16.9670    6.2170 N.3   187  ILE187     -0.1231
     14  CA       -82.2240   17.2350    4.8660 C.3   187  ILE187      0.1692
     15  C        -81.8170   16.0750    3.9820 C.2   187  ILE187      0.2593
     16  O        -80.6420   15.7880    3.8670 O.2   187  ILE187     -0.2718
     17  CB       -81.6090   18.5180    4.3090 C.3   187  ILE187      0.0266
     18  CG1      -81.9190   19.6960    5.2210 C.3   187  ILE187      0.0019
     19  CG2      -82.0890   18.7680    2.8980 C.3   187  ILE187      0.0020
     20  CD1      -81.3010   20.9810    4.7620 C.3   187  ILE187      0.0001
     21  N        -82.7730   15.4100    3.3550 N.am  188  THR188     -0.1940
     22  CA       -82.4810   14.1300    2.7390 C.3   188  THR188      0.2013
     23  C        -82.9010   14.0750    1.2680 C.2   188  THR188      0.2484
     24  O        -83.8240   14.7530    0.8610 O.2   188  THR188     -0.2729
     25  CB       -83.1560   12.9840    3.5190 C.3   188  THR188      0.1807
     26  OG1      -84.5690   13.1570    3.4970 O.3   188  THR188     -0.2208
     27  CG2      -82.6700   12.9540    4.9550 C.3   188  THR188      0.0379
     28  N        -82.2050   13.2630    0.4630 N.am  189  PRO189     -0.2715
     29  CA       -82.4090   13.2530   -0.9870 C.3   189  PRO189      0.1536
     30  C        -83.4570   12.2690   -1.4730 C.2   189  PRO189      0.2599
     31  O        -84.0450   11.5580   -0.6790 O.2   189  PRO189     -0.2715
     32  CB       -81.0360   12.8610   -1.5100 C.3   189  PRO189      0.0310
     33  CG       -80.5090   11.9680   -0.4600 C.3   189  PRO189      0.0237
     34  CD       -81.0330   12.4620    0.8500 C.3   189  PRO189      0.0939
     35  N        -83.6750   12.2310   -2.7790 N.am  190  PHE190     -0.1960
     36  CA       -84.6470   11.3190   -3.3670 C.3   190  PHE190      0.1771
     37  C        -84.0890    9.9100   -3.5420 C.2   190  PHE190      0.2619
     38  O        -84.8450    8.9490   -3.5940 O.2   190  PHE190     -0.2715
     39  CB       -85.1250   11.8430   -4.7310 C.3   190  PHE190      0.0574
     40  CG       -84.1660   11.5590   -5.8660 C.ar  190  PHE190     -0.0200
     41  CD1      -84.2530   10.3860   -6.5970 C.ar  190  PHE190     -0.0042
     42  CD2      -83.1730   12.4580   -6.1850 C.ar  190  PHE190     -0.0042
     43  CE1      -83.3790   10.1250   -7.6080 C.ar  190  PHE190     -0.0003
     44  CE2      -82.2950   12.2020   -7.2000 C.ar  190  PHE190     -0.0003
     45  CZ       -82.3970   11.0340   -7.9160 C.ar  190  PHE190     -0.0000
     46  N        -82.7680    9.8040   -3.6630 N.am  191  ASN191     -0.1972
     47  CA       -82.1210    8.5690   -4.1140 C.3   191  ASN191      0.1688
     48  C        -82.3620    7.3390   -3.2440 C.2   191  ASN191      0.2292
     49  O        -82.5080    6.2440   -3.7520 O.2   191  ASN191     -0.2864
     50  CB       -80.6120    8.7760   -4.2300 C.3   191  ASN191      0.1181
     51  CG       -80.2520   10.0000   -5.0030 C.2   191  ASN191      0.2629
     52  OD1      -80.3460   11.1110   -4.5000 O.2   191  ASN191     -0.2716
     53  ND2      -79.8310    9.8120   -6.2460 N.am  191  ASN191     -0.0877
     54  N        -86.5170   17.1830    6.8350 N.3   213  LYS213     -0.1245
     55  CA       -87.0920   17.6740    5.5990 C.3   213  LYS213      0.1561
     56  C        -86.7490   16.7700    4.4350 C.2   213  LYS213      0.2260
     57  O        -85.6820   16.8730    3.8560 O.2   213  LYS213     -0.2867
     58  CB       -86.6090   19.0860    5.2970 C.3   213  LYS213      0.0271
     59  CG       -87.4300   19.7420    4.1950 C.3   213  LYS213      0.0035
     60  CD       -86.5200   20.2970    3.1540 C.3   213  LYS213      0.0206
     61  CE       -86.9240   19.9360    1.7340 C.3   213  LYS213      0.1093
     62  NZ       -87.0670   18.5180    1.4320 N.3   213  LYS213     -0.1314
     63  N        -87.0850   14.8180    0.6300 N.3   215  SER215     -0.1202
     64  CA       -87.2760   15.2040   -0.7560 C.3   215  SER215      0.2020
     65  C        -88.7010   14.9060   -1.1620 C.2   215  SER215      0.2618
     66  O        -89.2150   13.8370   -0.8700 O.2   215  SER215     -0.2717
     67  CB       -86.2860   14.4610   -1.6560 C.3   215  SER215      0.2103
     68  OG       -86.4190   14.8360   -3.0070 O.3   215  SER215     -0.2182
     69  N        -89.3340   15.8620   -1.8310 N.am  216  ILE216     -0.1979
     70  CA       -90.7250   15.7400   -2.2600 C.3   216  ILE216      0.1595
     71  C        -91.0280   14.4010   -2.9160 C.2   216  ILE216      0.2287
     72  O        -91.9940   13.7480   -2.5640 O.2   216  ILE216     -0.2864
     73  CB       -91.1000   16.8900   -3.2250 C.3   216  ILE216      0.0276
     74  CG1      -91.2190   18.2020   -2.4520 C.3   216  ILE216      0.0022
     75  CG2      -92.4010   16.5990   -3.9500 C.3   216  ILE216      0.0022
     76  CD1      -91.2920   19.4190   -3.3250 C.3   216  ILE216      0.0001
     77  N        -92.0070   19.4140    1.6280 N.3   244  GLY244     -0.1210
     78  CA       -91.8380   20.4800    0.6610 C.3   244  GLY244      0.1956
     79  C        -90.4570   20.7100    0.0760 C.2   244  GLY244      0.2612
     80  O        -89.6130   19.8310    0.0550 O.2   244  GLY244     -0.2717
     81  N        -90.2440   21.9190   -0.4250 N.am  245  ASP245     -0.1959
     82  CA       -89.0210   22.2390   -1.1320 C.3   245  ASP245      0.1840
     83  C        -87.9750   22.7070   -0.1390 C.2   245  ASP245      0.2623
     84  O        -86.8030   22.8100   -0.4630 O.2   245  ASP245     -0.2715
     85  CB       -89.2750   23.2940   -2.2210 C.3   245  ASP245      0.1450
     86  CG       -89.8930   24.5820   -1.6840 C.2   245  ASP245      0.3671
     87  OD1      -89.6190   24.9810   -0.5340 O.co2 245  ASP245     -0.2456
     88  OD2      -90.6550   25.2100   -2.4310 O.co2 245  ASP245     -0.2456
     89  N        -88.4230   23.0030    1.0700 N.am  246  GLY246     -0.1940
     90  CA       -87.5290   23.3410    2.1520 C.3   246  GLY246      0.2014
     91  C        -87.0160   24.7590    2.2520 C.2   246  GLY246      0.2638
     92  O        -86.2260   25.0560    3.1490 O.2   246  GLY246     -0.2714
     93  N        -87.4610   25.6390    1.3600 N.am  247  PHE247     -0.1973
     94  CA       -86.9850   27.0190    1.3870 C.3   247  PHE247      0.1639
     95  C        -87.4210   27.7390    2.6570 C.2   247  PHE247      0.2290
     96  O        -86.6230   28.3910    3.3170 O.2   247  PHE247     -0.2864
     97  CB       -87.4630   27.7690    0.1480 C.3   247  PHE247      0.0560
     98  CG       -87.0240   27.1330   -1.1350 C.ar  247  PHE247     -0.0200
     99  CD1      -85.8090   26.4680   -1.2050 C.ar  247  PHE247     -0.0042
    100  CD2      -87.8250   27.1750   -2.2630 C.ar  247  PHE247     -0.0042
    101  CE1      -85.4010   25.8620   -2.3720 C.ar  247  PHE247     -0.0003
    102  CE2      -87.4200   26.5720   -3.4320 C.ar  247  PHE247     -0.0003
    103  CZ       -86.2060   25.9120   -3.4840 C.ar  247  PHE247     -0.0000
    104  N        -85.5430   26.2500    5.8290 N.3   250  SER250     -0.1217
    105  CA       -84.1860   26.7310    6.0150 C.3   250  SER250      0.1889
    106  C        -84.1540   28.1670    6.5190 C.2   250  SER250      0.2288
    107  O        -83.2910   28.5190    7.3140 O.2   250  SER250     -0.2866
    108  CB       -83.4000   26.6170    4.7180 C.3   250  SER250      0.2089
    109  OG       -83.2640   25.2680    4.3430 O.3   250  SER250     -0.2183
    110  N        -77.0910   16.2020    6.0130 N.3   264  PHE264     -0.1227
    111  CA       -77.5300   16.3350    4.6290 C.3   264  PHE264      0.1736
    112  C        -76.8890   15.3320    3.6720 C.2   264  PHE264      0.2596
    113  O        -75.7400   14.9510    3.8250 O.2   264  PHE264     -0.2718
    114  CB       -77.2490   17.7650    4.1230 C.3   264  PHE264      0.0547
    115  CG       -77.3300   17.9180    2.6060 C.ar  264  PHE264     -0.0202
    116  CD1      -76.2620   17.5550    1.7920 C.ar  264  PHE264     -0.0042
    117  CD2      -78.4600   18.4390    1.9980 C.ar  264  PHE264     -0.0042
    118  CE1      -76.3270   17.6740    0.4360 C.ar  264  PHE264     -0.0003
    119  CE2      -78.5160   18.5750    0.6200 C.ar  264  PHE264     -0.0003
    120  CZ       -77.4460   18.1940   -0.1500 C.ar  264  PHE264     -0.0000
    121  N        -77.6450   14.9470    2.6530 N.am  265  THR265     -0.1939
    122  CA       -77.1270   14.1780    1.5380 C.3   265  THR265      0.2028
    123  C        -77.8620   14.6320    0.2880 C.2   265  THR265      0.2643
    124  O        -79.0780   14.7780    0.2980 O.2   265  THR265     -0.2714
    125  CB       -77.2870   12.6690    1.7660 C.3   265  THR265      0.1808
    126  OG1      -76.4180   12.2610    2.8290 O.3   265  THR265     -0.2208
    127  CG2      -76.9300   11.8900    0.5160 C.3   265  THR265      0.0379
    128  N        -77.1050   14.8920   -0.7710 N.am  266  GLY266     -0.1939
    129  CA       -77.6310   15.4280   -2.0150 C.3   266  GLY266      0.2014
    130  C        -76.5150   16.0840   -2.8100 C.2   266  GLY266      0.2639
    131  O        -75.3680   15.6710   -2.7050 O.2   266  GLY266     -0.2714
    132  N        -76.8270   17.1130   -3.5920 N.am  267  SER267     -0.1949
    133  CA       -75.8040   17.7610   -4.4170 C.3   267  SER267      0.1924
    134  C        -74.8650   18.6650   -3.6100 C.2   267  SER267      0.2314
    135  O        -75.2390   19.1980   -2.5710 O.2   267  SER267     -0.2863
    136  CB       -76.4530   18.5820   -5.5300 C.3   267  SER267      0.2116
    137  OG       -76.9650   19.8040   -5.0300 O.3   267  SER267     -0.2180
    138  N        -76.3460   22.3400   -3.5280 N.3   270  THR270     -0.1218
    139  CA       -77.2040   22.8300   -2.4660 C.3   270  THR270      0.1862
    140  C        -76.5280   22.7100   -1.1030 C.2   270  THR270      0.2287
    141  O        -77.0510   23.2050   -0.1160 O.2   270  THR270     -0.2866
    142  CB       -78.5680   22.1010   -2.4400 C.3   270  THR270      0.1770
    143  OG1      -78.4040   20.7610   -1.9720 O.3   270  THR270     -0.2211
    144  CG2      -79.1870   22.0790   -3.8160 C.3   270  THR270      0.0375
    145  N        -74.7350   26.1260   -0.7600 N.3   273  HIS273     -0.1226
    146  CA       -75.7930   27.0680   -0.3880 C.3   273  HIS273      0.1752
    147  C        -75.9460   27.1390    1.1130 C.2   273  HIS273      0.2595
    148  O        -75.9980   28.2190    1.6990 O.2   273  HIS273     -0.2718
    149  CB       -77.1240   26.6390   -1.0210 C.3   273  HIS273      0.0759
    150  CG       -78.2640   27.5810   -0.7750 C.ar  273  HIS273      0.0818
    151  ND1      -78.3150   28.8510   -1.3120 N.ar  273  HIS273     -0.2268
    152  CD2      -79.4030   27.4340   -0.0560 C.ar  273  HIS273      0.1154
    153  CE1      -79.4360   29.4420   -0.9380 C.ar  273  HIS273      0.1986
    154  NE2      -80.1130   28.6050   -0.1720 N.ar  273  HIS273     -0.2212
    155  N        -76.0070   25.9620    1.7250 N.am  274  LEU274     -0.1980
    156  CA       -76.2690   25.8450    3.1500 C.3   274  LEU274      0.1596
    157  C        -74.9920   25.8900    3.9750 C.2   274  LEU274      0.2287
    158  O        -75.0320   26.1870    5.1520 O.2   274  LEU274     -0.2864
    159  CB       -77.0420   24.5550    3.4470 C.3   274  LEU274      0.0297
    160  CG       -78.4550   24.4220    2.8520 C.3   274  LEU274      0.0022
    161  CD1      -78.7920   22.9880    2.4560 C.3   274  LEU274      0.0001
    162  CD2      -79.5060   24.9560    3.7980 C.3   274  LEU274      0.0001
    163  N        -74.5460   29.8290    4.2820 N.3   277  TRP277     -0.1241
    164  CA       -75.5730   30.4830    5.0850 C.3   277  TRP277      0.1605
    165  C        -75.2710   30.4720    6.5750 C.2   277  TRP277      0.2264
    166  O        -75.6540   31.3840    7.3010 O.2   277  TRP277     -0.2867
    167  CB       -76.9000   29.7920    4.8030 C.3   277  TRP277      0.0550
    168  CG       -78.1290   30.5260    5.1900 C.ar  277  TRP277      0.0003
    169  CD1      -78.2510   31.5470    6.0900 C.ar  277  TRP277      0.0946
    170  CD2      -79.4330   30.2840    4.6760 C.ar  277  TRP277      0.0152
    171  NE1      -79.5610   31.9490    6.1680 N.ar  277  TRP277     -0.2442
    172  CE2      -80.3070   31.1880    5.3050 C.ar  277  TRP277      0.0810
    173  CE3      -79.9490   29.3870    3.7390 C.ar  277  TRP277      0.0012
    174  CZ2      -81.6690   31.2210    5.0240 C.ar  277  TRP277      0.0191
    175  CZ3      -81.2970   29.4180    3.4650 C.ar  277  TRP277      0.0001
    176  CH2      -82.1430   30.3280    4.1020 C.ar  277  TRP277      0.0015
    177  N        -77.4180   12.8920  -13.1950 N.3   419  PHE419     -0.1241
    178  CA       -77.8440   11.5150  -12.9550 C.3   419  PHE419      0.1605
    179  C        -78.6590   10.9730  -14.1160 C.2   419  PHE419      0.2264
    180  O        -79.6030   11.6060  -14.5430 O.2   419  PHE419     -0.2867
    181  CB       -78.6770   11.4260  -11.6790 C.3   419  PHE419      0.0534
    182  CG       -77.8650   11.4120  -10.4130 C.ar  419  PHE419     -0.0203
    183  CD1      -76.6080   10.8380  -10.3820 C.ar  419  PHE419     -0.0042
    184  CD2      -78.3710   11.9640   -9.2420 C.ar  419  PHE419     -0.0042
    185  CE1      -75.8680   10.8230   -9.2140 C.ar  419  PHE419     -0.0003
    186  CE2      -77.6380   11.9500   -8.0740 C.ar  419  PHE419     -0.0003
    187  CZ       -76.3840   11.3800   -8.0590 C.ar  419  PHE419     -0.0000
@<TRIPOS>BOND
     1   180   179    2
     2   179   178    1
     3   177   178    1
     4   178   181    1
     5   181   182    1
     6   182   183   ar
     7   182   184   ar
     8   183   185   ar
     9   184   186   ar
    10   185   187   ar
    11   186   187   ar
    12    45    43   ar
    13    45    44   ar
    14    43    41   ar
    15    44    42   ar
    16    41    40   ar
    17    53    51   am
    18    42    40   ar
    19    40    39    1
    20   136   137    1
    21   136   133    1
    22    51    52    2
    23    51    50    1
    24    39    36    1
    25   133   134    1
    26   133   132    1
    27    50    47    1
    28    47    46    1
    29    47    48    1
    30    75    73    1
    31   144   142    1
    32    49    48    2
    33    46    37   am
    34   134   135    2
    35    38    37    2
    36   132   130   am
    37    37    36    1
    38   138   139    1
    39   103   102   ar
    40   103   101   ar
    41   102   100   ar
    42    36    35    1
    43    76    74    1
    44    73    74    1
    45    73    70    1
    46    68    67    1
    47    71    72    2
    48    71    70    1
    49   130   131    2
    50   130   129    1
    51    35    30   am
    52   139   142    1
    53   139   140    1
    54   142   143    1
    55    88    86   ar
    56   101    99   ar
    57   100    98   ar
    58    70    69    1
    59    85    86    1
    60    85    82    1
    61   129   128    1
    62    69    65   am
    63    86    87   ar
    64    67    64    1
    65    32    29    1
    66    32    33    1
    67    30    29    1
    68    30    31    2
    69   151   153   ar
    70   151   150   ar
    71    99    98   ar
    72    65    66    2
    73    65    64    1
    74    98    97    1
    75    82    81    1
    76    82    83    1
    77   140   141    2
    78   149   150    1
    79   149   146    1
    80    29    28    1
    81   153   154   ar
    82   150   152   ar
    83   128   123   am
    84   145   146    1
    85    64    63    1
    86    84    83    2
    87    33    34    1
    88    81    79   am
    89   146   147    1
    90   154   152   ar
    91   120   118   ar
    92   120   119   ar
    93    83    89   am
    94    80    79    2
    95    79    78    1
    96    97    94    1
    97   123   124    2
    98   123   122    1
    99   118   116   ar
   100    28    34    1
   101    28    23   am
   102   127   125    1
   103   119   117   ar
   104    78    77    1
   105    24    23    2
   106    89    90    1
   107   147   148    2
   108   147   155   am
   109    23    22    1
   110    93    94    1
   111    93    91   am
   112    94    95    1
   113    62    61    1
   114   122   125    1
   115   122   121    1
   116   155   156    1
   117    61    60    1
   118   125   126    1
   119   116   115   ar
   120   117   115   ar
   121    90    91    1
   122    91    92    2
   123   161   160    1
   124   115   114    1
   125   121   112   am
   126    95    96    2
   127    22    21    1
   128    22    25    1
   129   160   159    1
   130   160   162    1
   131    19    17    1
   132   156   159    1
   133   156   157    1
   134    60    59    1
   135    21    15   am
   136   175   173   ar
   137   175   176   ar
   138    26    25    1
   139    25    27    1
   140   112   113    2
   141   112   111    1
   142   173   170   ar
   143    57    56    2
   144    16    15    2
   145   157   158    2
   146    15    14    1
   147   176   174   ar
   148   114   111    1
   149    59    58    1
   150   163   164    1
   151    17    14    1
   152    17    18    1
   153   109   108    1
   154    56    55    1
   155   111   110    1
   156   170   168   ar
   157   170   172   ar
   158   108   105    1
   159    20    18    1
   160   167   164    1
   161   167   168    1
   162    14    13    1
   163   174   172   ar
   164   164   165    1
   165   168   169   ar
   166    58    55    1
   167   172   171   ar
   168    55    54    1
   169   104   105    1
   170    12    11    1
   171   105   106    1
   172   169   171   ar
   173   106   107    2
   174   165   166    2
   175    11    10   ar
   176    11     9   ar
   177    10     8   ar
   178     9     7   ar
   179     8     6   ar
   180     7     6   ar
   181     6     5    1
   182     4     3    2
   183     3     2    1
   184     5     2    1
   185     2     1    1
