@<TRIPOS>MOLECULE
tmp/4ns3C00.pdb
 139 132 0 0 0
SMALL
GASTEIGER

@<TRIPOS>ATOM
      1  N        -43.5420  -32.5940   -4.5150 N.3   187  ILE187     -0.1245
      2  CA       -43.7300  -33.9160   -5.0980 C.3   187  ILE187      0.1561
      3  C        -44.9590  -34.5050   -4.4570 C.2   187  ILE187      0.2260
      4  O        -44.9780  -34.6700   -3.2580 O.2   187  ILE187     -0.2867
      5  CB       -42.5160  -34.8340   -4.8300 C.3   187  ILE187      0.0252
      6  CG1      -41.2270  -34.2100   -5.3690 C.3   187  ILE187      0.0019
      7  CG2      -42.7580  -36.2400   -5.3710 C.3   187  ILE187      0.0019
      8  CD1      -39.9710  -34.8560   -4.8490 C.3   187  ILE187      0.0001
      9  N        -44.1030  -31.6040   -9.2290 N.3   213  LYS213     -0.1245
     10  CA       -44.2020  -32.8210   -9.9860 C.3   213  LYS213      0.1561
     11  C        -45.2960  -33.6990   -9.4280 C.2   213  LYS213      0.2260
     12  O        -45.1400  -34.3140   -8.3880 O.2   213  LYS213     -0.2867
     13  CB       -42.8840  -33.5960  -10.0060 C.3   213  LYS213      0.0271
     14  CG       -42.9570  -34.7800  -10.9680 C.3   213  LYS213      0.0035
     15  CD       -42.4640  -35.9690  -10.2830 C.3   213  LYS213      0.0206
     16  CE       -43.2140  -37.2610  -10.4990 C.3   213  LYS213      0.1093
     17  NZ       -44.6040  -37.3260  -10.1740 N.3   213  LYS213     -0.1314
     18  N        -42.4220  -39.3940  -14.2380 N.3   245  ASP245     -0.1225
     19  CA       -42.0300  -40.2260  -13.1020 C.3   245  ASP245      0.1805
     20  C        -41.1250  -39.5170  -12.0970 C.2   245  ASP245      0.2598
     21  O        -40.8420  -40.0580  -11.0420 O.2   245  ASP245     -0.2718
     22  CB       -41.3360  -41.5140  -13.5820 C.3   245  ASP245      0.1424
     23  CG       -40.1830  -41.2600  -14.5520 C.2   245  ASP245      0.3668
     24  OD1      -39.4160  -40.2750  -14.4090 O.co2 245  ASP245     -0.2456
     25  OD2      -40.0500  -42.0790  -15.4690 O.co2 245  ASP245     -0.2456
     26  N        -40.6590  -38.3250  -12.4480 N.am  246  GLY246     -0.1942
     27  CA       -39.8600  -37.5010  -11.5670 C.3   246  GLY246      0.2014
     28  C        -38.3640  -37.7180  -11.4820 C.2   246  GLY246      0.2638
     29  O        -37.6780  -36.9770  -10.7860 O.2   246  GLY246     -0.2714
     30  N        -37.8520  -38.7210  -12.1760 N.am  247  PHE247     -0.1973
     31  CA       -36.4520  -39.0970  -12.0270 C.3   247  PHE247      0.1639
     32  C        -35.5370  -37.9990  -12.5460 C.2   247  PHE247      0.2290
     33  O        -34.5860  -37.6250  -11.8790 O.2   247  PHE247     -0.2864
     34  CB       -36.1450  -40.4130  -12.7480 C.3   247  PHE247      0.0560
     35  CG       -37.0700  -41.5340  -12.3930 C.ar  247  PHE247     -0.0200
     36  CD1      -37.6980  -41.5780  -11.1680 C.ar  247  PHE247     -0.0042
     37  CD2      -37.3150  -42.5460  -13.2950 C.ar  247  PHE247     -0.0042
     38  CE1      -38.5450  -42.6150  -10.8530 C.ar  247  PHE247     -0.0003
     39  CE2      -38.1650  -43.5800  -12.9810 C.ar  247  PHE247     -0.0003
     40  CZ       -38.7770  -43.6150  -11.7590 C.ar  247  PHE247     -0.0000
     41  N        -35.7910  -34.7770  -10.3030 N.3   250  SER250     -0.1202
     42  CA       -34.9280  -34.8970   -9.1310 C.3   250  SER250      0.2020
     43  C        -33.4430  -34.7700   -9.4570 C.2   250  SER250      0.2618
     44  O        -32.7060  -34.1820   -8.6750 O.2   250  SER250     -0.2717
     45  CB       -35.1610  -36.2160   -8.4090 C.3   250  SER250      0.2103
     46  OG       -36.4250  -36.2400   -7.7940 O.3   250  SER250     -0.2182
     47  N        -33.0090  -35.3210  -10.5930 N.am  251  ASP251     -0.1973
     48  CA       -31.6240  -35.1690  -11.0210 C.3   251  ASP251      0.1709
     49  C        -31.2680  -33.6990  -11.1140 C.2   251  ASP251      0.2293
     50  O        -30.2330  -33.2800  -10.6240 O.2   251  ASP251     -0.2864
     51  CB       -31.3630  -35.8320  -12.3750 C.3   251  ASP251      0.1436
     52  CG       -31.3020  -37.3310  -12.2950 C.2   251  ASP251      0.3671
     53  OD1      -31.1240  -37.8740  -11.1940 O.co2 251  ASP251     -0.2456
     54  OD2      -31.4340  -37.9770  -13.3440 O.co2 251  ASP251     -0.2456
     55  N        -32.2840  -31.6670   -7.2680 N.3   254  LEU254     -0.1245
     56  CA       -31.4100  -31.9840   -6.1570 C.3   254  LEU254      0.1561
     57  C        -29.9550  -31.6400   -6.4300 C.2   254  LEU254      0.2260
     58  O        -29.1280  -31.7310   -5.5460 O.2   254  LEU254     -0.2867
     59  CB       -31.5290  -33.4560   -5.7990 C.3   254  LEU254      0.0270
     60  CG       -32.5520  -33.8180   -4.7250 C.3   254  LEU254      0.0019
     61  CD1      -33.9620  -33.6090   -5.2100 C.3   254  LEU254      0.0001
     62  CD2      -32.3480  -35.2490   -4.3190 C.3   254  LEU254      0.0001
     63  N        -38.0080  -29.3530    0.0860 N.3   262  ILE262     -0.1245
     64  CA       -38.8100  -30.3470   -0.5870 C.3   262  ILE262      0.1561
     65  C        -40.0760  -30.5850    0.2140 C.2   262  ILE262      0.2260
     66  O        -40.0190  -30.8400    1.3980 O.2   262  ILE262     -0.2867
     67  CB       -38.0440  -31.6780   -0.7720 C.3   262  ILE262      0.0252
     68  CG1      -36.7700  -31.4600   -1.5710 C.3   262  ILE262      0.0019
     69  CG2      -38.9200  -32.7290   -1.4610 C.3   262  ILE262      0.0019
     70  CD1      -35.9430  -32.7260   -1.7500 C.3   262  ILE262      0.0001
     71  N        -43.1650  -33.0210    0.2300 N.3   264  PHE264     -0.1227
     72  CA       -43.4980  -34.3050   -0.3500 C.3   264  PHE264      0.1736
     73  C        -44.3070  -35.1850    0.5720 C.2   264  PHE264      0.2596
     74  O        -44.6600  -34.8010    1.6660 O.2   264  PHE264     -0.2718
     75  CB       -42.2200  -35.0510   -0.7400 C.3   264  PHE264      0.0547
     76  CG       -41.3650  -35.4590    0.4350 C.ar  264  PHE264     -0.0202
     77  CD1      -40.6560  -34.5180    1.1610 C.ar  264  PHE264     -0.0042
     78  CD2      -41.2500  -36.7860    0.7970 C.ar  264  PHE264     -0.0042
     79  CE1      -39.8630  -34.8970    2.2310 C.ar  264  PHE264     -0.0003
     80  CE2      -40.4580  -37.1700    1.8690 C.ar  264  PHE264     -0.0003
     81  CZ       -39.7640  -36.2270    2.5850 C.ar  264  PHE264     -0.0000
     82  N        -44.5970  -36.3820    0.0960 N.am  265  THR265     -0.1939
     83  CA       -44.9840  -37.4720    0.9550 C.3   265  THR265      0.2028
     84  C        -44.0250  -38.6420    0.6720 C.2   265  THR265      0.2643
     85  O        -43.3390  -38.6540   -0.3400 O.2   265  THR265     -0.2714
     86  CB       -46.4560  -37.8660    0.7430 C.3   265  THR265      0.1808
     87  OG1      -46.5870  -38.6820   -0.4230 O.3   265  THR265     -0.2208
     88  CG2      -47.3300  -36.6130    0.6250 C.3   265  THR265      0.0379
     89  N        -43.9570  -39.6120    1.5740 N.am  266  GLY266     -0.1939
     90  CA       -43.0710  -40.7480    1.3890 C.3   266  GLY266      0.2014
     91  C        -42.8650  -41.5600    2.6480 C.2   266  GLY266      0.2639
     92  O        -43.1870  -41.1110    3.7460 O.2   266  GLY266     -0.2714
     93  N        -42.3350  -42.7640    2.4740 N.am  267  SER267     -0.1949
     94  CA       -42.0260  -43.6630    3.5800 C.3   267  SER267      0.1924
     95  C        -40.8820  -43.1470    4.4440 C.2   267  SER267      0.2314
     96  O        -40.2170  -42.1800    4.0950 O.2   267  SER267     -0.2863
     97  CB       -41.6640  -45.0420    3.0490 C.3   267  SER267      0.2116
     98  OG       -40.4750  -44.9800    2.2910 O.3   267  SER267     -0.2180
     99  N        -38.1010  -44.6440    4.9530 N.3   269  ALA269     -0.1231
    100  CA       -36.9080  -44.8680    4.1590 C.3   269  ALA269      0.1694
    101  C        -36.6440  -43.7010    3.2150 C.2   269  ALA269      0.2592
    102  O        -35.5040  -43.2760    3.0650 O.2   269  ALA269     -0.2718
    103  CB       -37.0310  -46.1710    3.3770 C.3   269  ALA269      0.0304
    104  N        -37.6990  -43.1900    2.5840 N.am  270  THR270     -0.1953
    105  CA       -37.5650  -42.0940    1.6340 C.3   270  THR270      0.1897
    106  C        -37.0840  -40.8550    2.3690 C.2   270  THR270      0.2313
    107  O        -36.2770  -40.1000    1.8470 O.2   270  THR270     -0.2863
    108  CB       -38.8890  -41.8070    0.8890 C.3   270  THR270      0.1794
    109  OG1      -39.2590  -42.9540    0.1240 O.3   270  THR270     -0.2208
    110  CG2      -38.7320  -40.6570   -0.0520 C.3   270  THR270      0.0378
    111  N        -33.2930  -41.5080    3.1650 N.3   273  HIS273     -0.1226
    112  CA       -32.5180  -41.3250    1.9470 C.3   273  HIS273      0.1752
    113  C        -32.2340  -39.8520    1.6340 C.2   273  HIS273      0.2595
    114  O        -31.0940  -39.4600    1.3920 O.2   273  HIS273     -0.2718
    115  CB       -33.2420  -41.9620    0.7640 C.3   273  HIS273      0.0759
    116  CG       -32.5560  -41.7230   -0.5410 C.ar  273  HIS273      0.0818
    117  ND1      -32.9680  -40.7550   -1.4290 N.ar  273  HIS273     -0.2268
    118  CD2      -31.4580  -42.2950   -1.0850 C.ar  273  HIS273      0.1154
    119  CE1      -32.1680  -40.7600   -2.4790 C.ar  273  HIS273      0.1986
    120  NE2      -31.2430  -41.6830   -2.2940 N.ar  273  HIS273     -0.2212
    121  N        -33.2900  -39.0530    1.6260 N.am  274  LEU274     -0.1980
    122  CA       -33.1700  -37.6310    1.4270 C.3   274  LEU274      0.1596
    123  C        -32.2970  -36.9990    2.4990 C.2   274  LEU274      0.2287
    124  O        -31.4530  -36.1690    2.1970 O.2   274  LEU274     -0.2864
    125  CB       -34.5400  -36.9900    1.4270 C.3   274  LEU274      0.0297
    126  CG       -35.4250  -37.3830    0.2570 C.3   274  LEU274      0.0022
    127  CD1      -36.7410  -36.6280    0.3100 C.3   274  LEU274      0.0001
    128  CD2      -34.6980  -37.1100   -1.0230 C.3   274  LEU274      0.0001
    129  N        -49.3710  -51.7990  -10.6280 N.3   373  ARG373     -0.1245
    130  CA       -48.4510  -52.0950   -9.5490 C.3   373  ARG373      0.1563
    131  C        -49.1660  -52.2380   -8.2170 C.2   373  ARG373      0.2260
    132  O        -48.8800  -53.1410   -7.4570 O.2   373  ARG373     -0.2867
    133  CB       -47.3750  -51.0180   -9.4480 C.3   373  ARG373      0.0307
    134  CG       -46.1900  -51.2470  -10.3680 C.3   373  ARG373      0.0489
    135  CD       -45.5200  -49.9340  -10.7660 C.3   373  ARG373      0.2205
    136  NE       -44.0650  -50.0500  -10.7940 N.pl3 373  ARG373     -0.0865
    137  CZ       -43.3450  -50.1420  -11.9060 C.cat 373  ARG373      0.5346
    138  NH1      -42.0270  -50.2480  -11.8330 N.pl3 373  ARG373      0.1354
    139  NH2      -43.9410  -50.1370  -13.0900 N.pl3 373  ARG373      0.1354
@<TRIPOS>BOND
     1    25    23   ar
     2    23    24   ar
     3    23    22    1
     4    18    19    1
     5    22    19    1
     6    54    52   ar
     7    37    39   ar
     8    37    35   ar
     9    19    20    1
    10   139   137    1
    11    39    40   ar
    12    34    35    1
    13    34    31    1
    14    32    31    1
    15    32    33    2
    16    26    20   am
    17    26    27    1
    18    35    36   ar
    19    51    52    1
    20    51    48    1
    21    52    53   ar
    22    30    31    1
    23    30    28   am
    24    20    21    2
    25   137   138    1
    26   137   136    2
    27    40    38   ar
    28    27    28    1
    29    28    29    2
    30    36    38   ar
    31    49    48    1
    32    49    50    2
    33    48    47    1
    34    14    15    1
    35    14    13    1
    36   136   135    1
    37   135   134    1
    38   129   130    1
    39    47    43   am
    40    16    15    1
    41    16    17    1
    42   134   133    1
    43    41    42    1
    44    13    10    1
    45    10    11    1
    46    10     9    1
    47   130   133    1
    48   130   131    1
    49    43    42    1
    50    43    44    2
    51    11    12    2
    52    42    45    1
    53    45    46    1
    54   131   132    2
    55    55    56    1
    56    57    56    1
    57    57    58    2
    58    56    59    1
    59    59    60    1
    60     7     5    1
    61     6     8    1
    62     6     5    1
    63    61    60    1
    64     2     5    1
    65     2     1    1
    66     2     3    1
    67    60    62    1
    68     3     4    2
    69   119   120   ar
    70   119   117   ar
    71   120   118   ar
    72    70    68    1
    73    68    67    1
    74    69    67    1
    75   117   116   ar
    76   118   116   ar
    77   128   126    1
    78    67    64    1
    79    75    72    1
    80    75    76    1
    81    64    63    1
    82    64    65    1
    83   116   115    1
    84    87    86    1
    85    72    71    1
    86    72    73    1
    87    85    84    2
    88   110   108    1
    89    82    73   am
    90    82    83    1
    91   109   108    1
    92    65    66    2
    93   126   127    1
    94   126   125    1
    95    76    78   ar
    96    76    77   ar
    97    73    74    2
    98    88    86    1
    99    84    83    1
   100    84    89   am
   101    86    83    1
   102   115   112    1
   103    78    80   ar
   104   108   105    1
   105    77    79   ar
   106    90    89    1
   107    90    91    1
   108   114   113    2
   109   125   122    1
   110   122   121    1
   111   122   123    1
   112   121   113   am
   113   113   112    1
   114   105   106    1
   115   105   104    1
   116   107   106    2
   117    80    81   ar
   118   112   111    1
   119   124   123    2
   120    79    81   ar
   121    98    97    1
   122    93    91   am
   123    93    94    1
   124   104   101   am
   125    91    92    2
   126    97    94    1
   127   102   101    2
   128   101   100    1
   129   103   100    1
   130    94    95    1
   131    96    95    2
   132   100    99    1
