@<TRIPOS>MOLECULE
tmp/4nsbA01.pdb
 116 115 0 0 0
SMALL
GASTEIGER

@<TRIPOS>ATOM
      1  N        -13.4490    1.2050   10.7800 N.3     8  THR8       -0.1218
      2  CA       -13.8970    2.4850   11.3000 C.3     8  THR8        0.1862
      3  C        -12.7560    3.3740   11.7860 C.2     8  THR8        0.2287
      4  O        -11.8630    2.9180   12.5050 O.2     8  THR8       -0.2866
      5  CB       -14.8510    2.2460   12.4320 C.3     8  THR8        0.1770
      6  OG1      -14.2200    1.3970   13.3920 O.3     8  THR8       -0.2211
      7  CG2      -16.1050    1.5640   11.9070 C.3     8  THR8        0.0375
      8  N        -12.7510    5.8900   13.9610 N.3    10  TRP10      -0.1241
      9  CA       -12.7000    6.2490   15.3650 C.3    10  TRP10       0.1605
     10  C        -12.1920    5.1270   16.2380 C.2    10  TRP10       0.2264
     11  O        -11.7670    5.3510   17.3650 O.2    10  TRP10      -0.2867
     12  CB       -14.0800    6.6810   15.8440 C.3    10  TRP10       0.0550
     13  CG       -15.1560    5.7150   15.5140 C.ar   10  TRP10       0.0003
     14  CD1      -15.7980    4.8850   16.3720 C.ar   10  TRP10       0.0946
     15  CD2      -15.7770    5.5320   14.2410 C.ar   10  TRP10       0.0152
     16  NE1      -16.7790    4.1870   15.7190 N.ar   10  TRP10      -0.2442
     17  CE2      -16.7850    4.5600   14.4040 C.ar   10  TRP10       0.0810
     18  CE3      -15.5670    6.0820   12.9680 C.ar   10  TRP10       0.0012
     19  CZ2      -17.6060    4.1430   13.3550 C.ar   10  TRP10       0.0191
     20  CZ3      -16.3750    5.6690   11.9220 C.ar   10  TRP10       0.0001
     21  CH2      -17.3790    4.6980   12.1210 C.ar   10  TRP10       0.0015
     22  N        -10.4780    4.2650   20.9090 N.3    14  ARG14      -0.1245
     23  CA       -10.8340    3.3050   21.9440 C.3    14  ARG14       0.1563
     24  C         -9.6570    3.0730   22.8770 C.2    14  ARG14       0.2260
     25  O         -8.5180    2.9730   22.4300 O.2    14  ARG14      -0.2867
     26  CB       -11.2920    1.9830   21.3170 C.3    14  ARG14       0.0307
     27  CG       -12.5220    2.1370   20.4290 C.3    14  ARG14       0.0489
     28  CD       -13.3930    0.8990   20.4420 C.3    14  ARG14       0.2205
     29  NE       -14.3630    0.9030   19.3470 N.pl3  14  ARG14      -0.0865
     30  CZ       -14.1380    0.3760   18.1450 C.cat  14  ARG14       0.5346
     31  NH1      -12.9750   -0.2060   17.8690 N.pl3  14  ARG14       0.1354
     32  NH2      -15.0710    0.4230   17.2130 N.pl3  14  ARG14       0.1354
     33  N        -23.7800    7.5120    9.4520 N.3    78  TRP78      -0.1241
     34  CA       -24.8360    8.1490   10.2340 C.3    78  TRP78       0.1605
     35  C        -24.5280    9.5270   10.8430 C.2    78  TRP78       0.2264
     36  O        -25.3840   10.4240   10.8060 O.2    78  TRP78      -0.2867
     37  CB       -25.3030    7.1880   11.3130 C.3    78  TRP78       0.0550
     38  CG       -24.2210    6.8350   12.2310 C.ar   78  TRP78       0.0003
     39  CD1      -23.8610    7.5070   13.3610 C.ar   78  TRP78       0.0946
     40  CD2      -23.3250    5.7260   12.1130 C.ar   78  TRP78       0.0152
     41  NE1      -22.7920    6.8830   13.9620 N.ar   78  TRP78      -0.2442
     42  CE2      -22.4440    5.7860   13.2180 C.ar   78  TRP78       0.0810
     43  CE3      -23.1830    4.6860   11.1860 C.ar   78  TRP78       0.0012
     44  CZ2      -21.4270    4.8410   13.4230 C.ar   78  TRP78       0.0191
     45  CZ3      -22.1710    3.7440   11.3860 C.ar   78  TRP78       0.0001
     46  CH2      -21.3050    3.8310   12.5020 C.ar   78  TRP78       0.0015
     47  N        -20.5060   -7.7040   15.8390 N.3   239  PHE239     -0.1241
     48  CA       -20.8370   -7.1220   17.1260 C.3   239  PHE239      0.1605
     49  C        -22.1490   -7.6670   17.6450 C.2   239  PHE239      0.2264
     50  O        -22.8500   -8.3940   16.9470 O.2   239  PHE239     -0.2867
     51  CB       -20.9430   -5.6020   17.0290 C.3   239  PHE239      0.0534
     52  CG       -21.9940   -5.1360   16.0690 C.ar  239  PHE239     -0.0203
     53  CD1      -21.7070   -5.0070   14.7130 C.ar  239  PHE239     -0.0042
     54  CD2      -23.2890   -4.8710   16.5040 C.ar  239  PHE239     -0.0042
     55  CE1      -22.6940   -4.6230   13.8040 C.ar  239  PHE239     -0.0003
     56  CE2      -24.2860   -4.4840   15.6040 C.ar  239  PHE239     -0.0003
     57  CZ       -23.9850   -4.3610   14.2520 C.ar  239  PHE239     -0.0000
     58  N        -15.5830   -0.2530   23.9010 N.3   266  THR266     -0.1218
     59  CA       -16.4400    0.4100   22.9270 C.3   266  THR266      0.1862
     60  C        -17.2110    1.5920   23.5350 C.2   266  THR266      0.2287
     61  O        -17.6570    2.4820   22.8080 O.2   266  THR266     -0.2866
     62  CB       -17.4300   -0.6070   22.3250 C.3   266  THR266      0.1770
     63  OG1      -18.1770   -1.2170   23.3800 O.3   266  THR266     -0.2211
     64  CG2      -16.6740   -1.7050   21.5800 C.3   266  THR266      0.0375
     65  N        -20.1660    2.3640   24.5070 N.3   268  TRP268     -0.1241
     66  CA       -21.4010    2.8450   23.9300 C.3   268  TRP268      0.1605
     67  C        -22.5800    2.0060   24.3820 C.2   268  TRP268      0.2264
     68  O        -22.5770    0.7880   24.2660 O.2   268  TRP268     -0.2867
     69  CB       -21.3280    2.8600   22.4050 C.3   268  TRP268      0.0550
     70  CG       -22.3660    3.7620   21.8300 C.ar  268  TRP268      0.0003
     71  CD1      -23.3550    3.4340   20.9370 C.ar  268  TRP268      0.0946
     72  CD2      -22.5200    5.1640   22.1000 C.ar  268  TRP268      0.0152
     73  NE1      -24.1090    4.5510   20.6340 N.ar  268  TRP268     -0.2442
     74  CE2      -23.6230    5.6210   21.3400 C.ar  268  TRP268      0.0810
     75  CE3      -21.8460    6.0740   22.9290 C.ar  268  TRP268      0.0012
     76  CZ2      -24.0490    6.9480   21.3620 C.ar  268  TRP268      0.0191
     77  CZ3      -22.2730    7.3990   22.9550 C.ar  268  TRP268      0.0001
     78  CH2      -23.3740    7.8200   22.1780 C.ar  268  TRP268      0.0015
     79  N        -24.5160   -1.4470   22.6740 N.3   271  ILE271     -0.1245
     80  CA       -23.6790   -2.2140   21.7640 C.3   271  ILE271      0.1561
     81  C        -22.4060   -2.7950   22.3980 C.2   271  ILE271      0.2260
     82  O        -21.8580   -2.2310   23.3450 O.2   271  ILE271     -0.2867
     83  CB       -23.3500   -1.3610   20.5170 C.3   271  ILE271      0.0252
     84  CG1      -24.5330   -1.4380   19.5440 C.3   271  ILE271      0.0019
     85  CG2      -22.0350   -1.7880   19.8780 C.3   271  ILE271      0.0019
     86  CD1      -24.1820   -1.1820   18.0880 C.3   271  ILE271      0.0001
     87  N        -19.7650   -6.0550    9.0710 N.3   330  TRP330     -0.1241
     88  CA       -19.7160   -4.8340    9.8890 C.3   330  TRP330      0.1605
     89  C        -18.9320   -5.0140   11.2310 C.2   330  TRP330      0.2264
     90  O        -19.2470   -5.7110   12.1610 O.2   330  TRP330     -0.2867
     91  CB       -21.0310   -4.0970   10.0950 C.3   330  TRP330      0.0550
     92  CG       -20.6470   -2.6570   10.7120 C.ar  330  TRP330      0.0003
     93  CD1      -20.5630   -2.3360   12.0520 C.ar  330  TRP330      0.0946
     94  CD2      -20.2220   -1.4440   10.0090 C.ar  330  TRP330      0.0152
     95  NE1      -20.1320   -1.0330   12.2200 N.ar  330  TRP330     -0.2442
     96  CE2      -19.9240   -0.4630   10.9950 C.ar  330  TRP330      0.0810
     97  CE3      -20.0740   -1.0940    8.6570 C.ar  330  TRP330      0.0012
     98  CZ2      -19.4920    0.8360   10.6670 C.ar  330  TRP330      0.0191
     99  CZ3      -19.6410    0.2090    8.3390 C.ar  330  TRP330      0.0001
    100  CH2      -19.3630    1.1490    9.3400 C.ar  330  TRP330      0.0015
    101  N        -12.7280   -3.7130   13.4370 N.3   333  ASP333     -0.1225
    102  CA       -12.2580   -3.3170   14.7440 C.3   333  ASP333      0.1805
    103  C        -13.0540   -3.9430   15.8800 C.2   333  ASP333      0.2597
    104  O        -12.6150   -3.8870   17.0350 O.2   333  ASP333     -0.2718
    105  CB       -12.2430   -1.7920   14.8400 C.3   333  ASP333      0.1424
    106  CG       -13.4320   -1.1390   14.1400 C.2   333  ASP333      0.3668
    107  OD1      -14.4640   -0.8960   14.7930 O.co2 333  ASP333     -0.2456
    108  OD2      -13.3240   -0.8620   12.9280 O.co2 333  ASP333     -0.2456
    109  N        -14.2000   -4.5490   15.5440 N.am  334  LEU334     -0.1979
    110  CA       -15.1050   -5.1650   16.5250 C.3   334  LEU334      0.1596
    111  C        -15.0430   -6.6800   16.5740 C.2   334  LEU334      0.2287
    112  O        -15.8010   -7.3300   17.2910 O.2   334  LEU334     -0.2864
    113  CB       -16.5450   -4.7570   16.2220 C.3   334  LEU334      0.0297
    114  CG       -16.7850   -3.2620   16.2340 C.3   334  LEU334      0.0022
    115  CD1      -18.0240   -2.9350   15.4360 C.3   334  LEU334      0.0001
    116  CD2      -16.8950   -2.7940   17.6670 C.3   334  LEU334      0.0001
@<TRIPOS>BOND
     1    99    97   ar
     2    99   100   ar
     3    97    94   ar
     4    87    88    1
     5   100    98   ar
     6    33    34    1
     7    88    91    1
     8    88    89    1
     9    94    92   ar
    10    94    96   ar
    11    91    92    1
    12    34    35    1
    13    34    37    1
    14    98    96   ar
    15    92    93   ar
    16     1     2    1
    17    36    35    2
    18    96    95   ar
    19    43    45   ar
    20    43    40   ar
    21    89    90    2
    22     2     3    1
    23     2     5    1
    24    37    38    1
    25    45    46   ar
    26     3     4    2
    27     7     5    1
    28    20    21   ar
    29    20    18   ar
    30    93    95   ar
    31    40    38   ar
    32    40    42   ar
    33    21    19   ar
    34    38    39   ar
    35     5     6    1
    36    46    44   ar
    37   108   106   ar
    38    18    15   ar
    39    42    44   ar
    40    42    41   ar
    41    19    17   ar
    42    39    41   ar
    43   101   102    1
    44    55    57   ar
    45    55    53   ar
    46     8     9    1
    47   106   107   ar
    48   106   105    1
    49    15    17   ar
    50    15    13   ar
    51    57    56   ar
    52    17    16   ar
    53    53    52   ar
    54   102   105    1
    55   102   103    1
    56     9    12    1
    57     9    10    1
    58   115   114    1
    59    13    12    1
    60    13    14   ar
    61   109   103   am
    62   109   110    1
    63    56    54   ar
    64    16    14   ar
    65    47    48    1
    66   103   104    2
    67    52    54   ar
    68    52    51    1
    69   113   114    1
    70   113   110    1
    71   114   116    1
    72    10    11    2
    73   110   111    1
    74   111   112    2
    75    50    49    2
    76    51    48    1
    77    48    49    1
    78    32    30    1
    79    31    30    1
    80    86    84    1
    81    30    29    2
    82    29    28    1
    83    84    83    1
    84    85    83    1
    85    27    28    1
    86    27    26    1
    87    83    80    1
    88    73    71   ar
    89    73    74   ar
    90    22    23    1
    91    71    70   ar
    92    26    23    1
    93    74    76   ar
    94    74    72   ar
    95    76    78   ar
    96    64    62    1
    97    80    81    1
    98    80    79    1
    99    70    72   ar
   100    70    69    1
   101    23    24    1
   102    72    75   ar
   103    78    77   ar
   104    62    59    1
   105    62    63    1
   106    81    82    2
   107    69    66    1
   108    25    24    2
   109    61    60    2
   110    59    60    1
   111    59    58    1
   112    75    77   ar
   113    66    67    1
   114    66    65    1
   115    68    67    2
