@<TRIPOS>MOLECULE
tmp/4nsdB01.pdb
 110 102 0 0 0
SMALL
GASTEIGER

@<TRIPOS>ATOM
      1  N         30.8080  -27.5470  -42.9720 N.3    36  VAL36      -0.1245
      2  CA        30.7790  -27.8260  -41.5420 C.3    36  VAL36       0.1561
      3  C         32.1550  -27.6880  -40.8920 C.2    36  VAL36       0.2260
      4  O         32.2700  -27.1920  -39.7760 O.2    36  VAL36      -0.2867
      5  CB        30.2090  -29.2300  -41.2370 C.3    36  VAL36       0.0252
      6  CG1       30.1710  -29.4740  -39.7290 C.3    36  VAL36       0.0019
      7  CG2       28.8260  -29.3750  -41.8250 C.3    36  VAL36       0.0019
      8  N         32.9690  -24.0350  -40.1710 N.3    39  ILE39      -0.1231
      9  CA        32.3750  -23.4200  -38.9910 C.3    39  ILE39       0.1692
     10  C         32.7370  -24.1590  -37.6950 C.2    39  ILE39       0.2592
     11  O         31.9960  -24.0890  -36.7250 O.2    39  ILE39      -0.2718
     12  CB        30.8330  -23.2530  -39.1280 C.3    39  ILE39       0.0266
     13  CG1       30.1240  -24.5960  -39.1130 C.3    39  ILE39       0.0019
     14  CG2       30.4490  -22.4840  -40.4220 C.3    39  ILE39       0.0020
     15  CD1       28.7700  -24.5020  -39.7340 C.3    39  ILE39       0.0001
     16  N         33.8870  -24.8430  -37.6940 N.am   40  THR40      -0.1953
     17  CA        34.3720  -25.6260  -36.5460 C.3    40  THR40       0.1897
     18  C         35.8340  -26.0920  -36.6650 C.2    40  THR40       0.2313
     19  O         36.1970  -26.7760  -37.6230 O.2    40  THR40      -0.2863
     20  CB        33.5400  -26.8870  -36.3460 C.3    40  THR40       0.1794
     21  OG1       32.3100  -26.5500  -35.7060 O.3    40  THR40      -0.2208
     22  CG2       34.2940  -27.8710  -35.4720 C.3    40  THR40       0.0378
     23  N         22.9700  -18.8030  -40.2960 N.3    78  LEU78      -0.1245
     24  CA        23.3520  -19.6180  -39.1490 C.3    78  LEU78       0.1561
     25  C         23.7360  -18.7810  -37.9350 C.2    78  LEU78       0.2260
     26  O         23.5900  -19.2260  -36.7890 O.2    78  LEU78      -0.2867
     27  CB        24.5040  -20.5530  -39.5130 C.3    78  LEU78       0.0270
     28  CG        24.1670  -21.8980  -40.1500 C.3    78  LEU78       0.0019
     29  CD1       25.4300  -22.6680  -40.4370 C.3    78  LEU78       0.0001
     30  CD2       23.2470  -22.7150  -39.2610 C.3    78  LEU78       0.0001
     31  N         20.0150  -25.7700  -39.6600 N.3   145  GLN145     -0.1245
     32  CA        20.6420  -26.0540  -38.3770 C.3   145  GLN145      0.1566
     33  C         20.6150  -27.5300  -38.0590 C.2   145  GLN145      0.2260
     34  O         21.4930  -28.0380  -37.3840 O.2   145  GLN145     -0.2867
     35  CB        19.9320  -25.3130  -37.2660 C.3   145  GLN145      0.0367
     36  CG        20.3590  -23.8810  -37.0970 C.3   145  GLN145      0.0905
     37  CD        19.4550  -23.1580  -36.1170 C.2   145  GLN145      0.2608
     38  OE1       18.3220  -23.5930  -35.8610 O.2   145  GLN145     -0.2717
     39  NE2       19.9420  -22.0520  -35.5640 N.am  145  GLN145     -0.0878
     40  N         23.1730  -29.2960  -40.6870 N.3   148  VAL148     -0.1231
     41  CA        24.5210  -29.0570  -40.2220 C.3   148  VAL148      0.1692
     42  C         24.8280  -29.9120  -39.0020 C.2   148  VAL148      0.2591
     43  O         25.7930  -30.6610  -38.9790 O.2   148  VAL148     -0.2718
     44  CB        24.7170  -27.5810  -39.8360 C.3   148  VAL148      0.0266
     45  CG1       26.0430  -27.4020  -39.0810 C.3   148  VAL148      0.0020
     46  CG2       24.6420  -26.7010  -41.0710 C.3   148  VAL148      0.0020
     47  N         23.9990  -29.7890  -37.9770 N.am  149  LEU149     -0.1980
     48  CA        24.2280  -30.5100  -36.7390 C.3   149  LEU149      0.1596
     49  C         24.3710  -32.0040  -37.0360 C.2   149  LEU149      0.2287
     50  O         25.2020  -32.6900  -36.4500 O.2   149  LEU149     -0.2864
     51  CB        23.0940  -30.2300  -35.7500 C.3   149  LEU149      0.0297
     52  CG        23.3860  -30.5450  -34.2930 C.3   149  LEU149      0.0022
     53  CD1       22.7010  -31.8420  -33.8900 C.3   149  LEU149      0.0001
     54  CD2       24.9010  -30.6200  -34.1060 C.3   149  LEU149      0.0001
     55  N         27.8830  -32.4420  -38.4520 N.3   152  GLU152     -0.1245
     56  CA        28.8760  -32.3710  -37.3920 C.3   152  GLU152      0.1567
     57  C         28.8980  -33.6740  -36.6270 C.2   152  GLU152      0.2260
     58  O         29.9210  -34.0720  -36.0830 O.2   152  GLU152     -0.2867
     59  CB        28.5850  -31.2360  -36.4320 C.3   152  GLU152      0.0388
     60  CG        29.4800  -31.2550  -35.2040 C.3   152  GLU152      0.1160
     61  CD        30.9250  -30.8720  -35.4900 C.2   152  GLU152      0.3649
     62  OE1       31.6920  -30.6690  -34.5200 O.co2 152  GLU152     -0.2457
     63  OE2       31.2990  -30.7690  -36.6700 O.co2 152  GLU152     -0.2457
     64  N         31.9330  -31.5610  -28.6540 N.3   171  MET171     -0.1245
     65  CA        30.9860  -30.6640  -29.3040 C.3   171  MET171      0.1570
     66  C         30.5420  -29.5190  -28.3920 C.2   171  MET171      0.2261
     67  O         30.4290  -28.3730  -28.8430 O.2   171  MET171     -0.2867
     68  CB        29.7720  -31.4500  -29.7880 C.3   171  MET171      0.0387
     69  CG        30.1490  -32.6810  -30.5810 C.3   171  MET171      0.0595
     70  SD        28.7670  -33.4660  -31.4150 S.3   171  MET171     -0.1393
     71  CE        28.1490  -32.1120  -32.4090 C.3   171  MET171      0.0692
     72  N         33.7080  -27.1940  -28.0230 N.3   174  ALA174     -0.1231
     73  CA        33.8160  -26.5190  -29.3000 C.3   174  ALA174      0.1694
     74  C         32.8050  -25.3870  -29.3140 C.2   174  ALA174      0.2592
     75  O         33.1760  -24.2180  -29.2440 O.2   174  ALA174     -0.2718
     76  CB        33.5610  -27.4920  -30.4510 C.3   174  ALA174      0.0304
     77  N         31.5260  -25.7480  -29.3630 N.am  175  TYR175     -0.1976
     78  CA        30.4270  -24.7770  -29.4400 C.3   175  TYR175      0.1639
     79  C         30.4930  -23.6360  -28.4020 C.2   175  TYR175      0.2290
     80  O         30.2630  -22.4720  -28.7470 O.2   175  TYR175     -0.2864
     81  CB        29.0680  -25.5000  -29.3910 C.3   175  TYR175      0.0560
     82  CG        27.8720  -24.5870  -29.2740 C.ar  175  TYR175     -0.0198
     83  CD1       27.1640  -24.1830  -30.4030 C.ar  175  TYR175     -0.0009
     84  CD2       27.4440  -24.1240  -28.0310 C.ar  175  TYR175     -0.0009
     85  CE1       26.0570  -23.3330  -30.2970 C.ar  175  TYR175      0.0417
     86  CE2       26.3460  -23.2760  -27.9160 C.ar  175  TYR175      0.0417
     87  CZ        25.6540  -22.8850  -29.0490 C.ar  175  TYR175      0.1957
     88  OH        24.5590  -22.0480  -28.9350 O.3   175  TYR175     -0.2866
     89  N         21.2410  -29.4460  -28.2200 N.3   209  PHE209     -0.1241
     90  CA        21.5360  -28.2070  -28.9410 C.3   209  PHE209      0.1605
     91  C         20.2910  -27.3560  -29.1520 C.2   209  PHE209      0.2264
     92  O         20.3810  -26.1330  -29.1840 O.2   209  PHE209     -0.2867
     93  CB        22.2810  -28.4640  -30.2520 C.3   209  PHE209      0.0534
     94  CG        23.7560  -28.6510  -30.0630 C.ar  209  PHE209     -0.0203
     95  CD1       24.2740  -29.9000  -29.7360 C.ar  209  PHE209     -0.0042
     96  CD2       24.6250  -27.5700  -30.1620 C.ar  209  PHE209     -0.0042
     97  CE1       25.6340  -30.0760  -29.5310 C.ar  209  PHE209     -0.0003
     98  CE2       25.9840  -27.7360  -29.9540 C.ar  209  PHE209     -0.0003
     99  CZ        26.4930  -28.9940  -29.6370 C.ar  209  PHE209     -0.0000
    100  N         27.9570  -17.6810  -25.9780 N.3   281  ARG281     -0.1245
    101  CA        28.1410  -18.2880  -27.2930 C.3   281  ARG281      0.1563
    102  C         27.2220  -17.6070  -28.2980 C.2   281  ARG281      0.2260
    103  O         27.6680  -17.1770  -29.3580 O.2   281  ARG281     -0.2867
    104  CB        27.8680  -19.7940  -27.2530 C.3   281  ARG281      0.0307
    105  CG        28.2570  -20.5420  -28.5330 C.3   281  ARG281      0.0489
    106  CD        28.8810  -19.6150  -29.5720 C.3   281  ARG281      0.2205
    107  NE        29.3620  -20.3350  -30.7490 N.pl3 281  ARG281     -0.0865
    108  CZ        28.6180  -20.6440  -31.8090 C.cat 281  ARG281      0.5346
    109  NH1       27.3360  -20.3040  -31.8500 N.pl3 281  ARG281      0.1354
    110  NH2       29.1570  -21.3020  -32.8320 N.pl3 281  ARG281      0.1354
@<TRIPOS>BOND
     1     1     2    1
     2     7     5    1
     3     2     5    1
     4     2     3    1
     5     5     6    1
     6    46    44    1
     7     3     4    2
     8    40    41    1
     9    29    28    1
    10    14    12    1
    11    23    24    1
    12    41    44    1
    13    41    42    1
    14     8     9    1
    15    28    27    1
    16    28    30    1
    17    44    45    1
    18    15    13    1
    19    31    32    1
    20    27    24    1
    21    24    25    1
    22    12    13    1
    23    12     9    1
    24    42    43    2
    25    42    47   am
    26     9    10    1
    27    55    56    1
    28    32    33    1
    29    32    35    1
    30    33    34    2
    31    47    48    1
    32    25    26    2
    33    10    16   am
    34    10    11    2
    35    16    17    1
    36    19    18    2
    37    56    57    1
    38    56    59    1
    39    35    36    1
    40    36    37    1
    41    49    48    1
    42    49    50    2
    43    48    51    1
    44    63    61   ar
    45    18    17    1
    46    57    58    2
    47    17    20    1
    48    59    60    1
    49    20    21    1
    50    20    22    1
    51    37    38    2
    52    37    39   am
    53    51    52    1
    54    61    60    1
    55    61    62   ar
    56    52    54    1
    57    52    53    1
    58   110   108    1
    59    71    70    1
    60   109   108    1
    61   108   107    2
    62    70    69    1
    63   107   106    1
    64    69    68    1
    65    76    73    1
    66    83    85   ar
    67    83    82   ar
    68    85    87   ar
    69    93    94    1
    70    93    90    1
    71    96    94   ar
    72    96    98   ar
    73    94    95   ar
    74    98    99   ar
    75    68    65    1
    76    95    97   ar
    77    99    97   ar
    78   106   105    1
    79    78    81    1
    80    78    77    1
    81    78    79    1
    82    81    82    1
    83    77    74   am
    84   103   102    2
    85    74    73    1
    86    74    75    2
    87    65    64    1
    88    65    66    1
    89    73    72    1
    90    82    84   ar
    91    92    91    2
    92    91    90    1
    93    87    88    1
    94    87    86   ar
    95    90    89    1
    96    67    66    2
    97    80    79    2
    98   105   104    1
    99   102   101    1
   100    84    86   ar
   101   101   104    1
   102   101   100    1
