@<TRIPOS>MOLECULE
tmp/4nsdB00.pdb
 117 111 0 0 0
SMALL
GASTEIGER

@<TRIPOS>ATOM
      1  N         25.4560  -16.3490  -42.8830 N.3    76  THR76      -0.1218
      2  CA        24.5710  -15.2790  -42.4290 C.3    76  THR76       0.1862
      3  C         23.3880  -15.8520  -41.6510 C.2    76  THR76       0.2287
      4  O         23.1470  -15.4570  -40.5130 O.2    76  THR76      -0.2866
      5  CB        24.0340  -14.4400  -43.6220 C.3    76  THR76       0.1770
      6  OG1       25.0180  -13.4730  -44.0130 O.3    76  THR76      -0.2211
      7  CG2       22.7370  -13.7210  -43.2480 C.3    76  THR76       0.0375
      8  N         22.5660  -15.7150  -37.2210 N.3    80  THR80      -0.1218
      9  CA        21.5290  -14.7630  -36.8360 C.3    80  THR80       0.1862
     10  C         20.5610  -15.4510  -35.8890 C.2    80  THR80       0.2287
     11  O         19.7440  -16.2570  -36.3260 O.2    80  THR80      -0.2866
     12  CB        20.7380  -14.2710  -38.0480 C.3    80  THR80       0.1770
     13  OG1       21.5990  -13.5150  -38.9050 O.3    80  THR80      -0.2211
     14  CG2       19.5930  -13.3970  -37.5950 C.3    80  THR80       0.0375
     15  N         16.8080  -11.7990  -35.3550 N.3    85  PHE85      -0.1241
     16  CA        16.1520  -11.7080  -36.6410 C.3    85  PHE85       0.1605
     17  C         14.8030  -10.9920  -36.5040 C.2    85  PHE85       0.2264
     18  O         14.4990  -10.0730  -37.2660 O.2    85  PHE85      -0.2867
     19  CB        15.9580  -13.0860  -37.2580 C.3    85  PHE85       0.0534
     20  CG        15.3290  -13.0390  -38.6130 C.ar   85  PHE85      -0.0203
     21  CD1       16.0740  -12.6750  -39.7230 C.ar   85  PHE85      -0.0042
     22  CD2       13.9900  -13.3340  -38.7820 C.ar   85  PHE85      -0.0042
     23  CE1       15.4960  -12.6220  -40.9780 C.ar   85  PHE85      -0.0003
     24  CE2       13.4110  -13.2770  -40.0340 C.ar   85  PHE85      -0.0003
     25  CZ        14.1680  -12.9230  -41.1300 C.ar   85  PHE85      -0.0000
     26  N         15.3550   -7.2490  -36.1270 N.3    88  ALA88      -0.1231
     27  CA        15.9770   -6.7660  -37.3500 C.3    88  ALA88       0.1694
     28  C         14.8900   -6.7000  -38.3970 C.2    88  ALA88       0.2592
     29  O         14.7760   -5.7370  -39.1450 O.2    88  ALA88      -0.2718
     30  CB        17.1240   -7.7000  -37.8060 C.3    88  ALA88       0.0304
     31  N         14.0610   -7.7270  -38.4130 N.am   89  PHE89      -0.1976
     32  CA        13.0430   -7.8450  -39.4350 C.3    89  PHE89       0.1639
     33  C         12.0260   -6.7180  -39.3350 C.2    89  PHE89       0.2290
     34  O         11.7490   -6.0070  -40.3080 O.2    89  PHE89      -0.2864
     35  CB        12.3450   -9.1960  -39.3170 C.3    89  PHE89       0.0560
     36  CG        11.4040   -9.4680  -40.4290 C.ar   89  PHE89      -0.0200
     37  CD1       11.8370  -10.1200  -41.5700 C.ar   89  PHE89      -0.0042
     38  CD2       10.0780   -9.0470  -40.3550 C.ar   89  PHE89      -0.0042
     39  CE1       10.9540  -10.3650  -42.6240 C.ar   89  PHE89      -0.0003
     40  CE2        9.1920   -9.2870  -41.4070 C.ar   89  PHE89      -0.0003
     41  CZ         9.6310   -9.9470  -42.5410 C.ar   89  PHE89      -0.0000
     42  N         13.4750   -3.4800  -40.6390 N.3    92  PHE92      -0.1241
     43  CA        13.6160   -3.5490  -42.0930 C.3    92  PHE92       0.1605
     44  C         12.2870   -3.4220  -42.8140 C.2    92  PHE92       0.2264
     45  O         12.2200   -2.8410  -43.8900 O.2    92  PHE92      -0.2867
     46  CB        14.2550   -4.8800  -42.5060 C.3    92  PHE92       0.0534
     47  CG        15.7180   -4.7800  -42.8060 C.ar   92  PHE92      -0.0203
     48  CD1       16.6520   -4.8690  -41.7910 C.ar   92  PHE92      -0.0042
     49  CD2       16.1590   -4.5970  -44.1080 C.ar   92  PHE92      -0.0042
     50  CE1       17.9980   -4.7840  -42.0640 C.ar   92  PHE92      -0.0003
     51  CE2       17.5090   -4.5130  -44.3910 C.ar   92  PHE92      -0.0003
     52  CZ        18.4300   -4.6070  -43.3670 C.ar   92  PHE92      -0.0000
     53  N          9.4310   -8.5380  -46.1340 N.3   100  VAL100     -0.1245
     54  CA        10.4800   -7.6260  -46.5490 C.3   100  VAL100      0.1561
     55  C         10.7660   -7.8710  -48.0120 C.2   100  VAL100      0.2260
     56  O         10.8140   -9.0160  -48.4570 O.2   100  VAL100     -0.2867
     57  CB        11.7610   -7.8230  -45.7430 C.3   100  VAL100      0.0252
     58  CG1       12.8890   -7.0610  -46.3990 C.3   100  VAL100      0.0019
     59  CG2       11.5450   -7.3820  -44.2810 C.3   100  VAL100      0.0019
     60  N         14.6350   -3.6740  -48.3330 N.3   105  PHE105     -0.1241
     61  CA        16.0080   -4.0660  -48.0670 C.3   105  PHE105      0.1605
     62  C         17.0170   -2.9580  -48.3940 C.2   105  PHE105      0.2264
     63  O         17.8410   -2.5770  -47.5570 O.2   105  PHE105     -0.2867
     64  CB        16.3450   -5.3170  -48.8710 C.3   105  PHE105      0.0534
     65  CG        17.5930   -5.9940  -48.4220 C.ar  105  PHE105     -0.0203
     66  CD1       17.5630   -6.8980  -47.3820 C.ar  105  PHE105     -0.0042
     67  CD2       18.8030   -5.7180  -49.0330 C.ar  105  PHE105     -0.0042
     68  CE1       18.7190   -7.5220  -46.9640 C.ar  105  PHE105     -0.0003
     69  CE2       19.9650   -6.3420  -48.6180 C.ar  105  PHE105     -0.0003
     70  CZ        19.9210   -7.2450  -47.5850 C.ar  105  PHE105     -0.0000
     71  N         19.3010   -0.7960  -46.1620 N.3   109  GLN109     -0.1245
     72  CA        20.7240   -1.0990  -46.2430 C.3   109  GLN109      0.1566
     73  C         21.5610    0.1780  -46.3800 C.2   109  GLN109      0.2260
     74  O         22.6040    0.3070  -45.7410 O.2   109  GLN109     -0.2867
     75  CB        21.0030   -2.0610  -47.3940 C.3   109  GLN109      0.0367
     76  CG        22.1320   -3.0270  -47.1080 C.3   109  GLN109      0.0905
     77  CD        22.1040   -3.5620  -45.6750 C.2   109  GLN109      0.2608
     78  OE1       22.7580   -3.0130  -44.7840 O.2   109  GLN109     -0.2717
     79  NE2       21.3560   -4.6420  -45.4540 N.am  109  GLN109     -0.0878
     80  N         23.0920  -11.7460  -50.6800 N.3   119  LEU119     -0.1245
     81  CA        21.8940  -12.2540  -50.0200 C.3   119  LEU119      0.1561
     82  C         20.6080  -11.9800  -50.7980 C.2   119  LEU119      0.2260
     83  O         19.6610  -12.7650  -50.7340 O.2   119  LEU119     -0.2867
     84  CB        21.7690  -11.6460  -48.6270 C.3   119  LEU119      0.0270
     85  CG        22.9920  -11.7710  -47.7250 C.3   119  LEU119      0.0019
     86  CD1       22.7400  -11.0280  -46.4350 C.3   119  LEU119      0.0001
     87  CD2       23.3060  -13.2370  -47.4620 C.3   119  LEU119      0.0001
     88  N         17.1060  -14.0940  -50.2880 N.3   123  PHE123     -0.1241
     89  CA        15.9960  -13.4370  -49.6210 C.3   123  PHE123      0.1605
     90  C         14.7990  -13.1660  -50.5270 C.2   123  PHE123      0.2264
     91  O         13.6610  -13.1860  -50.0580 O.2   123  PHE123     -0.2867
     92  CB        16.4740  -12.1180  -49.0100 C.3   123  PHE123      0.0534
     93  CG        17.3820  -12.2940  -47.8310 C.ar  123  PHE123     -0.0203
     94  CD1       18.1950  -11.2590  -47.4050 C.ar  123  PHE123     -0.0042
     95  CD2       17.4210  -13.4960  -47.1420 C.ar  123  PHE123     -0.0042
     96  CE1       19.0290  -11.4180  -46.3040 C.ar  123  PHE123     -0.0003
     97  CE2       18.2560  -13.6620  -46.0410 C.ar  123  PHE123     -0.0003
     98  CZ        19.0560  -12.6240  -45.6260 C.ar  123  PHE123     -0.0000
     99  N         10.5820  -11.5950  -48.4070 N.3   132  LEU132     -0.1245
    100  CA        11.1100  -12.2660  -47.2180 C.3   132  LEU132      0.1561
    101  C         10.0780  -12.3530  -46.0760 C.2   132  LEU132      0.2260
    102  O          9.2480  -11.4540  -45.8880 O.2   132  LEU132     -0.2867
    103  CB        12.3740  -11.5370  -46.7430 C.3   132  LEU132      0.0270
    104  CG        13.5440  -12.2900  -46.1150 C.3   132  LEU132      0.0019
    105  CD1       14.1320  -11.4550  -44.9940 C.3   132  LEU132      0.0001
    106  CD2       13.1410  -13.6640  -45.6210 C.3   132  LEU132      0.0001
    107  N         11.8990  -17.6470  -42.9740 N.3   137  PHE137     -0.1241
    108  CA        13.2850  -17.5560  -42.5810 C.3   137  PHE137      0.1605
    109  C         13.5670  -18.5900  -41.5080 C.2   137  PHE137      0.2264
    110  O         14.5660  -19.3150  -41.5770 O.2   137  PHE137     -0.2867
    111  CB        13.6420  -16.1500  -42.1000 C.3   137  PHE137      0.0534
    112  CG        15.0720  -16.0160  -41.6880 C.ar  137  PHE137     -0.0203
    113  CD1       16.0390  -15.6470  -42.6070 C.ar  137  PHE137     -0.0042
    114  CD2       15.4630  -16.3100  -40.3890 C.ar  137  PHE137     -0.0042
    115  CE1       17.3670  -15.5500  -42.2340 C.ar  137  PHE137     -0.0003
    116  CE2       16.7760  -16.2110  -40.0080 C.ar  137  PHE137     -0.0003
    117  CZ        17.7340  -15.8320  -40.9370 C.ar  137  PHE137     -0.0000
@<TRIPOS>BOND
     1    82    83    2
     2    82    81    1
     3    80    81    1
     4    90    91    2
     5    90    89    1
     6    88    89    1
     7    81    84    1
     8    89    92    1
     9    67    69   ar
    10    67    65   ar
    11    92    93    1
    12    64    65    1
    13    64    61    1
    14    84    85    1
    15    69    70   ar
    16    56    55    2
    17    65    66   ar
    18    99   100    1
    19    62    61    1
    20    62    63    2
    21    60    61    1
    22    55    54    1
    23    93    94   ar
    24    93    95   ar
    25    85    87    1
    26    85    86    1
    27    70    68   ar
    28    94    96   ar
    29    75    76    1
    30    75    72    1
    31    66    68   ar
    32   100   103    1
    33   100   101    1
    34    95    97   ar
    35    76    77    1
    36   103   104    1
    37    54    53    1
    38    54    57    1
    39    58    57    1
    40    73    72    1
    41    73    74    2
    42    96    98   ar
    43    72    71    1
    44   104   106    1
    45   104   105    1
    46   101   102    2
    47    97    98   ar
    48    57    59    1
    49    77    79   am
    50    77    78    2
    51    51    49   ar
    52    51    52   ar
    53    49    47   ar
    54     6     5    1
    55    45    44    2
    56     5     7    1
    57     5     2    1
    58    52    50   ar
    59   107   108    1
    60     1     2    1
    61    44    43    1
    62    47    46    1
    63    47    48   ar
    64    39    41   ar
    65    39    37   ar
    66   113   115   ar
    67   113   112   ar
    68   108   111    1
    69   108   109    1
    70    41    40   ar
    71    46    43    1
    72     2     3    1
    73   115   117   ar
    74   111   112    1
    75    43    42    1
    76    50    48   ar
    77   112   114   ar
    78     3     4    2
    79   110   109    2
    80    37    36   ar
    81    40    38   ar
    82    25    23   ar
    83    25    24   ar
    84    23    21   ar
    85   117   116   ar
    86    36    38   ar
    87    36    35    1
    88   114   116   ar
    89    34    33    2
    90    24    22   ar
    91    21    20   ar
    92    32    33    1
    93    32    35    1
    94    32    31    1
    95    29    28    2
    96    13    12    1
    97    22    20   ar
    98    20    19    1
    99    31    28   am
   100    28    27    1
   101    12    14    1
   102    12     9    1
   103    30    27    1
   104    27    26    1
   105    18    17    2
   106    19    16    1
   107     8     9    1
   108     9    10    1
   109    16    17    1
   110    16    15    1
   111    11    10    2
