@<TRIPOS>MOLECULE
tmp/4nsnC00.pdb
 84 78 0 0 0
SMALL
GASTEIGER

@<TRIPOS>ATOM
      1  N         45.5680   33.0970  -27.4140 N.3   110  ALA110     -0.1245
      2  CA        45.1750   32.0250  -28.2830 C.3   110  ALA110      0.1562
      3  C         43.7710   32.2980  -28.8370 C.2   110  ALA110      0.2260
      4  O         42.8100   32.5100  -28.0820 O.2   110  ALA110     -0.2867
      5  CB        45.2480   30.6920  -27.5570 C.3   110  ALA110      0.0290
      6  N         40.6380   31.4500  -32.0570 N.3   112  GLY112     -0.1225
      7  CA        40.0700   30.6170  -33.1120 C.3   112  GLY112      0.1811
      8  C         40.0050   31.3760  -34.4160 C.2   112  GLY112      0.2280
      9  O         39.5560   32.5130  -34.4630 O.2   112  GLY112     -0.2866
     10  N         34.5340   37.0520  -26.8070 N.3   178  LEU178     -0.1245
     11  CA        33.3660   36.3850  -26.2420 C.3   178  LEU178      0.1561
     12  C         33.6910   35.8440  -24.8510 C.2   178  LEU178      0.2260
     13  O         34.8370   35.6450  -24.5270 O.2   178  LEU178     -0.2867
     14  CB        32.8970   35.2450  -27.1400 C.3   178  LEU178      0.0270
     15  CG        31.6460   35.4480  -28.0060 C.3   178  LEU178      0.0019
     16  CD1       31.7840   36.5370  -29.0560 C.3   178  LEU178      0.0001
     17  CD2       31.3010   34.1110  -28.6490 C.3   178  LEU178      0.0001
     18  N         33.6090   26.4400  -26.1700 N.3   183  TYR183     -0.1227
     19  CA        33.9490   26.8750  -27.5240 C.3   183  TYR183      0.1736
     20  C         32.6530   27.1530  -28.3270 C.2   183  TYR183      0.2595
     21  O         31.5480   26.7880  -27.8940 O.2   183  TYR183     -0.2718
     22  CB        34.8080   25.8070  -28.2010 C.3   183  TYR183      0.0548
     23  CG        36.1800   25.6390  -27.5630 C.ar  183  TYR183     -0.0200
     24  CD1       37.1200   26.6700  -27.5920 C.ar  183  TYR183     -0.0009
     25  CD2       36.5200   24.4470  -26.9210 C.ar  183  TYR183     -0.0009
     26  CE1       38.3760   26.5230  -26.9950 C.ar  183  TYR183      0.0417
     27  CE2       37.7730   24.2810  -26.3460 C.ar  183  TYR183      0.0417
     28  CZ        38.6920   25.3090  -26.3800 C.ar  183  TYR183      0.1957
     29  OH        39.9210   25.1070  -25.7700 O.3   183  TYR183     -0.2866
     30  N         32.7770   27.8100  -29.4770 N.am  184  GLU184     -0.1979
     31  CA        31.6100   28.2400  -30.2560 C.3   184  GLU184      0.1602
     32  C         30.9880   27.1400  -31.0990 C.2   184  GLU184      0.2287
     33  O         31.6730   26.1980  -31.5210 O.2   184  GLU184     -0.2864
     34  CB        31.9590   29.4380  -31.1240 C.3   184  GLU184      0.0415
     35  CG        32.3460   30.6700  -30.3390 C.3   184  GLU184      0.1163
     36  CD        33.7130   30.5560  -29.6790 C.2   184  GLU184      0.3649
     37  OE1       33.8150   30.8980  -28.4950 O.co2 184  GLU184     -0.2457
     38  OE2       34.6860   30.1330  -30.3460 O.co2 184  GLU184     -0.2457
     39  N         30.3820   30.7130  -34.9760 N.3   189  TYR189     -0.1241
     40  CA        31.5520   30.9540  -35.8070 C.3   189  TYR189      0.1605
     41  C         31.1240   31.6820  -37.0920 C.2   189  TYR189      0.2264
     42  O         31.5600   32.8020  -37.3460 O.2   189  TYR189     -0.2867
     43  CB        32.3040   29.6510  -36.0890 C.3   189  TYR189      0.0534
     44  CG        33.2190   29.1300  -34.9710 C.ar  189  TYR189     -0.0201
     45  CD1       34.2230   29.9160  -34.4120 C.ar  189  TYR189     -0.0009
     46  CD2       33.0980   27.8080  -34.5200 C.ar  189  TYR189     -0.0009
     47  CE1       35.0540   29.4170  -33.4130 C.ar  189  TYR189      0.0417
     48  CE2       33.9310   27.2940  -33.5350 C.ar  189  TYR189      0.0417
     49  CZ        34.9010   28.0920  -32.9850 C.ar  189  TYR189      0.1957
     50  OH        35.7240   27.5750  -31.9960 O.3   189  TYR189     -0.2866
     51  N         38.5360   34.6220  -32.9170 N.3   200  ILE200     -0.1231
     52  CA        37.6780   34.6760  -31.7140 C.3   200  ILE200      0.1692
     53  C         38.4290   34.1200  -30.5150 C.2   200  ILE200      0.2592
     54  O         39.0860   33.0630  -30.5900 O.2   200  ILE200     -0.2718
     55  CB        36.3760   33.8690  -31.8480 C.3   200  ILE200      0.0266
     56  CG1       35.5380   34.3140  -33.0360 C.3   200  ILE200      0.0019
     57  CG2       35.5150   34.0280  -30.5930 C.3   200  ILE200      0.0020
     58  CD1       34.0490   34.1990  -32.7780 C.3   200  ILE200      0.0001
     59  N         38.2890   34.7880  -29.3890 N.am  201  GLY201     -0.1957
     60  CA        38.8340   34.2470  -28.1530 C.3   201  GLY201      0.1869
     61  C         38.0700   34.7290  -26.9330 C.2   201  GLY201      0.2309
     62  O         37.0200   35.3350  -27.0640 O.2   201  GLY201     -0.2863
     63  N         44.9380   29.0220  -33.0470 N.3   223  THR223     -0.1203
     64  CA        45.1570   27.6960  -32.4880 C.3   223  THR223      0.1994
     65  C         44.1970   26.6190  -32.9790 C.2   223  THR223      0.2617
     66  O         44.3100   25.4450  -32.6090 O.2   223  THR223     -0.2717
     67  CB        45.0620   27.7730  -30.9570 C.3   223  THR223      0.1784
     68  OG1       43.9100   28.5530  -30.6200 O.3   223  THR223     -0.2211
     69  CG2       46.2720   28.4660  -30.4170 C.3   223  THR223      0.0376
     70  N         43.2600   27.0180  -33.8240 N.am  224  ASN224     -0.1974
     71  CA        42.2250   26.1340  -34.3320 C.3   224  ASN224      0.1688
     72  C         41.4730   26.9010  -35.3860 C.2   224  ASN224      0.2292
     73  O         41.5010   28.1380  -35.4100 O.2   224  ASN224     -0.2864
     74  CB        41.2460   25.6780  -33.2280 C.3   224  ASN224      0.1181
     75  CG        40.6030   26.8470  -32.4760 C.2   224  ASN224      0.2629
     76  OD1       39.4470   27.1920  -32.7180 O.2   224  ASN224     -0.2716
     77  ND2       41.3530   27.4550  -31.5700 N.am  224  ASN224     -0.0877
     78  N         44.8280   23.4800  -28.2090 N.3   240  VAL240     -0.1245
     79  CA        44.9880   24.9040  -28.2990 C.3   240  VAL240      0.1561
     80  C         46.3300   25.2710  -27.6680 C.2   240  VAL240      0.2260
     81  O         47.1300   26.0020  -28.2720 O.2   240  VAL240     -0.2867
     82  CB        43.7990   25.6550  -27.6460 C.3   240  VAL240      0.0252
     83  CG1       44.1590   27.1100  -27.3970 C.3   240  VAL240      0.0019
     84  CG2       42.5680   25.5800  -28.5540 C.3   240  VAL240      0.0019
@<TRIPOS>BOND
     1    42    41    2
     2    41    40    1
     3    43    40    1
     4    43    44    1
     5    40    39    1
     6    73    72    2
     7    72    71    1
     8    44    46   ar
     9    44    45   ar
    10    46    48   ar
    11     9     8    2
    12     8     7    1
    13    45    47   ar
    14    71    70    1
    15    71    74    1
    16    70    65   am
    17    48    49   ar
    18    47    49   ar
    19    74    75    1
    20     7     6    1
    21    63    64    1
    22    56    58    1
    23    56    55    1
    24    49    50    1
    25    65    66    2
    26    65    64    1
    27    51    52    1
    28    76    75    2
    29    64    67    1
    30    75    77   am
    31    55    52    1
    32    55    57    1
    33    52    53    1
    34    33    32    2
    35    34    35    1
    36    34    31    1
    37    32    31    1
    38    67    68    1
    39    67    69    1
    40    54    53    2
    41    53    59   am
    42    38    36   ar
    43    35    36    1
    44    31    30    1
    45    36    37   ar
    46    30    20   am
    47    59    60    1
    48    16    15    1
    49     3     2    1
    50     3     4    2
    51    17    15    1
    52    84    82    1
    53    20    21    2
    54    20    19    1
    55    79    78    1
    56    79    80    1
    57    79    82    1
    58     2     5    1
    59     2     1    1
    60    81    80    2
    61    22    23    1
    62    22    19    1
    63    60    61    1
    64    15    14    1
    65    82    83    1
    66    24    23   ar
    67    24    26   ar
    68    23    25   ar
    69    19    18    1
    70    14    11    1
    71    62    61    2
    72    26    28   ar
    73    25    27   ar
    74    10    11    1
    75    28    27   ar
    76    28    29    1
    77    11    12    1
    78    12    13    2
