@<TRIPOS>MOLECULE
tmp/4nsxA00.pdb
 111 108 0 0 0
SMALL
GASTEIGER

@<TRIPOS>ATOM
      1  N         36.1840   23.2730   19.9120 N.3    25  LEU25      -0.1245
      2  CA        37.0800   22.6350   18.9570 C.3    25  LEU25       0.1561
      3  C         38.4940   23.1350   19.2150 C.2    25  LEU25       0.2260
      4  O         38.9520   24.0720   18.5620 O.2    25  LEU25      -0.2867
      5  CB        36.6560   23.0060   17.5350 C.3    25  LEU25       0.0270
      6  CG        37.0390   22.1690   16.3100 C.3    25  LEU25       0.0019
      7  CD1       36.5180   22.8860   15.0870 C.3    25  LEU25       0.0001
      8  CD2       38.5370   21.9310   16.1750 C.3    25  LEU25       0.0001
      9  N         32.7900   24.5830   17.0200 N.3    30  TYR30      -0.1241
     10  CA        32.1240   23.8980   15.9200 C.3    30  TYR30       0.1605
     11  C         30.6110   24.0710   15.9970 C.2    30  TYR30       0.2264
     12  O         30.0510   24.2910   17.0750 O.2    30  TYR30      -0.2867
     13  CB        32.5160   22.4140   15.8500 C.3    30  TYR30       0.0534
     14  CG        32.0820   21.5690   17.0300 C.ar   30  TYR30      -0.0201
     15  CD1       30.8120   21.0090   17.0810 C.ar   30  TYR30      -0.0009
     16  CD2       32.9520   21.3070   18.0800 C.ar   30  TYR30      -0.0009
     17  CE1       30.4160   20.2270   18.1540 C.ar   30  TYR30       0.0417
     18  CE2       32.5640   20.5250   19.1550 C.ar   30  TYR30       0.0417
     19  CZ        31.2970   19.9890   19.1880 C.ar   30  TYR30       0.1957
     20  OH        30.9100   19.2120   20.2570 O.3    30  TYR30      -0.2866
     21  N         23.3230   14.6120   11.0760 N.3    39  PHE39      -0.1241
     22  CA        23.8200   15.9320   11.4520 C.3    39  PHE39       0.1605
     23  C         25.1570   16.2360   10.7840 C.2    39  PHE39       0.2264
     24  O         25.9050   15.3260   10.4340 O.2    39  PHE39      -0.2867
     25  CB        23.8970   16.1100   12.9810 C.3    39  PHE39       0.0534
     26  CG        24.8370   15.1560   13.6710 C.ar   39  PHE39      -0.0203
     27  CD1       24.3530   14.0210   14.3000 C.ar   39  PHE39      -0.0042
     28  CD2       26.2010   15.4040   13.7070 C.ar   39  PHE39      -0.0042
     29  CE1       25.2120   13.1460   14.9440 C.ar   39  PHE39      -0.0003
     30  CE2       27.0630   14.5320   14.3490 C.ar   39  PHE39      -0.0003
     31  CZ        26.5680   13.4020   14.9670 C.ar   39  PHE39      -0.0000
     32  N         28.7600   18.8240   10.9250 N.3    41  ILE41      -0.1245
     33  CA        29.5940   19.6420   11.7970 C.3    41  ILE41       0.1561
     34  C         30.5370   20.5330   10.9970 C.2    41  ILE41       0.2260
     35  O         31.3680   20.0410   10.2220 O.2    41  ILE41      -0.2867
     36  CB        30.4190   18.7700   12.7530 C.3    41  ILE41       0.0252
     37  CG1       29.4850   17.9470   13.6410 C.3    41  ILE41       0.0019
     38  CG2       31.3490   19.6370   13.5980 C.3    41  ILE41       0.0019
     39  CD1       30.1500   16.7730   14.3080 C.3    41  ILE41       0.0001
     40  N         33.3710   19.8210    8.5660 N.3    50  LEU50      -0.1231
     41  CA        34.2900   18.9510    9.2820 C.3    50  LEU50       0.1693
     42  C         33.7800   17.5190    9.3300 C.2    50  LEU50       0.2592
     43  O         34.5210   16.5840    9.0310 O.2    50  LEU50      -0.2718
     44  CB        34.5250   19.4700   10.7000 C.3    50  LEU50       0.0284
     45  CG        35.2090   20.8310   10.8150 C.3    50  LEU50       0.0019
     46  CD1       35.3470   21.2110   12.2700 C.3    50  LEU50       0.0001
     47  CD2       36.5680   20.8120   10.1290 C.3    50  LEU50       0.0001
     48  N         32.5180   17.3390    9.7100 N.am   51  PHE51      -0.1976
     49  CA        31.9830   15.9820    9.8150 C.3    51  PHE51       0.1639
     50  C         30.5480   15.8490    9.3180 C.2    51  PHE51       0.2290
     51  O         29.8320   16.8330    9.1740 O.2    51  PHE51      -0.2864
     52  CB        32.0590   15.4710   11.2630 C.3    51  PHE51       0.0560
     53  CG        33.4470   15.4770   11.8400 C.ar   51  PHE51      -0.0200
     54  CD1       33.8950   16.5540   12.5870 C.ar   51  PHE51      -0.0042
     55  CD2       34.3030   14.4050   11.6380 C.ar   51  PHE51      -0.0042
     56  CE1       35.1720   16.5690   13.1160 C.ar   51  PHE51      -0.0003
     57  CE2       35.5820   14.4120   12.1670 C.ar   51  PHE51      -0.0003
     58  CZ        36.0150   15.4970   12.9100 C.ar   51  PHE51      -0.0000
     59  N         33.4870   17.6160   23.2610 N.3    69  HIS69      -0.1241
     60  CA        33.7030   16.9440   21.9880 C.3    69  HIS69       0.1621
     61  C         32.6230   15.9140   21.6610 C.2    69  HIS69       0.2264
     62  O         32.8110   15.0630   20.7930 O.2    69  HIS69      -0.2867
     63  CB        35.0890   16.2960   21.9560 C.3    69  HIS69       0.0745
     64  CG        36.2130   17.2850   21.9370 C.ar   69  HIS69       0.0817
     65  ND1       36.4970   18.0650   20.8360 N.ar   69  HIS69      -0.2268
     66  CD2       37.1220   17.6240   22.8830 C.ar   69  HIS69       0.1154
     67  CE1       37.5330   18.8410   21.1040 C.ar   69  HIS69       0.1986
     68  NE2       37.9300   18.5920   22.3400 N.ar   69  HIS69      -0.2212
     69  N         28.5110   15.0890   20.6180 N.3    71  VAL71      -0.1245
     70  CA        27.2340   15.5430   20.0960 C.3    71  VAL71       0.1561
     71  C         26.1180   14.6270   20.5920 C.2    71  VAL71       0.2260
     72  O         26.2280   13.4060   20.5350 O.2    71  VAL71      -0.2867
     73  CB        27.2380   15.5830   18.5550 C.3    71  VAL71       0.0252
     74  CG1       25.8290   15.8060   18.0150 C.3    71  VAL71       0.0019
     75  CG2       28.1740   16.6700   18.0650 C.3    71  VAL71       0.0019
     76  N         27.5490   10.8810   20.1800 N.3    82  TYR82      -0.1227
     77  CA        28.4580   10.7650   19.0480 C.3    82  TYR82       0.1736
     78  C         29.7570   11.5250   19.2740 C.2    82  TYR82       0.2595
     79  O         29.7740   12.5780   19.9110 O.2    82  TYR82      -0.2718
     80  CB        27.8110   11.3420   17.7850 C.3    82  TYR82       0.0548
     81  CG        26.5270   10.6830   17.3390 C.ar   82  TYR82      -0.0200
     82  CD1       26.5120    9.8270   16.2450 C.ar   82  TYR82      -0.0009
     83  CD2       25.3280   10.9360   17.9890 C.ar   82  TYR82      -0.0009
     84  CE1       25.3430    9.2280   15.8220 C.ar   82  TYR82       0.0417
     85  CE2       24.1530   10.3410   17.5740 C.ar   82  TYR82       0.0417
     86  CZ        24.1680    9.4880   16.4900 C.ar   82  TYR82       0.1957
     87  OH        23.0030    8.8910   16.0700 O.3    82  TYR82      -0.2866
     88  N         30.8410   10.9920   18.7230 N.am   83  LYS83      -0.1966
     89  CA        32.0900   11.7300   18.6160 C.3    83  LYS83       0.1728
     90  C         32.6510   11.5370   17.2130 C.2    83  LYS83       0.2616
     91  O         32.7870   10.4050   16.7470 O.2    83  LYS83      -0.2715
     92  CB        33.0980   11.2680   19.6690 C.3    83  LYS83       0.0311
     93  CG        34.3970   12.0610   19.6660 C.3    83  LYS83       0.0038
     94  CD        35.1760   11.8540   20.9590 C.3    83  LYS83       0.0206
     95  CE        36.5530   11.2690   20.6930 C.3    83  LYS83       0.1093
     96  NZ        37.2550   10.9100   21.9580 N.3    83  LYS83      -0.1314
     97  N         32.9580   12.6460   16.5450 N.am   84  ARG84      -0.1963
     98  CA        33.4540   12.6280   15.1700 C.3    84  ARG84       0.1729
     99  C         32.4470   12.0050   14.2070 C.2    84  ARG84       0.2616
    100  O         32.8230   11.3330   13.2480 O.2    84  ARG84      -0.2715
    101  CB        34.8170   11.9290   15.0790 C.3    84  ARG84       0.0348
    102  CG        35.9010   12.5800   15.9320 C.3    84  ARG84       0.0492
    103  CD        37.2460   11.8840   15.7690 C.3    84  ARG84       0.2205
    104  NE        37.7290   11.9350   14.3930 N.pl3  84  ARG84      -0.0865
    105  CZ        38.5470   12.8720   13.9210 C.cat  84  ARG84       0.5346
    106  NH1       38.9790   13.8430   14.7190 N.pl3  84  ARG84       0.1354
    107  NH2       38.9350   12.8380   12.6520 N.pl3  84  ARG84       0.1354
    108  N         31.1650   12.2370   14.4740 N.am   85  GLY85      -0.1955
    109  CA        30.0990   11.7270   13.6320 C.3    85  GLY85       0.1869
    110  C         29.8200   10.2550   13.8650 C.2    85  GLY85       0.2309
    111  O         28.9600    9.6660   13.2100 O.2    85  GLY85      -0.2863
@<TRIPOS>BOND
     1    40    41    1
     2    43    42    2
     3    51    50    2
     4    41    42    1
     5    41    44    1
     6    50    49    1
     7    42    48   am
     8    48    49    1
     9    49    52    1
    10    47    45    1
    11    35    34    2
    12    24    23    2
    13    44    45    1
    14    23    22    1
    15    45    46    1
    16    32    33    1
    17    34    33    1
    18    21    22    1
    19    52    53    1
    20    22    25    1
    21    55    53   ar
    22    55    57   ar
    23    33    36    1
    24    53    54   ar
    25    57    58   ar
    26    54    56   ar
    27   107   105    1
    28    36    38    1
    29    36    37    1
    30    58    56   ar
    31    25    26    1
    32   111   110    2
    33   100    99    2
    34   109   110    1
    35   109   108    1
    36    37    39    1
    37    26    28   ar
    38    26    27   ar
    39    28    30   ar
    40   105   104    2
    41   105   106    1
    42    99   108   am
    43    99    98    1
    44    27    29   ar
    45    30    31   ar
    46   104   103    1
    47    29    31   ar
    48   101    98    1
    49   101   102    1
    50     7     6    1
    51    98    97    1
    52   103   102    1
    53    84    82   ar
    54    84    86   ar
    55    13    10    1
    56    13    14    1
    57    10    11    1
    58    10     9    1
    59    11    12    2
    60    87    86    1
    61     8     6    1
    62    82    81   ar
    63     6     5    1
    64    86    85   ar
    65    97    90   am
    66    91    90    2
    67    14    15   ar
    68    14    16   ar
    69    15    17   ar
    70    90    89    1
    71    81    80    1
    72    81    83   ar
    73     5     2    1
    74    85    83   ar
    75    80    77    1
    76    74    73    1
    77    75    73    1
    78    16    18   ar
    79    17    19   ar
    80    73    70    1
    81     4     3    2
    82    89    88    1
    83    89    92    1
    84    88    78   am
    85     2     3    1
    86     2     1    1
    87    77    78    1
    88    77    76    1
    89    18    19   ar
    90    19    20    1
    91    78    79    2
    92    93    92    1
    93    93    94    1
    94    70    71    1
    95    70    69    1
    96    72    71    2
    97    95    94    1
    98    95    96    1
    99    62    61    2
   100    65    67   ar
   101    65    64   ar
   102    67    68   ar
   103    61    60    1
   104    64    63    1
   105    64    66   ar
   106    63    60    1
   107    60    59    1
   108    68    66   ar
