@<TRIPOS>MOLECULE
tmp/4nsyB01.pdb
 107 104 0 0 0
SMALL
GASTEIGER

@<TRIPOS>ATOM
      1  N          9.0110   16.2500   16.5260 N.3    36  CYS36      -0.1235
      2  CA        10.3780   16.3190   17.0190 C.3    36  CYS36       0.1677
      3  C         10.9270   17.7380   16.9220 C.2    36  CYS36       0.2270
      4  O         10.2410   18.6480   16.4310 O.2    36  CYS36      -0.2867
      5  CB        11.2760   15.3290   16.2400 C.3    36  CYS36       0.0956
      6  SG        11.3620   13.6300   16.9140 S.3    36  CYS36      -0.0801
      7  N         16.3070    8.8580   14.9520 N.3    57  HIS57      -0.1226
      8  CA        15.1730    8.0780   15.4390 C.3    57  HIS57       0.1752
      9  C         13.8300    8.7580   15.2000 C.2    57  HIS57       0.2596
     10  O         12.7990    8.1050   15.3210 O.2    57  HIS57      -0.2718
     11  CB        15.3370    7.6770   16.9060 C.3    57  HIS57       0.0759
     12  CG        14.9550    8.7380   17.8910 C.ar   57  HIS57       0.0818
     13  ND1       15.8910    9.4770   18.5790 N.ar   57  HIS57      -0.2268
     14  CD2       13.7480    9.1430   18.3500 C.ar   57  HIS57       0.1154
     15  CE1       15.2790   10.3050   19.4040 C.ar   57  HIS57       0.1986
     16  NE2       13.9750   10.1220   19.2870 N.ar   57  HIS57      -0.2212
     17  N         13.8490   10.0420   14.8440 N.am   58  CYS58      -0.1970
     18  CA        12.6140   10.7470   14.5180 C.3    58  CYS58       0.1712
     19  C         12.0790   10.3070   13.1440 C.2    58  CYS58       0.2296
     20  O         10.9480   10.6210   12.7940 O.2    58  CYS58      -0.2864
     21  CB        12.8250   12.2640   14.5840 C.3    58  CYS58       0.0983
     22  SG        13.1230   12.9020   16.2430 S.3    58  CYS58      -0.0798
     23  N         25.6290    5.4610   24.1840 N.3   169  TYR169     -0.1241
     24  CA        24.2750    5.7700   24.5990 C.3   169  TYR169      0.1605
     25  C         23.9450    5.0560   25.9020 C.2   169  TYR169      0.2264
     26  O         24.3250    3.9070   26.0950 O.2   169  TYR169     -0.2867
     27  CB        23.2880    5.3650   23.5120 C.3   169  TYR169      0.0534
     28  CG        21.8710    5.7410   23.8360 C.ar  169  TYR169     -0.0201
     29  CD1       21.5020    7.0700   23.9230 C.ar  169  TYR169     -0.0009
     30  CD2       20.9020    4.7700   24.0640 C.ar  169  TYR169     -0.0009
     31  CE1       20.2210    7.4320   24.2140 C.ar  169  TYR169      0.0417
     32  CE2       19.5990    5.1270   24.3640 C.ar  169  TYR169      0.0417
     33  CZ        19.2660    6.4700   24.4380 C.ar  169  TYR169      0.1957
     34  OH        17.9810    6.8640   24.7350 O.3   169  TYR169     -0.2866
     35  N         14.7440   17.3160   29.4950 N.3   189  THR189     -0.1203
     36  CA        14.2100   17.1420   28.1460 C.3   189  THR189      0.1994
     37  C         13.1750   16.0190   28.2160 C.2   189  THR189      0.2618
     38  O         13.1400   15.2290   29.1820 O.2   189  THR189     -0.2717
     39  CB        15.2770   16.7670   27.0870 C.3   189  THR189      0.1784
     40  OG1       15.7280   15.4360   27.3420 O.3   189  THR189     -0.2211
     41  CG2       16.4420   17.7360   27.0920 C.3   189  THR189      0.0376
     42  N         12.3260   15.9610   27.1980 N.am  190  GLU190     -0.1965
     43  CA        11.2010   15.0220   27.1790 C.3   190  GLU190      0.1718
     44  C         11.0430   14.4580   25.7710 C.2   190  GLU190      0.2458
     45  O         11.6070   15.0090   24.8280 O.2   190  GLU190     -0.2730
     46  CB         9.9070   15.7360   27.6100 C.3   190  GLU190      0.0428
     47  CG        10.0270   16.3250   29.0000 C.3   190  GLU190      0.1163
     48  CD         8.8440   17.1500   29.4600 C.2   190  GLU190      0.3649
     49  OE1        7.8800   17.3830   28.6940 O.co2 190  GLU190     -0.2457
     50  OE2        8.9040   17.5780   30.6340 O.co2 190  GLU190     -0.2457
     51  N         10.2810   13.3500   25.6130 N.am  191  PRO191     -0.2716
     52  CA        10.0020   12.9230   24.2350 C.3   191  PRO191      0.1536
     53  C          9.4570   14.1130   23.4250 C.2   191  PRO191      0.2599
     54  O          8.6550   14.8950   23.9400 O.2   191  PRO191     -0.2715
     55  CB         8.9540   11.8370   24.4200 C.3   191  PRO191      0.0310
     56  CG         9.2490   11.2600   25.7860 C.3   191  PRO191      0.0237
     57  CD         9.7100   12.4200   26.6110 C.3   191  PRO191      0.0939
     58  N          9.9240   14.2690   22.1960 N.am  192  GLY192     -0.1955
     59  CA         9.6160   15.4390   21.3970 C.3   192  GLY192      0.1869
     60  C         10.8180   16.3650   21.3420 C.2   192  GLY192      0.2309
     61  O         11.0130   17.0650   20.3450 O.2   192  GLY192     -0.2863
     62  N         13.7530   15.3370   21.1330 N.3   194  SER194     -0.1217
     63  CA        14.7840   14.7010   20.3330 C.3   194  SER194      0.1889
     64  C         15.1600   15.5210   19.1200 C.2   194  SER194      0.2288
     65  O         14.3180   16.1380   18.4870 O.2   194  SER194     -0.2866
     66  CB        14.3360   13.3300   19.8850 C.3   194  SER194      0.2089
     67  OG        14.3300   12.4530   20.9940 O.3   194  SER194     -0.2183
     68  N         19.8750   15.8060   20.5840 N.3   209  LEU209     -0.1231
     69  CA        19.3570   14.9170   21.6110 C.3   209  LEU209      0.1693
     70  C         18.9310   13.5770   21.0330 C.2   209  LEU209      0.2592
     71  O         18.1170   13.5080   20.1140 O.2   209  LEU209     -0.2718
     72  CB        18.1810   15.5460   22.3510 C.3   209  LEU209      0.0284
     73  CG        17.5640   14.6620   23.4530 C.3   209  LEU209      0.0019
     74  CD1       18.5270   14.4030   24.6090 C.3   209  LEU209      0.0001
     75  CD2       16.2520   15.2890   23.9910 C.3   209  LEU209      0.0001
     76  N         19.4750   12.5190   21.6190 N.am  210  HIS210     -0.1962
     77  CA        19.0910   11.1590   21.2960 C.3   210  HIS210      0.1787
     78  C         18.0150   10.7260   22.2920 C.2   210  HIS210      0.2621
     79  O         16.8960   10.3960   21.9100 O.2   210  HIS210     -0.2715
     80  CB        20.3220   10.2500   21.3560 C.3   210  HIS210      0.0785
     81  CG        20.0450    8.8230   21.0480 C.ar  210  HIS210      0.0821
     82  ND1       21.0560    7.9450   20.7400 N.ar  210  HIS210     -0.2267
     83  CD2       18.8880    8.1240   20.9650 C.ar  210  HIS210      0.1154
     84  CE1       20.5380    6.7570   20.4930 C.ar  210  HIS210      0.1986
     85  NE2       19.2260    6.8380   20.6180 N.ar  210  HIS210     -0.2212
     86  N         18.3610   10.7290   23.5740 N.am  211  GLY211     -0.1940
     87  CA        17.4190   10.3570   24.6100 C.3   211  GLY211      0.2014
     88  C         18.1420   10.2100   25.9180 C.2   211  GLY211      0.2639
     89  O         19.3110   10.5740   26.0370 O.2   211  GLY211     -0.2714
     90  N         17.4380    9.6940   26.9140 N.am  212  GLY212     -0.1954
     91  CA        18.0120    9.5470   28.2270 C.3   212  GLY212      0.1869
     92  C         16.9650    9.4730   29.3070 C.2   212  GLY212      0.2309
     93  O         15.7750    9.5650   29.0360 O.2   212  GLY212     -0.2863
     94  N         16.1250   11.4580   31.7800 N.3   214  SER214     -0.1217
     95  CA        15.5690   12.6120   32.4750 C.3   214  SER214      0.1889
     96  C         14.0710   12.7760   32.2520 C.2   214  SER214      0.2288
     97  O         13.5010   12.3650   31.2320 O.2   214  SER214     -0.2866
     98  CB        16.2620   13.9090   32.0640 C.3   214  SER214      0.2089
     99  OG        15.7300   14.3990   30.8350 O.3   214  SER214     -0.2183
    100  N         20.8150   13.2790   30.1260 N.3   225  ASP225     -0.1239
    101  CA        20.5010   12.8610   28.7580 C.3   225  ASP225      0.1674
    102  C         21.7500   12.6590   27.9160 C.2   225  ASP225      0.2266
    103  O         22.8370   13.1010   28.2940 O.2   225  ASP225     -0.2867
    104  CB        19.5980   13.8850   28.0630 C.3   225  ASP225      0.1410
    105  CG        18.1510   13.7940   28.5090 C.2   225  ASP225      0.3668
    106  OD1       17.5060   12.7680   28.1930 O.co2 225  ASP225     -0.2456
    107  OD2       17.6720   14.7760   29.1390 O.co2 225  ASP225     -0.2456
@<TRIPOS>BOND
     1    20    19    2
     2    19    18    1
     3    18    21    1
     4    18    17    1
     5    21    22    1
     6    17     9   am
     7     7     8    1
     8     9    10    2
     9     9     8    1
    10     8    11    1
    11     5     6    1
    12     5     2    1
    13    22     6    1
    14     4     3    2
    15     1     2    1
    16    11    12    1
    17     3     2    1
    18    12    14   ar
    19    12    13   ar
    20    14    16   ar
    21    65    64    2
    22    13    15   ar
    23    64    63    1
    24    16    15   ar
    25    66    63    1
    26    66    67    1
    27    71    70    2
    28    63    62    1
    29    61    60    2
    30    84    85   ar
    31    84    82   ar
    32    68    69    1
    33    85    83   ar
    34    82    81   ar
    35    83    81   ar
    36    70    69    1
    37    70    76   am
    38    81    80    1
    39    77    80    1
    40    77    76    1
    41    77    78    1
    42    60    59    1
    43    59    58    1
    44    69    72    1
    45    79    78    2
    46    58    53   am
    47    78    86   am
    48    72    73    1
    49    53    54    2
    50    53    52    1
    51    73    75    1
    52    73    74    1
    53    27    28    1
    54    27    24    1
    55    86    87    1
    56    28    29   ar
    57    28    30   ar
    58    29    31   ar
    59    30    32   ar
    60    23    24    1
    61    31    33   ar
    62    52    55    1
    63    52    51    1
    64    32    33   ar
    65    55    56    1
    66    33    34    1
    67    24    25    1
    68    87    88    1
    69    45    44    2
    70    51    44   am
    71    51    57    1
    72    44    43    1
    73    56    57    1
    74    25    26    2
    75    88    89    2
    76    88    90   am
    77    90    91    1
    78    39    41    1
    79    39    40    1
    80    39    36    1
    81    43    42    1
    82    43    46    1
    83    42    37   am
    84    46    47    1
    85   102   103    2
    86   102   101    1
    87   104   105    1
    88   104   101    1
    89    36    37    1
    90    36    35    1
    91   106   105   ar
    92    37    38    2
    93    91    92    1
    94   105   107   ar
    95    49    48   ar
    96   101   100    1
    97    47    48    1
    98    93    92    2
    99    48    50   ar
   100    99    98    1
   101    97    96    2
   102    94    95    1
   103    98    95    1
   104    96    95    1
