@<TRIPOS>MOLECULE
tmp/4nt0B01.pdb
 157 148 0 0 0
SMALL
GASTEIGER

@<TRIPOS>ATOM
      1  N        -20.9060  -18.0310  -16.0700 N.3    17  ALA17      -0.1245
      2  CA       -19.8660  -17.1260  -16.5580 C.3    17  ALA17       0.1562
      3  C        -20.5310  -16.1090  -17.4750 C.2    17  ALA17       0.2260
      4  O        -20.9470  -16.4390  -18.5840 O.2    17  ALA17      -0.2867
      5  CB       -18.7710  -17.8910  -17.3020 C.3    17  ALA17       0.0290
      6  N        -20.0890  -13.4390  -19.7420 N.3    19  ASP19      -0.1239
      7  CA       -19.1030  -12.7610  -20.5630 C.3    19  ASP19       0.1674
      8  C        -19.6910  -11.9490  -21.7200 C.2    19  ASP19       0.2266
      9  O        -18.9520  -11.4820  -22.5920 O.2    19  ASP19      -0.2867
     10  CB       -18.0730  -13.7740  -21.0580 C.3    19  ASP19       0.1410
     11  CG       -17.2390  -14.3330  -19.9200 C.2    19  ASP19       0.3668
     12  OD1      -16.6760  -13.5200  -19.1490 O.co2  19  ASP19      -0.2456
     13  OD2      -17.1710  -15.5730  -19.7830 O.co2  19  ASP19      -0.2456
     14  N        -19.9760  -15.3020  -12.2960 N.3    41  LYS41      -0.1245
     15  CA       -18.5860  -14.8950  -12.5330 C.3    41  LYS41       0.1561
     16  C        -18.5830  -13.8230  -13.6150 C.2    41  LYS41       0.2260
     17  O        -19.0800  -14.0520  -14.7210 O.2    41  LYS41      -0.2867
     18  CB       -17.7510  -16.0960  -12.9930 C.3    41  LYS41       0.0271
     19  CG       -16.2470  -15.7920  -13.1340 C.3    41  LYS41       0.0035
     20  CD       -15.4560  -17.0400  -13.5560 C.3    41  LYS41       0.0206
     21  CE       -15.6250  -17.3540  -15.0380 C.3    41  LYS41       0.1093
     22  NZ       -15.1720  -16.2100  -15.8990 N.3    41  LYS41      -0.1314
     23  N        -13.5850  -12.3550  -12.1920 N.3    69  ASP69      -0.1239
     24  CA       -12.5510  -13.1490  -12.8530 C.3    69  ASP69       0.1674
     25  C        -11.5560  -12.2140  -13.5360 C.2    69  ASP69       0.2266
     26  O        -11.5800  -12.0410  -14.7600 O.2    69  ASP69      -0.2867
     27  CB       -13.1770  -14.1140  -13.8580 C.3    69  ASP69       0.1410
     28  CG       -12.1600  -15.0600  -14.4860 C.2    69  ASP69       0.3668
     29  OD1      -10.9820  -15.0420  -14.0670 O.co2  69  ASP69      -0.2456
     30  OD2      -12.5470  -15.8250  -15.3980 O.co2  69  ASP69      -0.2456
     31  N         -8.1810  -12.3390  -13.0730 N.3    71  LYS71      -0.1245
     32  CA        -6.8970  -13.0030  -13.2640 C.3    71  LYS71       0.1561
     33  C         -5.7360  -12.1020  -12.8780 C.2    71  LYS71       0.2260
     34  O         -4.8360  -11.8510  -13.6810 O.2    71  LYS71      -0.2867
     35  CB        -6.7660  -13.5140  -14.6970 C.3    71  LYS71       0.0271
     36  CG        -7.7240  -14.6970  -14.9470 C.3    71  LYS71       0.0035
     37  CD        -7.4480  -15.4320  -16.2380 C.3    71  LYS71       0.0206
     38  CE        -8.4100  -16.5960  -16.3950 C.3    71  LYS71       0.1093
     39  NZ        -9.8310  -16.1480  -16.3600 N.3    71  LYS71      -0.1314
     40  N        -10.4740  -13.7010   -8.7380 N.3    95  ILE95      -0.1245
     41  CA        -9.5820  -14.7660   -9.2000 C.3    95  ILE95       0.1561
     42  C         -8.2170  -14.1810   -9.5160 C.2    95  ILE95       0.2260
     43  O         -8.1150  -13.1790  -10.2360 O.2    95  ILE95      -0.2867
     44  CB       -10.1560  -15.5040  -10.4240 C.3    95  ILE95       0.0252
     45  CG1      -11.5030  -16.1400  -10.0490 C.3    95  ILE95       0.0019
     46  CG2       -9.1500  -16.5500  -10.9060 C.3    95  ILE95       0.0019
     47  CD1      -12.3340  -16.6570  -11.2530 C.3    95  ILE95       0.0001
     48  N         -5.9120  -19.2780   -9.2970 N.3   122  LEU122     -0.1245
     49  CA        -5.9940  -19.9870  -10.5670 C.3   122  LEU122      0.1561
     50  C         -4.7480  -20.8480  -10.7410 C.2   122  LEU122      0.2260
     51  O         -3.6400  -20.3350  -10.8620 O.2   122  LEU122     -0.2867
     52  CB        -6.1050  -18.9750  -11.7120 C.3   122  LEU122      0.0270
     53  CG        -6.1120  -19.5470  -13.1320 C.3   122  LEU122      0.0019
     54  CD1       -7.3430  -20.4240  -13.3500 C.3   122  LEU122      0.0001
     55  CD2       -6.0540  -18.4230  -14.1530 C.3   122  LEU122      0.0001
     56  N         -4.1450  -23.3800  -13.1120 N.3   124  GLU124     -0.1231
     57  CA        -3.8890  -23.9550  -14.4230 C.3   124  GLU124      0.1699
     58  C         -4.9950  -23.5060  -15.3690 C.2   124  GLU124      0.2592
     59  O         -6.0970  -23.2120  -14.9220 O.2   124  GLU124     -0.2718
     60  CB        -3.9030  -25.4780  -14.3170 C.3   124  GLU124      0.0402
     61  CG        -3.4170  -26.1820  -15.5550 C.3   124  GLU124      0.1161
     62  CD        -3.1980  -27.6600  -15.3270 C.2   124  GLU124      0.3649
     63  OE1       -3.7490  -28.1970  -14.3410 O.co2 124  GLU124     -0.2457
     64  OE2       -2.4670  -28.2770  -16.1290 O.co2 124  GLU124     -0.2457
     65  N         -4.7060  -23.4510  -16.6660 N.am  125  MET125     -0.1965
     66  CA        -5.6970  -23.0090  -17.6510 C.3   125  MET125      0.1736
     67  C         -5.8330  -24.0700  -18.7320 C.2   125  MET125      0.2617
     68  O         -4.9590  -24.9130  -18.8800 O.2   125  MET125     -0.2715
     69  CB        -5.2870  -21.6660  -18.2670 C.3   125  MET125      0.0427
     70  CG        -5.1480  -20.5500  -17.2570 C.3   125  MET125      0.0599
     71  SD        -4.4060  -19.0640  -17.9750 S.3   125  MET125     -0.1393
     72  CE        -5.8540  -18.3190  -18.7220 C.3   125  MET125      0.0692
     73  N         -6.9150  -24.0300  -19.5040 N.am  126  SER126     -0.1936
     74  CA        -7.2080  -25.1500  -20.4080 C.3   126  SER126      0.2055
     75  C         -6.8770  -24.9580  -21.8900 C.2   126  SER126      0.2643
     76  O         -6.9150  -25.9190  -22.6530 O.2   126  SER126     -0.2714
     77  CB        -8.6630  -25.5990  -20.2460 C.3   126  SER126      0.2130
     78  OG        -9.4950  -24.5050  -19.9240 O.3   126  SER126     -0.2179
     79  N         -6.5420  -23.7340  -22.2970 N.am  127  HIS127     -0.1973
     80  CA        -6.2590  -23.4470  -23.7050 C.3   127  HIS127      0.1656
     81  C         -4.8950  -24.0290  -24.0970 C.2   127  HIS127      0.2291
     82  O         -4.0610  -24.2620  -23.2250 O.2   127  HIS127     -0.2864
     83  CB        -6.2830  -21.9290  -23.9180 C.3   127  HIS127      0.0771
     84  CG        -5.2350  -21.2060  -23.1350 C.ar  127  HIS127      0.0820
     85  ND1       -5.2380  -21.1590  -21.7570 N.ar  127  HIS127     -0.2267
     86  CD2       -4.1480  -20.5040  -23.5350 C.ar  127  HIS127      0.1154
     87  CE1       -4.2000  -20.4540  -21.3410 C.ar  127  HIS127      0.1986
     88  NE2       -3.5220  -20.0470  -22.4000 N.ar  127  HIS127     -0.2212
     89  N         -9.1690  -22.4920   -8.6860 N.3   154  VAL154     -0.1245
     90  CA        -9.7660  -22.6920   -9.9950 C.3   154  VAL154      0.1561
     91  C         -8.8780  -23.6410  -10.7860 C.2   154  VAL154      0.2260
     92  O         -7.6540  -23.4600  -10.8290 O.2   154  VAL154     -0.2867
     93  CB        -9.8950  -21.3530  -10.7690 C.3   154  VAL154      0.0252
     94  CG1      -10.5890  -21.5810  -12.0950 C.3   154  VAL154      0.0019
     95  CG2      -10.6530  -20.3020   -9.9310 C.3   154  VAL154      0.0019
     96  N         -8.8720  -26.4930  -14.5130 N.3   156  PRO156     -0.2116
     97  CA        -9.5750  -26.8230  -15.7610 C.3   156  PRO156      0.1372
     98  C        -10.3560  -28.1230  -15.6640 C.2   156  PRO156      0.2244
     99  O         -9.9140  -29.0530  -14.9890 O.2   156  PRO156     -0.2868
    100  CB        -8.4360  -26.9700  -16.7670 C.3   156  PRO156      0.0268
    101  CG        -7.2940  -27.4770  -15.9350 C.3   156  PRO156      0.0207
    102  CD        -7.4300  -26.7780  -14.5960 C.3   156  PRO156      0.0892
    103  N        -13.9740  -24.5250  -14.9480 N.3   179  PRO179     -0.2116
    104  CA       -14.6770  -24.1760  -16.1850 C.3   179  PRO179      0.1372
    105  C        -14.8000  -25.3720  -17.1220 C.2   179  PRO179      0.2244
    106  O        -15.9250  -25.6730  -17.5260 O.2   179  PRO179     -0.2868
    107  CB       -13.7820  -23.0970  -16.8150 C.3   179  PRO179      0.0268
    108  CG       -12.8190  -22.6780  -15.7330 C.3   179  PRO179      0.0207
    109  CD       -12.6420  -23.9020  -14.8840 C.3   179  PRO179      0.0892
    110  N        -18.3480  -24.1210  -13.9280 N.3   190  ILE190     -0.1231
    111  CA       -18.5580  -22.7770  -14.4740 C.3   190  ILE190      0.1692
    112  C        -19.0170  -22.8950  -15.9190 C.2   190  ILE190      0.2592
    113  O        -18.3100  -23.4710  -16.7530 O.2   190  ILE190     -0.2718
    114  CB       -17.2560  -21.9840  -14.4800 C.3   190  ILE190      0.0266
    115  CG1      -16.7350  -21.7890  -13.0550 C.3   190  ILE190      0.0019
    116  CG2      -17.4370  -20.6360  -15.1880 C.3   190  ILE190      0.0020
    117  CD1      -15.2720  -21.3140  -13.0160 C.3   190  ILE190      0.0001
    118  N        -20.1960  -22.3580  -16.2210 N.am  191  VAL191     -0.1966
    119  CA       -20.7280  -22.4630  -17.5690 C.3   191  VAL191      0.1727
    120  C        -21.1500  -21.0980  -18.1120 C.2   191  VAL191      0.2617
    121  O        -21.9130  -20.3740  -17.4680 O.2   191  VAL191     -0.2715
    122  CB       -21.9360  -23.4110  -17.6130 C.3   191  VAL191      0.0290
    123  CG1      -22.5440  -23.4330  -19.0100 C.3   191  VAL191      0.0023
    124  CG2      -21.5390  -24.8240  -17.1830 C.3   191  VAL191      0.0023
    125  N        -20.6490  -20.7540  -19.2960 N.am  192  GLY192     -0.1940
    126  CA       -20.9770  -19.4870  -19.9270 C.3   192  GLY192      0.2014
    127  C        -21.8960  -19.6330  -21.1300 C.2   192  GLY192      0.2639
    128  O        -23.1140  -19.6860  -20.9870 O.2   192  GLY192     -0.2714
    129  N        -21.2970  -19.6970  -22.3160 N.am  193  ARG193     -0.1963
    130  CA       -22.0230  -19.6380  -23.5930 C.3   193  ARG193      0.1729
    131  C        -23.1990  -20.6070  -23.7600 C.2   193  ARG193      0.2616
    132  O        -24.1950  -20.2680  -24.4040 O.2   193  ARG193     -0.2715
    133  CB       -21.0410  -19.7960  -24.7610 C.3   193  ARG193      0.0348
    134  CG       -20.1480  -18.5870  -24.9910 C.3   193  ARG193      0.0492
    135  CD       -18.9570  -18.9440  -25.8610 C.3   193  ARG193      0.2205
    136  NE       -18.1230  -19.9540  -25.2170 N.pl3 193  ARG193     -0.0865
    137  CZ       -17.2030  -20.6810  -25.8450 C.cat 193  ARG193      0.5346
    138  NH1      -16.9950  -20.5150  -27.1440 N.pl3 193  ARG193      0.1354
    139  NH2      -16.4950  -21.5810  -25.1720 N.pl3 193  ARG193      0.1354
    140  N        -23.0950  -21.8030  -23.1840 N.am  194  SER194     -0.1950
    141  CA       -24.1770  -22.7820  -23.2820 C.3   194  SER194      0.1924
    142  C        -25.4520  -22.2680  -22.6290 C.2   194  SER194      0.2314
    143  O        -26.5510  -22.7300  -22.9300 O.2   194  SER194     -0.2863
    144  CB       -23.7740  -24.1100  -22.6410 C.3   194  SER194      0.2116
    145  OG       -22.6020  -24.6240  -23.2450 O.3   194  SER194     -0.2180
    146  N        -25.8020  -18.4790  -21.7530 N.3   196  TYR196     -0.1241
    147  CA       -26.1030  -17.1040  -22.1440 C.3   196  TYR196      0.1605
    148  C        -26.3010  -16.8720  -23.6480 C.2   196  TYR196      0.2264
    149  O        -26.7460  -15.7980  -24.0550 O.2   196  TYR196     -0.2867
    150  CB       -25.1320  -16.0950  -21.5060 C.3   196  TYR196      0.0534
    151  CG       -23.7090  -16.0530  -22.0350 C.ar  196  TYR196     -0.0201
    152  CD1      -23.4300  -15.6040  -23.3220 C.ar  196  TYR196     -0.0009
    153  CD2      -22.6370  -16.3990  -21.2170 C.ar  196  TYR196     -0.0009
    154  CE1      -22.1310  -15.5400  -23.7930 C.ar  196  TYR196      0.0417
    155  CE2      -21.3270  -16.3360  -21.6810 C.ar  196  TYR196      0.0417
    156  CZ       -21.0880  -15.9050  -22.9690 C.ar  196  TYR196      0.1957
    157  OH       -19.7980  -15.8380  -23.4400 O.3   196  TYR196     -0.2866
@<TRIPOS>BOND
     1   138   137    1
     2   135   136    1
     3   135   134    1
     4   137   136    2
     5   137   139    1
     6   134   133    1
     7   133   130    1
     8   132   131    2
     9    81    80    1
    10    81    82    2
    11   149   148    2
    12    83    80    1
    13    83    84    1
    14   154   152   ar
    15   154   156   ar
    16   131   130    1
    17   131   140   am
    18    80    79    1
    19   148   147    1
    20   130   129    1
    21    86    84   ar
    22    86    88   ar
    23   157   156    1
    24   152   151   ar
    25   141   140    1
    26   141   144    1
    27   141   142    1
    28   145   144    1
    29    84    85   ar
    30   156   155   ar
    31   143   142    2
    32    76    75    2
    33     9     8    2
    34    88    87   ar
    35   129   127   am
    36    79    75   am
    37   147   146    1
    38   147   150    1
    39   151   150    1
    40   151   153   ar
    41    75    74    1
    42    85    87   ar
    43     8     7    1
    44   155   153   ar
    45   127   128    2
    46   127   126    1
    47    10     7    1
    48    10    11    1
    49     7     6    1
    50    74    77    1
    51    74    73    1
    52    77    78    1
    53   126   125    1
    54    11    13   ar
    55    11    12   ar
    56    73    67   am
    57   125   120   am
    58   123   122    1
    59    68    67    2
    60    67    66    1
    61    72    71    1
    62     4     3    2
    63    69    66    1
    64    69    70    1
    65   120   119    1
    66   120   121    2
    67    71    70    1
    68    66    65    1
    69   122   119    1
    70   122   124    1
    71   119   118    1
    72   106   105    2
    73     3     2    1
    74     5     2    1
    75   105   104    1
    76   107   104    1
    77   107   108    1
    78   100   101    1
    79   100    97    1
    80   113   112    2
    81    65    58   am
    82     2     1    1
    83    38    39    1
    84    38    37    1
    85    37    36    1
    86   118   112   am
    87   104   103    1
    88    64    62   ar
    89   101   102    1
    90   112   111    1
    91    22    21    1
    92    97    98    1
    93    97    96    1
    94   108   109    1
    95    98    99    2
    96    61    62    1
    97    61    60    1
    98    30    28   ar
    99    58    59    2
   100    58    57    1
   101    62    63   ar
   102   116   114    1
   103    21    20    1
   104   103   109    1
   105    36    35    1
   106    26    25    2
   107    17    16    2
   108    35    32    1
   109   102    96    1
   110    28    29   ar
   111    28    27    1
   112   114   111    1
   113   114   115    1
   114   111   110    1
   115    57    60    1
   116    57    56    1
   117    55    53    1
   118    27    24    1
   119    34    33    2
   120    16    15    1
   121    20    19    1
   122    25    24    1
   123    54    53    1
   124    32    31    1
   125    32    33    1
   126    19    18    1
   127    53    52    1
   128   115   117    1
   129    18    15    1
   130    24    23    1
   131    15    14    1
   132    94    93    1
   133    52    49    1
   134    47    45    1
   135    46    44    1
   136    51    50    2
   137    92    91    2
   138    91    90    1
   139    93    90    1
   140    93    95    1
   141    50    49    1
   142    49    48    1
   143    44    45    1
   144    44    41    1
   145    43    42    2
   146    90    89    1
   147    42    41    1
   148    41    40    1
