@<TRIPOS>MOLECULE
tmp/4nt2A00.pdb
 81 78 0 0 0
SMALL
GASTEIGER

@<TRIPOS>ATOM
      1  N        -48.3540  -33.0870   10.3210 N.3    46  ILE46      -0.1245
      2  CA       -48.5060  -32.1380   11.4250 C.3    46  ILE46       0.1561
      3  C        -47.2630  -31.9840   12.3210 C.2    46  ILE46       0.2260
      4  O        -47.0330  -30.9120   12.8840 O.2    46  ILE46      -0.2867
      5  CB       -49.7760  -32.4530   12.2740 C.3    46  ILE46       0.0252
      6  CG1      -50.0920  -31.3120   13.2480 C.3    46  ILE46       0.0019
      7  CG2      -49.6300  -33.7680   13.0120 C.3    46  ILE46       0.0019
      8  CD1      -50.4480  -29.9950   12.5770 C.3    46  ILE46       0.0001
      9  N        -45.0820  -29.0090   11.1760 N.3    49  LYS49      -0.1231
     10  CA       -45.7620  -27.7390   10.9610 C.3    49  LYS49       0.1693
     11  C        -44.8780  -26.5710   11.3930 C.2    49  LYS49       0.2592
     12  O        -45.0090  -25.4640   10.8640 O.2    49  LYS49      -0.2718
     13  CB       -47.0930  -27.6950   11.7120 C.3    49  LYS49       0.0285
     14  CG       -48.0460  -26.6160   11.2000 C.3    49  LYS49       0.0035
     15  CD       -48.8950  -27.1350   10.0430 C.3    49  LYS49       0.0206
     16  CE       -48.9540  -26.1350    8.9050 C.3    49  LYS49       0.1093
     17  NZ       -49.7560  -26.6620    7.7650 N.3    49  LYS49      -0.1314
     18  N        -43.9620  -26.8230   12.3280 N.am   50  PHE50      -0.1976
     19  CA       -43.0260  -25.7950   12.7790 C.3    50  PHE50       0.1639
     20  C        -42.2040  -25.2300   11.6240 C.2    50  PHE50       0.2290
     21  O        -41.6590  -24.1290   11.7230 O.2    50  PHE50      -0.2864
     22  CB       -42.0820  -26.3520   13.8500 C.3    50  PHE50       0.0560
     23  CG       -41.0840  -27.3540   13.3220 C.ar   50  PHE50      -0.0200
     24  CD1      -39.8630  -26.9360   12.8020 C.ar   50  PHE50      -0.0042
     25  CD2      -41.3590  -28.7110   13.3550 C.ar   50  PHE50      -0.0042
     26  CE1      -38.9500  -27.8530   12.3060 C.ar   50  PHE50      -0.0003
     27  CE2      -40.4440  -29.6350   12.8640 C.ar   50  PHE50      -0.0003
     28  CZ       -39.2410  -29.2060   12.3400 C.ar   50  PHE50      -0.0000
     29  N        -42.9960  -21.6010   10.0440 N.3    53  MET53      -0.1230
     30  CA       -42.3490  -20.4460   10.6540 C.3    53  MET53       0.1702
     31  C        -40.8230  -20.5600   10.6560 C.2    53  MET53       0.2592
     32  O        -40.1180  -19.5720   10.4310 O.2    53  MET53      -0.2718
     33  CB       -42.8570  -20.2440   12.0820 C.3    53  MET53       0.0401
     34  CG       -44.3520  -19.9700   12.1830 C.3    53  MET53       0.0596
     35  SD       -44.8700  -18.5000   11.2780 S.3    53  MET53      -0.1393
     36  CE       -43.8290  -17.2570   12.0420 C.3    53  MET53       0.0692
     37  N        -40.3080  -21.7630   10.9070 N.am   54  ASP54      -0.1974
     38  CA       -38.8550  -21.9570   10.9880 C.3    54  ASP54       0.1709
     39  C        -38.1420  -22.0890    9.6410 C.2    54  ASP54       0.2293
     40  O        -36.9220  -21.9430    9.5770 O.2    54  ASP54      -0.2864
     41  CB       -38.4940  -23.1510   11.8810 C.3    54  ASP54       0.1436
     42  CG       -38.7530  -22.8830   13.3500 C.2    54  ASP54       0.3671
     43  OD1      -38.8210  -21.6990   13.7440 O.co2  54  ASP54      -0.2456
     44  OD2      -38.8850  -23.8600   14.1150 O.co2  54  ASP54      -0.2456
     45  N        -33.1000  -26.4440   19.2530 N.3   136  HIS136     -0.1226
     46  CA       -33.5200  -25.0540   19.0910 C.3   136  HIS136      0.1752
     47  C        -34.9810  -24.8330   19.4590 C.2   136  HIS136      0.2596
     48  O        -35.5220  -23.7480   19.2470 O.2   136  HIS136     -0.2718
     49  CB       -33.2590  -24.5810   17.6610 C.3   136  HIS136      0.0759
     50  CG       -31.8170  -24.6380   17.2700 C.ar  136  HIS136      0.0818
     51  ND1      -30.8940  -23.7080   17.6970 N.ar  136  HIS136     -0.2268
     52  CD2      -31.1330  -25.5220   16.5060 C.ar  136  HIS136      0.1154
     53  CE1      -29.7060  -24.0120   17.2070 C.ar  136  HIS136      0.1986
     54  NE2      -29.8240  -25.1100   16.4820 N.ar  136  HIS136     -0.2212
     55  N        -35.6120  -25.8630   20.0160 N.am  137  HIS137     -0.1961
     56  CA       -37.0350  -25.8170   20.3260 C.3   137  HIS137      0.1787
     57  C        -37.2930  -26.0120   21.8170 C.2   137  HIS137      0.2620
     58  O        -36.6470  -26.8360   22.4650 O.2   137  HIS137     -0.2715
     59  CB       -37.7880  -26.8950   19.5390 C.3   137  HIS137      0.0785
     60  CG       -38.0390  -26.5430   18.1060 C.ar  137  HIS137      0.0821
     61  ND1      -38.3210  -27.4920   17.1470 N.ar  137  HIS137     -0.2267
     62  CD2      -38.0700  -25.3460   17.4720 C.ar  137  HIS137      0.1154
     63  CE1      -38.5020  -26.8980   15.9810 C.ar  137  HIS137      0.1986
     64  NE2      -38.3580  -25.5950   16.1510 N.ar  137  HIS137     -0.2212
     65  N        -38.2520  -25.2570   22.3480 N.am  138  GLY138     -0.1954
     66  CA       -38.6630  -25.3980   23.7310 C.3   138  GLY138      0.1869
     67  C        -39.4890  -26.6570   23.9420 C.2   138  GLY138      0.2309
     68  O        -39.7970  -27.3840   22.9920 O.2   138  GLY138     -0.2863
     69  N        -43.0010  -27.3170   21.8770 N.3   141  ILE141     -0.1245
     70  CA       -42.7990  -27.6910   20.4820 C.3   141  ILE141      0.1561
     71  C        -42.2930  -29.1300   20.3520 C.2   141  ILE141      0.2260
     72  O        -42.8140  -29.9110   19.5550 O.2   141  ILE141     -0.2867
     73  CB       -41.8030  -26.7500   19.7760 C.3   141  ILE141      0.0252
     74  CG1      -42.2540  -25.2930   19.8990 C.3   141  ILE141      0.0019
     75  CG2      -41.6480  -27.1440   18.3130 C.3   141  ILE141      0.0019
     76  CD1      -43.5210  -24.9840   19.1500 C.3   141  ILE141      0.0001
     77  N        -45.1260  -31.4360   21.0100 N.3   144  ALA144     -0.1245
     78  CA       -46.0590  -31.4060   19.8890 C.3   144  ALA144      0.1562
     79  C        -45.5100  -32.1820   18.6920 C.2   144  ALA144      0.2260
     80  O        -46.2420  -32.9430   18.0540 O.2   144  ALA144     -0.2867
     81  CB       -46.3760  -29.9720   19.4970 C.3   144  ALA144      0.0290
@<TRIPOS>BOND
     1    17    16    1
     2    16    15    1
     3    40    39    2
     4    39    38    1
     5    15    14    1
     6    29    30    1
     7     1     2    1
     8    32    31    2
     9    30    31    1
    10    30    33    1
    11    31    37   am
    12    12    11    2
    13    37    38    1
    14    10     9    1
    15    10    11    1
    16    10    13    1
    17    38    41    1
    18    14    13    1
    19    35    36    1
    20    35    34    1
    21    11    18   am
    22     2     5    1
    23     2     3    1
    24    20    21    2
    25    20    19    1
    26    41    42    1
    27    33    34    1
    28     5     7    1
    29     5     6    1
    30    26    28   ar
    31    26    24   ar
    32     3     4    2
    33    18    19    1
    34    28    27   ar
    35     8     6    1
    36    19    22    1
    37    24    23   ar
    38    27    25   ar
    39    23    25   ar
    40    23    22    1
    41    42    43   ar
    42    42    44   ar
    43    63    64   ar
    44    63    61   ar
    45    64    62   ar
    46    54    52   ar
    47    54    53   ar
    48    52    50   ar
    49    61    60   ar
    50    53    51   ar
    51    50    49    1
    52    50    51   ar
    53    62    60   ar
    54    49    46    1
    55    80    79    2
    56    60    59    1
    57    75    73    1
    58    79    78    1
    59    46    45    1
    60    46    47    1
    61    76    74    1
    62    48    47    2
    63    47    55   am
    64    81    78    1
    65    59    56    1
    66    72    71    2
    67    73    74    1
    68    73    70    1
    69    78    77    1
    70    55    56    1
    71    56    57    1
    72    71    70    1
    73    70    69    1
    74    57    65   am
    75    57    58    2
    76    65    66    1
    77    68    67    2
    78    66    67    1
