@<TRIPOS>MOLECULE
tmp/4nt3A04.pdb
 124 123 0 0 0
SMALL
GASTEIGER

@<TRIPOS>ATOM
      1  N          9.3680    2.0190   19.0780 N.3   105  GLN105     -0.1245
      2  CA         8.3310    2.1510   20.1390 C.3   105  GLN105      0.1566
      3  C          6.9390    1.6710   19.6750 C.2   105  GLN105      0.2260
      4  O          6.2230    0.9340   20.3970 O.2   105  GLN105     -0.2867
      5  CB         8.2440    3.6010   20.6610 C.3   105  GLN105      0.0367
      6  CG         7.6620    3.7030   22.0490 C.3   105  GLN105      0.0905
      7  CD         7.4910    5.1040   22.5670 C.2   105  GLN105      0.2608
      8  OE1        7.5000    6.0790   21.8270 O.2   105  GLN105     -0.2717
      9  NE2        7.3060    5.2030   23.8770 N.am  105  GLN105     -0.0878
     10  N          4.8320   -1.5570   20.9950 N.3   109  HIS109     -0.1241
     11  CA         3.5440   -1.3740   21.6320 C.3   109  HIS109      0.1621
     12  C          2.5420   -2.2660   20.9470 C.2   109  HIS109      0.2264
     13  O          1.5770   -2.6640   21.5700 O.2   109  HIS109     -0.2867
     14  CB         3.1120    0.0920   21.6350 C.3   109  HIS109      0.0745
     15  CG         3.8290    0.9230   22.6540 C.ar  109  HIS109      0.0817
     16  ND1        3.4880    2.2270   22.9240 N.ar  109  HIS109     -0.2268
     17  CD2        4.8390    0.6130   23.5040 C.ar  109  HIS109      0.1154
     18  CE1        4.2780    2.7030   23.8600 C.ar  109  HIS109      0.1986
     19  NE2        5.0860    1.7360   24.2530 N.ar  109  HIS109     -0.2212
     20  N          2.7570   -5.6780   26.4010 N.3   113  PHE113     -0.1241
     21  CA         2.3980   -4.7500   27.4530 C.3   113  PHE113      0.1605
     22  C          2.0690   -5.5140   28.7140 C.2   113  PHE113      0.2264
     23  O          1.0880   -6.2380   28.7260 O.2   113  PHE113     -0.2867
     24  CB         1.1360   -3.9710   27.0440 C.3   113  PHE113      0.0534
     25  CG         0.7140   -2.9060   28.0330 C.ar  113  PHE113     -0.0203
     26  CD1        1.6310   -2.3040   28.8830 C.ar  113  PHE113     -0.0042
     27  CD2       -0.5960   -2.4510   28.0400 C.ar  113  PHE113     -0.0042
     28  CE1        1.2300   -1.3010   29.7530 C.ar  113  PHE113     -0.0003
     29  CE2       -1.0080   -1.4610   28.9160 C.ar  113  PHE113     -0.0003
     30  CZ        -0.0860   -0.8660   29.7530 C.ar  113  PHE113     -0.0000
     31  N         -3.4600   12.3520   32.7070 N.3   235  PRO235     -0.2116
     32  CA        -2.1400   12.9220   32.9860 C.3   235  PRO235      0.1372
     33  C         -1.7970   14.0040   31.9800 C.2   235  PRO235      0.2244
     34  O         -1.0120   14.8660   32.2650 O.2   235  PRO235     -0.2868
     35  CB        -1.2100   11.7140   32.9020 C.3   235  PRO235      0.0268
     36  CG        -1.8890   10.8360   31.9100 C.3   235  PRO235      0.0207
     37  CD        -3.3660   10.9690   32.2450 C.3   235  PRO235      0.0892
     38  N         -3.0910    1.6270   25.1330 N.3   253  PHE253     -0.1227
     39  CA        -3.2420    2.5230   26.2740 C.3   253  PHE253      0.1736
     40  C         -2.1890    3.6610   26.3810 C.2   253  PHE253      0.2595
     41  O         -2.4210    4.6830   27.0140 O.2   253  PHE253     -0.2718
     42  CB        -3.1270    1.6290   27.5280 C.3   253  PHE253      0.0547
     43  CG        -3.6900    2.2250   28.7850 C.ar  253  PHE253     -0.0202
     44  CD1       -5.0640    2.4670   28.9020 C.ar  253  PHE253     -0.0042
     45  CD2       -2.8570    2.5010   29.8800 C.ar  253  PHE253     -0.0042
     46  CE1       -5.5950    3.0130   30.0730 C.ar  253  PHE253     -0.0003
     47  CE2       -3.3890    3.0450   31.0500 C.ar  253  PHE253     -0.0003
     48  CZ        -4.7560    3.3000   31.1470 C.ar  253  PHE253     -0.0000
     49  N         -1.0030    3.4490   25.8270 N.am  254  ARG254     -0.1980
     50  CA         0.1580    4.2750   26.1010 C.3   254  ARG254      0.1597
     51  C          0.4080    5.3510   25.0510 C.2   254  ARG254      0.2287
     52  O          1.4520    5.9990   25.0760 O.2   254  ARG254     -0.2864
     53  CB         1.4260    3.3940   26.2100 C.3   254  ARG254      0.0334
     54  CG         1.3840    2.3070   27.2870 C.3   254  ARG254      0.0492
     55  CD         2.4120    1.2060   26.9990 C.3   254  ARG254      0.2205
     56  NE         1.9490    0.3280   25.9360 N.pl3 254  ARG254     -0.0865
     57  CZ         2.4780   -0.8370   25.5950 C.cat 254  ARG254      0.5346
     58  NH1        3.6260   -1.2860   26.1440 N.pl3 254  ARG254      0.1354
     59  NH2        1.9100   -1.5040   24.6170 N.pl3 254  ARG254      0.1354
     60  N          2.0020    8.8540   25.7920 N.3   257  GLU257     -0.1245
     61  CA         3.1460    8.8860   26.6490 C.3   257  GLU257      0.1567
     62  C          4.1920    9.9430   26.2290 C.2   257  GLU257      0.2260
     63  O          4.7530   10.5610   27.0750 O.2   257  GLU257     -0.2867
     64  CB         3.8410    7.5530   26.7010 C.3   257  GLU257      0.0388
     65  CG         5.0670    7.5680   27.6180 C.3   257  GLU257      0.1160
     66  CD         6.4100    7.5840   26.9270 C.2   257  GLU257      0.3649
     67  OE1        6.5770    7.4600   25.6830 O.co2 257  GLU257     -0.2457
     68  OE2        7.3650    7.7000   27.6950 O.co2 257  GLU257     -0.2457
     69  N         15.3770    2.5670   24.4940 N.3   350  HIS350     -0.1241
     70  CA        15.5600    3.5830   25.5120 C.3   350  HIS350      0.1621
     71  C         16.9240    4.3740   25.4200 C.2   350  HIS350      0.2264
     72  O         16.9980    5.5200   25.7810 O.2   350  HIS350     -0.2867
     73  CB        15.2620    2.9590   26.8890 C.3   350  HIS350      0.0745
     74  CG        13.7960    2.5820   27.0590 C.ar  350  HIS350      0.0817
     75  ND1       13.3470    1.7920   28.0800 N.ar  350  HIS350     -0.2268
     76  CD2       12.7020    2.8830   26.3140 C.ar  350  HIS350      0.1154
     77  CE1       12.0370    1.6060   27.9670 C.ar  350  HIS350      0.1986
     78  NE2       11.5900    2.2830   26.9210 N.ar  350  HIS350     -0.2212
     79  N          3.2660   12.9420   28.0480 N.3   380  PHE380     -0.1241
     80  CA         1.8460   13.1590   28.2440 C.3   380  PHE380      0.1605
     81  C          1.3670   14.4890   27.7020 C.2   380  PHE380      0.2264
     82  O          0.4180   15.1150   28.2410 O.2   380  PHE380     -0.2867
     83  CB         1.5070   12.8680   29.7000 C.3   380  PHE380      0.0534
     84  CG         1.7960   11.4380   30.0500 C.ar  380  PHE380     -0.0203
     85  CD1        0.9190   10.4590   29.6620 C.ar  380  PHE380     -0.0042
     86  CD2        3.0120   11.0790   30.5940 C.ar  380  PHE380     -0.0042
     87  CE1        1.1730    9.1110   29.8900 C.ar  380  PHE380     -0.0003
     88  CE2        3.3020    9.7330   30.8480 C.ar  380  PHE380     -0.0003
     89  CZ         2.3770    8.7310   30.4770 C.ar  380  PHE380     -0.0000
     90  N         11.8010   11.5380   34.0990 N.3   420  LEU420     -0.1231
     91  CA        10.5580   10.8360   33.6320 C.3   420  LEU420      0.1693
     92  C          9.3210   11.1940   34.4580 C.2   420  LEU420      0.2592
     93  O          9.4190   11.3240   35.6560 O.2   420  LEU420     -0.2718
     94  CB        10.7780    9.3180   33.7040 C.3   420  LEU420      0.0284
     95  CG         9.6400    8.4480   33.2200 C.3   420  LEU420      0.0019
     96  CD1        9.5090    8.5450   31.7110 C.3   420  LEU420      0.0001
     97  CD2        9.8840    7.0210   33.6490 C.3   420  LEU420      0.0001
     98  N          8.1850   11.3650   33.8050 N.am  421  PHE421     -0.1962
     99  CA         6.8990   11.5600   34.4770 C.3   421  PHE421      0.1771
    100  C          6.1140   10.2580   34.3350 C.2   421  PHE421      0.2619
    101  O          6.0490    9.6940   33.2580 O.2   421  PHE421     -0.2715
    102  CB         6.1020   12.7090   33.8330 C.3   421  PHE421      0.0574
    103  CG         4.7550   12.9620   34.4630 C.ar  421  PHE421     -0.0200
    104  CD1        3.6120   12.3280   33.9840 C.ar  421  PHE421     -0.0042
    105  CD2        4.6120   13.8570   35.5120 C.ar  421  PHE421     -0.0042
    106  CE1        2.3750   12.5180   34.5660 C.ar  421  PHE421     -0.0003
    107  CE2        3.3560   14.1000   36.0740 C.ar  421  PHE421     -0.0003
    108  CZ         2.2410   13.4170   35.6030 C.ar  421  PHE421     -0.0000
    109  N          5.4730    9.8470   35.4110 N.am  422  GLN422     -0.1964
    110  CA         4.4920    8.7750   35.3850 C.3   422  GLN422      0.1718
    111  C          3.1500    9.1460   35.9960 C.2   422  GLN422      0.2458
    112  O          3.0890    9.7110   37.0520 O.2   422  GLN422     -0.2730
    113  CB         5.0190    7.5970   36.1370 C.3   422  GLN422      0.0407
    114  CG         6.4080    7.2120   35.7530 C.3   422  GLN422      0.0908
    115  CD         6.4840    5.7560   35.4350 C.2   422  GLN422      0.2608
    116  OE1        6.8280    4.9650   36.2710 O.2   422  GLN422     -0.2717
    117  NE2        6.1180    5.4050   34.2340 N.am  422  GLN422     -0.0878
    118  N          2.0670    8.7680   35.3510 N.am  423  PRO423     -0.2727
    119  CA         0.7530    9.2230   35.8190 C.3   423  PRO423      0.1402
    120  C          0.4870    8.8030   37.2650 C.2   423  PRO423      0.2269
    121  O          0.7670    7.6670   37.6490 O.2   423  PRO423     -0.2865
    122  CB        -0.2160    8.5060   34.8770 C.3   423  PRO423      0.0296
    123  CG         0.5670    8.3030   33.6250 C.3   423  PRO423      0.0237
    124  CD         1.9830    8.0560   34.0640 C.3   423  PRO423      0.0939
@<TRIPOS>BOND
     1     1     2    1
     2     3     2    1
     3     3     4    2
     4     2     5    1
     5     5     6    1
     6    12    13    2
     7    12    11    1
     8    10    11    1
     9    11    14    1
    10    14    15    1
    11     8     7    2
    12     6     7    1
    13     7     9   am
    14    15    16   ar
    15    15    17   ar
    16    16    18   ar
    17    17    19   ar
    18    18    19   ar
    19    69    70    1
    20    59    57    1
    21    51    52    2
    22    51    50    1
    23    38    39    1
    24    71    70    1
    25    71    72    2
    26    70    73    1
    27    57    56    2
    28    57    58    1
    29    67    66   ar
    30    60    61    1
    31    49    50    1
    32    49    40   am
    33    56    55    1
    34    50    53    1
    35    53    54    1
    36    62    61    1
    37    62    63    2
    38    39    40    1
    39    39    42    1
    40    76    78   ar
    41    76    74   ar
    42    40    41    2
    43    20    21    1
    44    61    64    1
    45    64    65    1
    46    73    74    1
    47    78    77   ar
    48    66    65    1
    49    66    68   ar
    50    55    54    1
    51    24    21    1
    52    24    25    1
    53    74    75   ar
    54    21    22    1
    55    42    43    1
    56    81    82    2
    57    81    80    1
    58    77    75   ar
    59    25    27   ar
    60    25    26   ar
    61    27    29   ar
    62    79    80    1
    63    80    83    1
    64    22    23    2
    65    43    44   ar
    66    43    45   ar
    67    26    28   ar
    68    44    46   ar
    69    29    30   ar
    70    85    87   ar
    71    85    84   ar
    72    83    84    1
    73    30    28   ar
    74    45    47   ar
    75    87    89   ar
    76    84    86   ar
    77    46    48   ar
    78    89    88   ar
    79    86    88   ar
    80    47    48   ar
    81    96    95    1
    82    36    37    1
    83    36    35    1
    84    33    34    2
    85    33    32    1
    86    37    31    1
    87    31    32    1
    88    35    32    1
    89    95    97    1
    90    95    94    1
    91   101   100    2
    92   123   124    1
    93   123   122    1
    94    91    94    1
    95    91    90    1
    96    91    92    1
    97    98    92   am
    98    98    99    1
    99   102   103    1
   100   102    99    1
   101   104   103   ar
   102   104   106   ar
   103   124   118    1
   104   117   115   am
   105   100    99    1
   106   100   109   am
   107    92    93    2
   108   103   105   ar
   109   106   108   ar
   110   122   119    1
   111   118   119    1
   112   118   111   am
   113   110   109    1
   114   110   111    1
   115   110   113    1
   116   115   114    1
   117   115   116    2
   118   105   107   ar
   119   108   107   ar
   120   114   113    1
   121   119   120    1
   122   111   112    2
   123   120   121    2
