@<TRIPOS>MOLECULE
tmp/4nt8A00.pdb
 140 137 0 0 0
SMALL
GASTEIGER

@<TRIPOS>ATOM
      1  N         -1.9700  -16.7000    0.1330 N.3    44  GLY44      -0.1210
      2  CA        -0.5200  -16.7460    0.1810 C.3    44  GLY44       0.1956
      3  C          0.0430  -18.0490   -0.2980 C.2    44  GLY44       0.2612
      4  O         -0.6750  -19.0490   -0.3440 O.2    44  GLY44      -0.2717
      5  N          1.3400  -18.0520   -0.5860 N.am   45  VAL45      -0.1965
      6  CA         2.0810  -19.2990   -0.8150 C.3    45  VAL45       0.1727
      7  C          2.9990  -19.6520    0.3580 C.2    45  VAL45       0.2616
      8  O          3.5900  -20.7140    0.4030 O.2    45  VAL45      -0.2715
      9  CB         2.8780  -19.2570   -2.1380 C.3    45  VAL45       0.0290
     10  CG1        1.9030  -19.2210   -3.3230 C.3    45  VAL45       0.0023
     11  CG2        3.8440  -18.0840   -2.1760 C.3    45  VAL45       0.0023
     12  N          3.1170  -18.7460    1.3130 N.am   46  GLY46      -0.1955
     13  CA         3.7810  -19.0340    2.5530 C.3    46  GLY46       0.1869
     14  C          3.2110  -18.0880    3.5710 C.2    46  GLY46       0.2309
     15  O          2.5500  -17.1080    3.2090 O.2    46  GLY46      -0.2863
     16  N          3.8520  -12.9370   11.2870 N.3    51  GLN51      -0.1245
     17  CA         2.8490  -12.2210   10.5440 C.3    51  GLN51       0.1566
     18  C          1.5120  -12.2670   11.2070 C.2    51  GLN51       0.2260
     19  O          0.6750  -11.4220   10.8940 O.2    51  GLN51      -0.2867
     20  CB         2.7160  -12.7460    9.1150 C.3    51  GLN51       0.0367
     21  CG         3.9570  -12.5250    8.2850 C.3    51  GLN51       0.0905
     22  CD         3.7570  -12.8900    6.8340 C.2    51  GLN51       0.2608
     23  OE1        4.0140  -14.0160    6.4240 O.2    51  GLN51      -0.2717
     24  NE2        3.2870  -11.9350    6.0490 N.am   51  GLN51      -0.0878
     25  N         -1.1630  -16.3980   -8.7780 N.3    68  ARG68      -0.1231
     26  CA        -0.1520  -15.3470   -8.7470 C.3    68  ARG68       0.1694
     27  C          1.1110  -15.7090   -9.4890 C.2    68  ARG68       0.2592
     28  O          1.6720  -14.8550  -10.1590 O.2    68  ARG68      -0.2718
     29  CB         0.2050  -14.9930   -7.3050 C.3    68  ARG68       0.0321
     30  CG        -0.9090  -14.2320   -6.6190 C.3    68  ARG68       0.0489
     31  CD        -0.8270  -14.2500   -5.0990 C.3    68  ARG68       0.2205
     32  NE        -1.7160  -13.2240   -4.5420 N.pl3  68  ARG68      -0.0865
     33  CZ        -1.8360  -12.9240   -3.2480 C.cat  68  ARG68       0.5346
     34  NH1       -1.1320  -13.5790   -2.3410 N.pl3  68  ARG68       0.1354
     35  NH2       -2.6690  -11.9650   -2.8520 N.pl3  68  ARG68       0.1354
     36  N          1.5540  -16.9600   -9.3720 N.am   69  TYR69      -0.1976
     37  CA         2.8040  -17.4140   -9.9940 C.3    69  TYR69       0.1639
     38  C          2.5130  -18.6850  -10.8080 C.2    69  TYR69       0.2290
     39  O          2.8150  -19.8100  -10.3630 O.2    69  TYR69      -0.2864
     40  CB         3.8690  -17.6730   -8.9270 C.3    69  TYR69       0.0560
     41  CG         4.1460  -16.4940   -7.9980 C.ar   69  TYR69      -0.0198
     42  CD1        5.0460  -15.4710   -8.3670 C.ar   69  TYR69      -0.0009
     43  CD2        3.5130  -16.3880   -6.7390 C.ar   69  TYR69      -0.0009
     44  CE1        5.3030  -14.3920   -7.5170 C.ar   69  TYR69       0.0417
     45  CE2        3.7790  -15.3220   -5.8990 C.ar   69  TYR69       0.0417
     46  CZ         4.6770  -14.3320   -6.2960 C.ar   69  TYR69       0.1957
     47  OH         4.9490  -13.2800   -5.4640 O.3    69  TYR69      -0.2866
     48  N         10.0380  -12.0230   -8.7380 N.3    96  TRP96      -0.1227
     49  CA         9.0070  -11.2690   -8.0610 C.3    96  TRP96       0.1737
     50  C          8.5990  -11.8390   -6.6850 C.2    96  TRP96       0.2595
     51  O          8.3500  -13.0190   -6.5320 O.2    96  TRP96      -0.2718
     52  CB         7.7770  -11.1530   -8.9640 C.3    96  TRP96       0.0564
     53  CG         8.0590  -10.3050  -10.1680 C.ar   96  TRP96       0.0003
     54  CD1        8.3170  -10.7380  -11.4300 C.ar   96  TRP96       0.0946
     55  CD2        8.1340   -8.8680  -10.2120 C.ar   96  TRP96       0.0152
     56  NE1        8.5250   -9.6650  -12.2620 N.ar   96  TRP96      -0.2442
     57  CE2        8.4110   -8.5070  -11.5460 C.ar   96  TRP96       0.0810
     58  CE3        7.9630   -7.8660   -9.2600 C.ar   96  TRP96       0.0012
     59  CZ2        8.5640   -7.1800  -11.9570 C.ar   96  TRP96       0.0191
     60  CZ3        8.1170   -6.5450   -9.6470 C.ar   96  TRP96       0.0001
     61  CH2        8.4130   -6.2060  -11.0020 C.ar   96  TRP96       0.0015
     62  N          8.5340  -10.9790   -5.6860 N.am   97  GLU97      -0.1965
     63  CA         7.8880  -11.3090   -4.4200 C.3    97  GLU97       0.1733
     64  C          6.8940  -10.2110   -4.0270 C.2    97  GLU97       0.2616
     65  O          7.0490   -9.0610   -4.4300 O.2    97  GLU97      -0.2715
     66  CB         8.9310  -11.4400   -3.3220 C.3    97  GLU97       0.0429
     67  CG         9.9550  -12.5240   -3.5930 C.3    97  GLU97       0.1163
     68  CD        10.9630  -12.7010   -2.4770 C.2    97  GLU97       0.3649
     69  OE1       10.7530  -12.2100   -1.3310 O.co2  97  GLU97      -0.2457
     70  OE2       11.9960  -13.3320   -2.7710 O.co2  97  GLU97      -0.2457
     71  N          5.8810  -10.6040   -3.2540 N.am   98  GLY98      -0.1955
     72  CA         4.9860   -9.7090   -2.5480 C.3    98  GLY98       0.1869
     73  C          4.7810  -10.2620   -1.1440 C.2    98  GLY98       0.2309
     74  O          5.2070  -11.3750   -0.8670 O.2    98  GLY98      -0.2863
     75  N          2.0510  -10.4270    2.3650 N.3    99  LEU99      -0.1245
     76  CA         0.6860  -10.1650    2.8630 C.3    99  LEU99       0.1561
     77  C          0.6890   -9.0530    3.9290 C.2    99  LEU99       0.2260
     78  O         -0.3280   -8.3690    4.1440 O.2    99  LEU99      -0.2867
     79  CB         0.0930  -11.4410    3.4130 C.3    99  LEU99       0.0270
     80  CG         0.1190  -12.5810    2.3940 C.3    99  LEU99       0.0019
     81  CD1       -0.1010  -13.9290    3.0780 C.3    99  LEU99       0.0001
     82  CD2       -0.8930  -12.3140    1.2920 C.3    99  LEU99       0.0001
     83  N         11.8110  -21.3990   -7.0510 N.3   133  PHE133     -0.1241
     84  CA        10.7180  -20.7960   -6.3630 C.3   133  PHE133      0.1605
     85  C         10.4910  -21.3710   -4.9720 C.2   133  PHE133      0.2264
     86  O         10.2560  -20.6020   -4.0460 O.2   133  PHE133     -0.2867
     87  CB         9.4550  -20.8840   -7.2140 C.3   133  PHE133      0.0534
     88  CG         8.3620  -20.0080   -6.7170 C.ar  133  PHE133     -0.0203
     89  CD1        8.4320  -18.6450   -6.8830 C.ar  133  PHE133     -0.0042
     90  CD2        7.2690  -20.5480   -6.0570 C.ar  133  PHE133     -0.0042
     91  CE1        7.4200  -17.8180   -6.4190 C.ar  133  PHE133     -0.0003
     92  CE2        6.2490  -19.7320   -5.6040 C.ar  133  PHE133     -0.0003
     93  CZ         6.3240  -18.3680   -5.7820 C.ar  133  PHE133     -0.0000
     94  N         12.9660  -19.8200   -2.8610 N.3   136  ARG136     -0.1231
     95  CA        12.6910  -18.4070   -2.6160 C.3   136  ARG136      0.1694
     96  C         11.6830  -18.2620   -1.5120 C.2   136  ARG136      0.2591
     97  O         11.8380  -17.4740   -0.5740 O.2   136  ARG136     -0.2718
     98  CB        12.1560  -17.7700   -3.9030 C.3   136  ARG136      0.0321
     99  CG        11.5010  -16.3920   -3.7650 C.3   136  ARG136      0.0489
    100  CD        11.0700  -15.9450   -5.1550 C.3   136  ARG136      0.2205
    101  NE        12.2050  -15.9850   -6.0890 N.pl3 136  ARG136     -0.0865
    102  CZ        13.1740  -15.0620   -6.1740 C.cat 136  ARG136      0.5346
    103  NH1       13.1360  -13.9410   -5.4290 N.pl3 136  ARG136      0.1354
    104  NH2       14.1750  -15.2460   -7.0470 N.pl3 136  ARG136      0.1354
    105  N         10.6220  -19.0270   -1.6310 N.am  137  VAL137     -0.1980
    106  CA         9.6040  -18.9850   -0.6180 C.3   137  VAL137      0.1595
    107  C         10.1820  -19.2290    0.7580 C.2   137  VAL137      0.2287
    108  O          9.8600  -18.4810    1.6900 O.2   137  VAL137     -0.2864
    109  CB         8.4440  -19.9680   -0.8800 C.3   137  VAL137      0.0276
    110  CG1        7.4050  -19.8720    0.2540 C.3   137  VAL137      0.0022
    111  CG2        7.7630  -19.6360   -2.2060 C.3   137  VAL137      0.0022
    112  N         12.1320  -16.3170    2.0230 N.3   140  HIS140     -0.1226
    113  CA        11.2620  -15.1780    2.3140 C.3   140  HIS140      0.1752
    114  C         10.6420  -15.3710    3.6820 C.2   140  HIS140      0.2595
    115  O         10.6490  -14.4340    4.4890 O.2   140  HIS140     -0.2718
    116  CB        10.1830  -15.0440    1.2150 C.3   140  HIS140      0.0759
    117  CG         9.1230  -14.0230    1.5010 C.ar  140  HIS140      0.0818
    118  ND1        8.9040  -12.9340    0.6860 N.ar  140  HIS140     -0.2268
    119  CD2        8.1970  -13.9400    2.4910 C.ar  140  HIS140      0.1154
    120  CE1        7.9150  -12.2070    1.1730 C.ar  140  HIS140      0.1986
    121  NE2        7.4680  -12.7950    2.2650 N.ar  140  HIS140     -0.2212
    122  N         10.1130  -16.5830    3.9500 N.am  141  GLU141     -0.1979
    123  CA         9.5700  -16.8730    5.2730 C.3   141  GLU141      0.1602
    124  C         10.6250  -16.8780    6.3450 C.2   141  GLU141      0.2287
    125  O         10.3710  -16.3840    7.4700 O.2   141  GLU141     -0.2864
    126  CB         8.8410  -18.2100    5.3280 C.3   141  GLU141      0.0415
    127  CG         7.6920  -18.3470    4.3400 C.3   141  GLU141      0.1163
    128  CD         6.8430  -17.0920    4.1680 C.2   141  GLU141      0.3649
    129  OE1        6.5790  -16.2970    5.1060 O.co2 141  GLU141     -0.2457
    130  OE2        6.4170  -16.9250    3.0370 O.co2 141  GLU141     -0.2457
    131  N         11.3070  -13.4550    7.7590 N.3   144  HIS144     -0.1241
    132  CA        10.2740  -13.0140    8.7490 C.3   144  HIS144      0.1621
    133  C         10.6630  -13.4270   10.1680 C.2   144  HIS144      0.2264
    134  O         10.4320  -12.6860   11.1120 O.2   144  HIS144     -0.2867
    135  CB         8.8550  -13.5680    8.4470 C.3   144  HIS144      0.0745
    136  CG         8.1030  -12.7990    7.4170 C.ar  144  HIS144      0.0817
    137  ND1        7.7520  -11.4780    7.5930 N.ar  144  HIS144     -0.2268
    138  CD2        7.5720  -13.1700    6.2320 C.ar  144  HIS144      0.1154
    139  CE1        7.0650  -11.0550    6.5420 C.ar  144  HIS144      0.1986
    140  NE2        6.9570  -12.0540    5.6960 N.ar  144  HIS144     -0.2212
@<TRIPOS>BOND
     1    56    57   ar
     2    56    54   ar
     3    59    57   ar
     4    59    61   ar
     5    57    55   ar
     6    54    53   ar
     7    61    60   ar
     8    38    39    2
     9    38    37    1
    10    55    53   ar
    11    55    58   ar
    12    53    52    1
    13    28    27    2
    14    37    36    1
    15    37    40    1
    16    60    58   ar
    17    27    36   am
    18    27    26    1
    19    52    49    1
    20    40    41    1
    21    25    26    1
    22    26    29    1
    23    48    49    1
    24    42    41   ar
    25    42    44   ar
    26    49    50    1
    27    41    43   ar
    28    44    46   ar
    29    29    30    1
    30    87    88    1
    31    87    84    1
    32    83    84    1
    33   104   102    1
    34    89    88   ar
    35    89    91   ar
    36    43    45   ar
    37    88    90   ar
    38    50    51    2
    39    50    62   am
    40    30    31    1
    41    91    93   ar
    42    84    85    1
    43    46    45   ar
    44    46    47    1
    45   102   101    2
    46   102   103    1
    47   101   100    1
    48    90    92   ar
    49    93    92   ar
    50    62    63    1
    51   100    99    1
    52    31    32    1
    53    85    86    2
    54    32    33    2
    55    65    64    2
    56    63    64    1
    57    63    66    1
    58    64    71   am
    59    98    99    1
    60    98    95    1
    61    67    66    1
    62    67    68    1
    63    10     9    1
    64    71    72    1
    65    33    35    1
    66    33    34    1
    67    94    95    1
    68    70    68   ar
    69    95    96    1
    70    72    73    1
    71    68    69   ar
    72   111   109    1
    73    11     9    1
    74     9     6    1
    75   105    96   am
    76   105   106    1
    77    96    97    2
    78    73    74    2
    79   109   106    1
    80   109   110    1
    81     6     5    1
    82     6     7    1
    83   106   107    1
    84     5     3   am
    85     4     3    2
    86     3     2    1
    87     1     2    1
    88     7     8    2
    89     7    12   am
    90   118   120   ar
    91   118   117   ar
    92   107   108    2
    93   120   121   ar
    94   116   117    1
    95   116   113    1
    96    82    80    1
    97    12    13    1
    98   117   119   ar
    99   112   113    1
   100   121   119   ar
   101   113   114    1
   102    75    76    1
   103    80    81    1
   104    80    79    1
   105    13    14    1
   106    76    79    1
   107    76    77    1
   108   130   128   ar
   109    15    14    2
   110   114   122   am
   111   114   115    2
   112    77    78    2
   113   122   123    1
   114   128   127    1
   115   128   129   ar
   116   127   126    1
   117   123   126    1
   118   123   124    1
   119   140   138   ar
   120   140   139   ar
   121    24    22   am
   122   138   136   ar
   123   124   125    2
   124    23    22    2
   125   139   137   ar
   126    22    21    1
   127   136   137   ar
   128   136   135    1
   129   131   132    1
   130    21    20    1
   131   135   132    1
   132   132   133    1
   133    20    17    1
   134   133   134    2
   135    17    18    1
   136    17    16    1
   137    19    18    2
