@<TRIPOS>MOLECULE
tmp/4ntiB01.pdb
 67 64 0 0 0
SMALL
GASTEIGER

@<TRIPOS>ATOM
      1  N        -63.7700   -3.6120  -29.7770 N.3    44  GLY44      -0.1210
      2  CA       -63.4260   -4.3900  -30.9510 C.3    44  GLY44       0.1956
      3  C        -63.9010   -5.8220  -30.8180 C.2    44  GLY44       0.2612
      4  O        -63.7010   -6.6410  -31.7150 O.2    44  GLY44      -0.2717
      5  N        -64.5370   -6.1190  -29.6890 N.am   45  CYS45      -0.1970
      6  CA       -65.0140   -7.4660  -29.3960 C.3    45  CYS45       0.1712
      7  C        -66.5300   -7.5750  -29.5490 C.2    45  CYS45       0.2296
      8  O        -67.1460   -8.5000  -29.0180 O.2    45  CYS45      -0.2864
      9  CB       -64.6140   -7.8690  -27.9740 C.3    45  CYS45       0.0983
     10  SG       -62.8360   -8.0310  -27.7060 S.3    45  CYS45      -0.0798
     11  N        -68.3580   -6.9970  -32.7380 N.3    47  GLY47      -0.1210
     12  CA       -68.8280   -7.1180  -34.1070 C.3    47  GLY47       0.1956
     13  C        -68.4000   -5.9770  -35.0090 C.2    47  GLY47       0.2611
     14  O        -68.0640   -4.8890  -34.5370 O.2    47  GLY47      -0.2717
     15  N        -68.4220   -6.2320  -36.3150 N.am   48  ILE48      -0.1979
     16  CA       -67.9830   -5.2640  -37.3180 C.3    48  ILE48       0.1595
     17  C        -68.7520   -3.9490  -37.2680 C.2    48  ILE48       0.2287
     18  O        -68.1840   -2.8800  -37.4890 O.2    48  ILE48      -0.2864
     19  CB       -68.0930   -5.8470  -38.7460 C.3    48  ILE48       0.0276
     20  CG1      -68.9340   -7.1280  -38.7440 C.3    48  ILE48       0.0022
     21  CG2      -66.7130   -6.0970  -39.3280 C.3    48  ILE48       0.0022
     22  CD1      -70.4210   -6.8800  -38.8920 C.3    48  ILE48       0.0001
     23  N        -75.0450   -7.8140  -34.9530 N.3   153  ALA153     -0.1231
     24  CA       -73.7010   -8.3220  -35.2050 C.3   153  ALA153      0.1694
     25  C        -72.9600   -8.5950  -33.9040 C.2   153  ALA153      0.2592
     26  O        -71.7650   -8.8890  -33.9120 O.2   153  ALA153     -0.2718
     27  CB       -72.9140   -7.3550  -36.0780 C.3   153  ALA153      0.0304
     28  N        -73.6770   -8.4980  -32.7890 N.am  154  LEU154     -0.1966
     29  CA       -73.1010   -8.7970  -31.4840 C.3   154  LEU154      0.1713
     30  C        -72.7310  -10.2660  -31.3770 C.2   154  LEU154      0.2458
     31  O        -73.4320  -11.1280  -31.9090 O.2   154  LEU154     -0.2730
     32  CB       -74.0790   -8.4430  -30.3640 C.3   154  LEU154      0.0310
     33  CG       -74.1770   -6.9820  -29.9290 C.3   154  LEU154      0.0022
     34  CD1      -75.0990   -6.8700  -28.7320 C.3   154  LEU154      0.0001
     35  CD2      -72.8000   -6.4210  -29.6060 C.3   154  LEU154      0.0001
     36  N        -71.6230  -10.5580  -30.6850 N.am  155  PRO155     -0.2716
     37  CA       -71.2680  -11.9530  -30.4240 C.3   155  PRO155      0.1536
     38  C        -72.1340  -12.5060  -29.3030 C.2   155  PRO155      0.2599
     39  O        -72.8790  -11.7520  -28.6760 O.2   155  PRO155     -0.2715
     40  CB       -69.8150  -11.8550  -29.9620 C.3   155  PRO155      0.0310
     41  CG       -69.7260  -10.5040  -29.3170 C.3   155  PRO155      0.0237
     42  CD       -70.6420   -9.6150  -30.1150 C.3   155  PRO155      0.0939
     43  N        -72.0440  -13.8070  -29.0530 N.am  156  THR156     -0.1951
     44  CA       -72.7270  -14.3870  -27.9080 C.3   156  THR156      0.1897
     45  C        -71.9890  -13.9880  -26.6410 C.2   156  THR156      0.2313
     46  O        -70.8370  -13.5560  -26.6960 O.2   156  THR156     -0.2863
     47  CB       -72.7880  -15.9210  -27.9900 C.3   156  THR156      0.1794
     48  OG1      -71.4580  -16.4540  -28.0480 O.3   156  THR156     -0.2208
     49  CG2      -73.5690  -16.3590  -29.2210 C.3   156  THR156      0.0378
     50  N        -68.8920  -15.9880  -26.3950 N.3   159  HIS159     -0.1241
     51  CA       -67.8140  -15.6000  -27.2990 C.3   159  HIS159      0.1621
     52  C        -67.1540  -14.2770  -26.9110 C.2   159  HIS159      0.2264
     53  O        -65.9890  -14.0380  -27.2350 O.2   159  HIS159     -0.2867
     54  CB       -68.3070  -15.5560  -28.7470 C.3   159  HIS159      0.0745
     55  CG       -68.4170  -16.9060  -29.3860 C.ar  159  HIS159      0.0817
     56  ND1      -69.4970  -17.2790  -30.1580 N.ar  159  HIS159     -0.2268
     57  CD2      -67.5790  -17.9690  -29.3740 C.ar  159  HIS159      0.1154
     58  CE1      -69.3210  -18.5160  -30.5880 C.ar  159  HIS159      0.1986
     59  NE2      -68.1630  -18.9560  -30.1290 N.ar  159  HIS159     -0.2212
     60  N        -63.1620  -13.9250  -26.1860 N.3   163  MET163     -0.1245
     61  CA       -62.3200  -12.8790  -26.7580 C.3   163  MET163      0.1570
     62  C        -61.6840  -12.0110  -25.6740 C.2   163  MET163      0.2261
     63  O        -60.6320  -11.4100  -25.8860 O.2   163  MET163     -0.2867
     64  CB       -63.1180  -12.0210  -27.7450 C.3   163  MET163      0.0387
     65  CG       -63.4080  -12.7160  -29.0680 C.3   163  MET163      0.0595
     66  SD       -64.3300  -11.7120  -30.2490 S.3   163  MET163     -0.1393
     67  CE       -65.9760  -11.7620  -29.5490 C.3   163  MET163      0.0692
@<TRIPOS>BOND
     1    21    19    1
     2    22    20    1
     3    19    20    1
     4    19    16    1
     5    18    17    2
     6    16    17    1
     7    16    15    1
     8    15    13   am
     9    27    24    1
    10    24    23    1
    11    24    25    1
    12    13    14    2
    13    13    12    1
    14    12    11    1
    15    26    25    2
    16    25    28   am
    17    28    29    1
    18    31    30    2
    19     4     3    2
    20    29    30    1
    21    29    32    1
    22    30    36   am
    23     2     3    1
    24     2     1    1
    25     3     5   am
    26    36    37    1
    27    36    42    1
    28    58    56   ar
    29    58    59   ar
    30    37    40    1
    31    37    38    1
    32    32    33    1
    33    66    67    1
    34    66    65    1
    35    56    55   ar
    36    59    57   ar
    37    42    41    1
    38    40    41    1
    39    33    35    1
    40    33    34    1
    41     5     6    1
    42     7     6    1
    43     7     8    2
    44     6     9    1
    45    55    57   ar
    46    55    54    1
    47    38    43   am
    48    38    39    2
    49    49    47    1
    50    65    64    1
    51    43    44    1
    52    54    51    1
    53    48    47    1
    54    47    44    1
    55     9    10    1
    56    44    45    1
    57    64    61    1
    58    51    52    1
    59    51    50    1
    60    53    52    2
    61    61    60    1
    62    61    62    1
    63    46    45    2
    64    63    62    2
