@<TRIPOS>MOLECULE
tmp/4ntjA01.pdb
 91 87 0 0 0
SMALL
GASTEIGER

@<TRIPOS>ATOM
      1  N          1.4080  107.6570   35.4900 N.3     8  ILE8       -0.1245
      2  CA         2.3920  106.6110   35.8030 C.3     8  ILE8        0.1561
      3  C          2.5270  106.4640   37.3320 C.2     8  ILE8        0.2260
      4  O          2.4890  105.3480   37.8550 O.2     8  ILE8       -0.2867
      5  CB         3.7670  106.8980   35.1210 C.3     8  ILE8        0.0252
      6  CG1        3.6070  107.1330   33.5930 C.3     8  ILE8        0.0019
      7  CG2        4.7690  105.7690   35.4060 C.3     8  ILE8        0.0019
      8  CD1        4.7590  107.9120   32.9150 C.3     8  ILE8        0.0001
      9  N         -0.6530  103.8910   36.9320 N.3    12  LEU12      -0.1231
     10  CA         0.0650  102.6980   36.4700 C.3    12  LEU12       0.1693
     11  C          0.6750  101.8650   37.6120 C.2    12  LEU12       0.2592
     12  O          0.3390  100.6880   37.6990 O.2    12  LEU12      -0.2718
     13  CB         1.1450  103.0570   35.4370 C.3    12  LEU12       0.0284
     14  CG         1.8570  101.8950   34.7260 C.3    12  LEU12       0.0019
     15  CD1        0.9040  101.1140   33.8220 C.3    12  LEU12       0.0001
     16  CD2        3.0110  102.4060   33.9060 C.3    12  LEU12       0.0001
     17  N          1.5470  102.4500   38.4720 N.am   13  PHE13      -0.1976
     18  CA         2.1910  101.7190   39.5760 C.3    13  PHE13       0.1639
     19  C          1.1680  101.2030   40.6340 C.2    13  PHE13       0.2290
     20  O          1.2520  100.0100   40.9330 O.2    13  PHE13      -0.2864
     21  CB         3.3210  102.5270   40.2220 C.3    13  PHE13       0.0560
     22  CG         4.6220  102.3930   39.4620 C.ar   13  PHE13      -0.0200
     23  CD1        5.4800  101.3260   39.7030 C.ar   13  PHE13      -0.0042
     24  CD2        4.9760  103.3210   38.4870 C.ar   13  PHE13      -0.0042
     25  CE1        6.6750  101.1950   38.9900 C.ar   13  PHE13      -0.0003
     26  CE2        6.1720  103.1880   37.7730 C.ar   13  PHE13      -0.0003
     27  CZ         7.0160  102.1280   38.0340 C.ar   13  PHE13      -0.0000
     28  N         -0.3060   98.2620   38.9280 N.3    16  LEU16      -0.1245
     29  CA         0.7700   97.2880   38.7410 C.3    16  LEU16       0.1561
     30  C          0.9720   96.4630   40.0120 C.2    16  LEU16       0.2260
     31  O          1.2450   95.2700   39.9280 O.2    16  LEU16      -0.2867
     32  CB         2.0710   98.0180   38.3590 C.3    16  LEU16       0.0270
     33  CG         2.6780   97.7260   36.9810 C.3    16  LEU16       0.0019
     34  CD1        1.7240   98.0660   35.8590 C.3    16  LEU16       0.0001
     35  CD2        3.9650   98.5030   36.7870 C.3    16  LEU16       0.0001
     36  N         15.4710   87.7780   37.8350 N.3   304  ILE304     -0.1245
     37  CA        14.3540   88.6370   37.4180 C.3   304  ILE304      0.1561
     38  C         13.9680   89.6210   38.5540 C.2   304  ILE304      0.2260
     39  O         13.7690   90.8130   38.2910 O.2   304  ILE304     -0.2867
     40  CB        13.1230   87.7800   36.9610 C.3   304  ILE304      0.0252
     41  CG1       13.4080   87.0570   35.6250 C.3   304  ILE304      0.0019
     42  CG2       11.8350   88.6250   36.8490 C.3   304  ILE304      0.0019
     43  CD1       12.5610   85.7570   35.3660 C.3   304  ILE304      0.0001
     44  N         12.1530  106.5040   38.6890 N.3   335  TYR335     -0.1241
     45  CA        11.6100  105.4080   37.8960 C.3   335  TYR335      0.1605
     46  C         12.4850  104.1650   37.9470 C.2   335  TYR335      0.2264
     47  O         11.9350  103.0660   37.9660 O.2   335  TYR335     -0.2867
     48  CB        11.3430  105.8370   36.4510 C.3   335  TYR335      0.0534
     49  CG        10.1670  106.7820   36.3310 C.ar  335  TYR335     -0.0201
     50  CD1        8.8960  106.4090   36.7640 C.ar  335  TYR335     -0.0009
     51  CD2       10.3160  108.0420   35.7560 C.ar  335  TYR335     -0.0009
     52  CE1        7.8120  107.2790   36.6620 C.ar  335  TYR335      0.0417
     53  CE2        9.2370  108.9180   35.6420 C.ar  335  TYR335      0.0417
     54  CZ         7.9860  108.5310   36.0950 C.ar  335  TYR335      0.1957
     55  OH         6.9190  109.3880   35.9760 O.3   335  TYR335     -0.2866
     56  N         10.6450  100.9770   39.5640 N.3   339  SER339     -0.1217
     57  CA        10.5060   99.8510   38.6410 C.3   339  SER339      0.1889
     58  C         11.1970   98.5940   39.1580 C.2   339  SER339      0.2288
     59  O         10.6320   97.5110   39.0390 O.2   339  SER339     -0.2866
     60  CB        11.0720  100.2140   37.2770 C.3   339  SER339      0.2089
     61  OG        10.3420  101.3000   36.7380 O.3   339  SER339     -0.2183
     62  N          9.3550   97.0920   42.2180 N.3   342  TRP342     -0.1227
     63  CA         8.1970   96.3390   41.7610 C.3   342  TRP342      0.1737
     64  C          8.6360   94.9230   41.3300 C.2   342  TRP342      0.2595
     65  O          7.9290   93.9610   41.6320 O.2   342  TRP342     -0.2718
     66  CB         7.4760   97.0750   40.6310 C.3   342  TRP342      0.0564
     67  CG         6.2870   96.3270   40.1180 C.ar  342  TRP342      0.0003
     68  CD1        5.0270   96.3340   40.6390 C.ar  342  TRP342      0.0946
     69  CD2        6.2600   95.4180   39.0090 C.ar  342  TRP342      0.0152
     70  NE1        4.2100   95.5000   39.9100 N.ar  342  TRP342     -0.2442
     71  CE2        4.9410   94.9250   38.9030 C.ar  342  TRP342      0.0810
     72  CE3        7.2260   94.9770   38.0840 C.ar  342  TRP342      0.0012
     73  CZ2        4.5580   94.0160   37.9060 C.ar  342  TRP342      0.0191
     74  CZ3        6.8430   94.0850   37.0920 C.ar  342  TRP342      0.0001
     75  CH2        5.5250   93.6160   37.0070 C.ar  342  TRP342      0.0015
     76  N          9.8110   94.7990   40.6610 N.am  343  LEU343     -0.1980
     77  CA        10.3790   93.5160   40.2310 C.3   343  LEU343      0.1596
     78  C         10.7090   92.6450   41.4430 C.2   343  LEU343      0.2287
     79  O         10.5350   91.4330   41.4080 O.2   343  LEU343     -0.2864
     80  CB        11.6410   93.7300   39.3780 C.3   343  LEU343      0.0297
     81  CG        11.4380   94.1270   37.9140 C.3   343  LEU343      0.0022
     82  CD1       12.7420   94.5950   37.3040 C.3   343  LEU343      0.0001
     83  CD2       10.8590   92.9770   37.0940 C.3   343  LEU343      0.0001
     84  N          7.5480   91.1710   42.8330 N.3   346  LEU346     -0.1245
     85  CA         7.0960   90.1220   41.9200 C.3   346  LEU346      0.1561
     86  C          7.6200   88.7340   42.3930 C.2   346  LEU346      0.2260
     87  O          7.1100   87.7010   41.9520 O.2   346  LEU346     -0.2867
     88  CB         7.5520   90.4910   40.4770 C.3   346  LEU346      0.0270
     89  CG         7.4180   89.4870   39.3030 C.3   346  LEU346      0.0019
     90  CD1        5.9680   89.0510   39.0720 C.3   346  LEU346      0.0001
     91  CD2        8.0010   90.0710   38.0280 C.3   346  LEU346      0.0001
@<TRIPOS>BOND
     1     8     6    1
     2     6     5    1
     3    15    14    1
     4    16    14    1
     5    14    13    1
     6     5     7    1
     7     5     2    1
     8    43    41    1
     9    13    10    1
    10     1     2    1
    11    41    40    1
    12    53    51   ar
    13    53    54   ar
    14    51    49   ar
    15     2     3    1
    16    34    33    1
    17    55    54    1
    18    54    52   ar
    19    49    48    1
    20    49    50   ar
    21    48    45    1
    22    10     9    1
    23    10    11    1
    24    52    50   ar
    25    61    60    1
    26    35    33    1
    27    42    40    1
    28    40    37    1
    29    33    32    1
    30    75    74   ar
    31    75    73   ar
    32    74    72   ar
    33    83    81    1
    34    60    57    1
    35    82    81    1
    36     3     4    2
    37    37    36    1
    38    37    38    1
    39    11    12    2
    40    11    17   am
    41    26    27   ar
    42    26    24   ar
    43    45    46    1
    44    45    44    1
    45    73    71   ar
    46    81    80    1
    47    46    47    2
    48    91    89    1
    49    27    25   ar
    50    72    69   ar
    51    39    38    2
    52    32    29    1
    53    17    18    1
    54    24    22   ar
    55    57    58    1
    56    57    56    1
    57    29    28    1
    58    29    30    1
    59    71    69   ar
    60    71    70   ar
    61    25    23   ar
    62    69    67   ar
    63    59    58    2
    64    90    89    1
    65    89    88    1
    66    80    77    1
    67    22    23   ar
    68    22    21    1
    69    18    21    1
    70    18    19    1
    71    70    68   ar
    72    31    30    2
    73    67    66    1
    74    67    68   ar
    75    77    76    1
    76    77    78    1
    77    88    85    1
    78    66    63    1
    79    19    20    2
    80    76    64   am
    81    64    65    2
    82    64    63    1
    83    79    78    2
    84    63    62    1
    85    85    86    1
    86    85    84    1
    87    87    86    2
