@<TRIPOS>MOLECULE
tmp/4ntjA00.pdb
 204 194 0 0 0
SMALL
GASTEIGER

@<TRIPOS>ATOM
      1  N          5.5280  103.7710   56.8950 N.3    79  GLN79      -0.1245
      2  CA         6.9090  103.8290   57.3710 C.3    79  GLN79       0.1566
      3  C          7.2500  102.5080   58.0700 C.2    79  GLN79       0.2260
      4  O          8.3780  102.0270   57.9470 O.2    79  GLN79      -0.2867
      5  CB         7.1430  105.0350   58.2960 C.3    79  GLN79       0.0367
      6  CG         8.6190  105.3840   58.5270 C.3    79  GLN79       0.0905
      7  CD         9.4020  105.5690   57.2440 C.2    79  GLN79       0.2608
      8  OE1        9.2110  106.5400   56.4990 O.2    79  GLN79      -0.2717
      9  NE2       10.2940  104.6270   56.9530 N.am   79  GLN79      -0.0878
     10  N          6.9150   99.6610   55.1640 N.3    82  SER82      -0.1202
     11  CA         8.0810   99.6670   54.2690 C.3    82  SER82       0.2020
     12  C          9.2420   98.9150   54.9130 C.2    82  SER82       0.2618
     13  O         10.0150   98.2800   54.2050 O.2    82  SER82      -0.2717
     14  CB         8.5010  101.0880   53.9170 C.3    82  SER82       0.2103
     15  OG         8.9850  101.7770   55.0570 O.3    82  SER82      -0.2182
     16  N          9.3430   98.9690   56.2580 N.am   83  VAL83      -0.1979
     17  CA        10.3550   98.2500   57.0410 C.3    83  VAL83       0.1595
     18  C         10.0220   96.7530   56.9570 C.2    83  VAL83       0.2287
     19  O         10.9180   95.9570   56.6800 O.2    83  VAL83      -0.2864
     20  CB        10.4750   98.7750   58.5070 C.3    83  VAL83       0.0276
     21  CG1       11.2850   97.8240   59.3890 C.3    83  VAL83       0.0022
     22  CG2       11.0880  100.1730   58.5380 C.3    83  VAL83       0.0022
     23  N         11.0450   95.4200   53.4040 N.3    86  TYR86      -0.1227
     24  CA        12.4690   95.1660   53.2140 C.3    86  TYR86       0.1736
     25  C         12.9310   93.9980   54.0730 C.2    86  TYR86       0.2595
     26  O         13.8080   93.2620   53.6410 O.2    86  TYR86      -0.2718
     27  CB        13.3020   96.4210   53.4720 C.3    86  TYR86       0.0548
     28  CG        13.2430   97.4180   52.3330 C.ar   86  TYR86      -0.0200
     29  CD1       13.8580   97.1530   51.1130 C.ar   86  TYR86      -0.0009
     30  CD2       12.6210   98.6500   52.4930 C.ar   86  TYR86      -0.0009
     31  CE1       13.8020   98.0640   50.0600 C.ar   86  TYR86       0.0417
     32  CE2       12.5680   99.5740   51.4520 C.ar   86  TYR86       0.0417
     33  CZ        13.1650   99.2800   50.2380 C.ar   86  TYR86       0.1957
     34  OH        13.1200  100.1950   49.2130 O.3    86  TYR86      -0.2866
     35  N         12.2960   93.7910   55.2480 N.am   87  PHE87      -0.1976
     36  CA        12.5440   92.6690   56.1650 C.3    87  PHE87       0.1639
     37  C         12.2200   91.3530   55.4480 C.2    87  PHE87       0.2290
     38  O         13.0460   90.4460   55.3970 O.2    87  PHE87      -0.2864
     39  CB        11.6820   92.8550   57.4400 C.3    87  PHE87       0.0560
     40  CG        11.2670   91.6290   58.2310 C.ar   87  PHE87      -0.0200
     41  CD1       12.0580   91.1520   59.2700 C.ar   87  PHE87      -0.0042
     42  CD2       10.0370   91.0150   58.0020 C.ar   87  PHE87      -0.0042
     43  CE1       11.6500   90.0540   60.0320 C.ar   87  PHE87      -0.0003
     44  CE2        9.6380   89.9090   58.7540 C.ar   87  PHE87      -0.0003
     45  CZ        10.4390   89.4470   59.7750 C.ar   87  PHE87      -0.0000
     46  N         14.5860   90.4730   52.2650 N.3    90  TYR90      -0.1241
     47  CA        15.9200   89.9600   52.6060 C.3    90  TYR90       0.1605
     48  C         15.8170   88.6000   53.3180 C.2    90  TYR90       0.2264
     49  O         16.8340   87.9180   53.4520 O.2    90  TYR90      -0.2867
     50  CB        16.7720   90.9810   53.3910 C.3    90  TYR90       0.0534
     51  CG        17.2230   92.1170   52.4990 C.ar   90  TYR90      -0.0201
     52  CD1       18.2250   91.9290   51.5490 C.ar   90  TYR90      -0.0009
     53  CD2       16.5740   93.3490   52.5250 C.ar   90  TYR90      -0.0009
     54  CE1       18.5850   92.9450   50.6630 C.ar   90  TYR90       0.0417
     55  CE2       16.9170   94.3680   51.6380 C.ar   90  TYR90       0.0417
     56  CZ        17.9350   94.1670   50.7170 C.ar   90  TYR90       0.1957
     57  OH        18.2970   95.1770   49.8540 O.3    90  TYR90      -0.2866
     58  N         16.7210   89.0820   61.4040 N.3   130  MET130     -0.1245
     59  CA        16.0990   90.0960   60.5550 C.3   130  MET130      0.1570
     60  C         15.1660   90.9820   61.3500 C.2   130  MET130      0.2261
     61  O         15.2230   92.1980   61.1820 O.2   130  MET130     -0.2867
     62  CB        15.3510   89.4630   59.3790 C.3   130  MET130      0.0387
     63  CG        16.2630   88.8570   58.3560 C.3   130  MET130      0.0595
     64  SD        17.3760   90.0270   57.5660 S.3   130  MET130     -0.1393
     65  CE        18.1750   88.9210   56.4320 C.3   130  MET130      0.0692
     66  N         17.2500   93.3630   63.6290 N.3   133  LEU133     -0.1231
     67  CA        17.8730   94.4870   62.9190 C.3   133  LEU133      0.1693
     68  C         16.8000   95.4260   62.2870 C.2   133  LEU133      0.2592
     69  O         17.1020   96.5970   62.0580 O.2   133  LEU133     -0.2718
     70  CB        18.9610   94.0410   61.9100 C.3   133  LEU133      0.0284
     71  CG        18.5850   93.6460   60.4880 C.3   133  LEU133      0.0019
     72  CD1       19.1860   94.5970   59.5140 C.3   133  LEU133      0.0001
     73  CD2       19.1680   92.3160   60.1380 C.3   133  LEU133      0.0001
     74  N         15.5440   94.9440   62.1020 N.am  134  SER134     -0.1952
     75  CA        14.4120   95.7460   61.6070 C.3   134  SER134      0.1924
     76  C         13.7860   96.6050   62.7150 C.2   134  SER134      0.2314
     77  O         13.3540   97.7240   62.4420 O.2   134  SER134     -0.2863
     78  CB        13.3240   94.8510   61.0260 C.3   134  SER134      0.2116
     79  OG        13.7000   94.3090   59.7750 O.3   134  SER134     -0.2180
     80  N         14.4820  100.4200   63.2840 N.3   137  ASN137     -0.1240
     81  CA        14.0030  101.1860   62.1220 C.3   137  ASN137      0.1653
     82  C         12.4830  101.4540   62.1920 C.2   137  ASN137      0.2266
     83  O         11.9970  102.3930   61.5490 O.2   137  ASN137     -0.2867
     84  CB        14.3470  100.4630   60.8070 C.3   137  ASN137      0.1155
     85  CG        15.6950  100.8020   60.2020 C.2   137  ASN137      0.2627
     86  OD1       16.5250  101.5090   60.7840 O.2   137  ASN137     -0.2716
     87  ND2       15.9370  100.3080   58.9970 N.am  137  ASN137     -0.0877
     88  N         20.2290  103.3040   60.2010 N.3   149  HIS149     -0.1241
     89  CA        19.6620  103.0940   58.8700 C.3   149  HIS149      0.1621
     90  C         20.7440  102.7090   57.8780 C.2   149  HIS149      0.2264
     91  O         20.5330  101.7870   57.1020 O.2   149  HIS149     -0.2867
     92  CB        18.9140  104.3390   58.3770 C.3   149  HIS149      0.0745
     93  CG        17.4510  104.1110   58.1970 C.ar  149  HIS149      0.0817
     94  ND1       16.5310  104.5720   59.1230 N.ar  149  HIS149     -0.2268
     95  CD2       16.7930  103.4560   57.2100 C.ar  149  HIS149      0.1154
     96  CE1       15.3460  104.1980   58.6650 C.ar  149  HIS149      0.1986
     97  NE2       15.4550  103.5210   57.5160 N.ar  149  HIS149     -0.2212
     98  N         21.9690   98.9800   58.7990 N.3   152  VAL152     -0.1231
     99  CA        20.9520   98.0320   58.3370 C.3   152  VAL152      0.1692
    100  C         21.0460   97.8510   56.8150 C.2   152  VAL152      0.2592
    101  O         21.1210   96.7130   56.3580 O.2   152  VAL152     -0.2718
    102  CB        19.5480   98.5010   58.7910 C.3   152  VAL152      0.0266
    103  CG1       18.4310   97.8350   57.9950 C.3   152  VAL152      0.0020
    104  CG2       19.3610   98.2600   60.2750 C.3   152  VAL152      0.0020
    105  N         21.0850   98.9640   56.0500 N.am  153  ASN153     -0.1974
    106  CA        21.2070   98.9500   54.5920 C.3   153  ASN153      0.1688
    107  C         22.5130   98.2660   54.1570 C.2   153  ASN153      0.2292
    108  O         22.5020   97.5330   53.1670 O.2   153  ASN153     -0.2864
    109  CB        21.1250  100.3700   54.0190 C.3   153  ASN153      0.1181
    110  CG        19.7890  101.0720   54.1840 C.2   153  ASN153      0.2629
    111  OD1       18.9070  100.6640   54.9600 O.2   153  ASN153     -0.2716
    112  ND2       19.6370  102.1960   53.4990 N.am  153  ASN153     -0.0877
    113  N         22.0610   94.3930   54.8390 N.3   156  CYS156     -0.1221
    114  CA        21.1410   93.8820   53.8210 C.3   156  CYS156      0.1808
    115  C         21.8080   93.7490   52.4520 C.2   156  CYS156      0.2601
    116  O         21.5350   92.7660   51.7670 O.2   156  CYS156     -0.2717
    117  CB        19.8870   94.7410   53.7430 C.3   156  CYS156      0.0970
    118  SG        18.7760   94.5580   55.1640 S.3   156  CYS156     -0.0800
    119  N         22.6920   94.6930   52.0590 N.am  157  GLN157     -0.1979
    120  CA        23.4210   94.5900   50.7810 C.3   157  GLN157      0.1601
    121  C         24.3810   93.4040   50.8330 C.2   157  GLN157      0.2287
    122  O         24.4510   92.6380   49.8720 O.2   157  GLN157     -0.2864
    123  CB        24.1880   95.8800   50.4190 C.3   157  GLN157      0.0394
    124  CG        23.3320   97.0900   50.0250 C.3   157  GLN157      0.0908
    125  CD        22.2580   96.8030   49.0070 C.2   157  GLN157      0.2608
    126  OE1       21.0630   96.8720   49.3170 O.2   157  GLN157     -0.2717
    127  NE2       22.6520   96.4900   47.7690 N.am  157  GLN157     -0.0878
    128  N         17.4470   95.5430   41.1220 N.3   309  PHE309     -0.1241
    129  CA        17.4060   96.4970   42.2320 C.3   309  PHE309      0.1605
    130  C         18.7940   96.7770   42.8270 C.2   309  PHE309      0.2264
    131  O         19.1830   97.9420   42.9530 O.2   309  PHE309     -0.2867
    132  CB        16.4490   95.9890   43.3330 C.3   309  PHE309      0.0534
    133  CG        16.3350   96.8680   44.5590 C.ar  309  PHE309     -0.0203
    134  CD1       15.4830   97.9690   44.5710 C.ar  309  PHE309     -0.0042
    135  CD2       17.0500   96.5750   45.7140 C.ar  309  PHE309     -0.0042
    136  CE1       15.3630   98.7700   45.7110 C.ar  309  PHE309     -0.0003
    137  CE2       16.9340   97.3780   46.8520 C.ar  309  PHE309     -0.0003
    138  CZ        16.0990   98.4780   46.8410 C.ar  309  PHE309     -0.0000
    139  N         21.3350   98.3430   40.1380 N.3   312  ALA312     -0.1231
    140  CA        20.9870   99.7420   39.8890 C.3   312  ALA312      0.1694
    141  C         21.4100  100.6520   41.0450 C.2   312  ALA312      0.2591
    142  O         21.7070  101.8240   40.8180 O.2   312  ALA312     -0.2718
    143  CB        19.4940   99.8740   39.6550 C.3   312  ALA312      0.0304
    144  N         21.4410  100.1090   42.2740 N.am  313  ARG313     -0.1980
    145  CA        21.8070  100.8390   43.4860 C.3   313  ARG313      0.1597
    146  C         23.2880  101.2570   43.4810 C.2   313  ARG313      0.2287
    147  O         23.5940  102.3290   44.0020 O.2   313  ARG313     -0.2864
    148  CB        21.4910   99.9980   44.7350 C.3   313  ARG313      0.0334
    149  CG        21.4960  100.7980   46.0310 C.3   313  ARG313      0.0492
    150  CD        21.2500   99.9310   47.2450 C.3   313  ARG313      0.2205
    151  NE        21.3930  100.6990   48.4800 N.pl3 313  ARG313     -0.0865
    152  CZ        22.5380  100.8650   49.1380 C.cat 313  ARG313      0.5346
    153  NH1       23.6600  100.3140   48.6870 N.pl3 313  ARG313      0.1354
    154  NH2       22.5690  101.5830   50.2530 N.pl3 313  ARG313      0.1354
    155  N         24.1540  104.7830   41.9910 N.3   316  TYR316     -0.1227
    156  CA        23.4990  105.7780   42.8380 C.3   316  TYR316      0.1736
    157  C         24.0360  105.8030   44.2780 C.2   316  TYR316      0.2596
    158  O         23.5650  106.6240   45.0680 O.2   316  TYR316     -0.2718
    159  CB        21.9730  105.5460   42.8660 C.3   316  TYR316      0.0548
    160  CG        21.2780  105.8250   41.5510 C.ar  316  TYR316     -0.0200
    161  CD1       21.1610  107.1260   41.0620 C.ar  316  TYR316     -0.0009
    162  CD2       20.7010  104.7960   40.8120 C.ar  316  TYR316     -0.0009
    163  CE1       20.5170  107.3890   39.8530 C.ar  316  TYR316      0.0417
    164  CE2       20.0540  105.0470   39.6030 C.ar  316  TYR316      0.0417
    165  CZ        19.9650  106.3460   39.1270 C.ar  316  TYR316      0.1957
    166  OH        19.3280  106.6020   37.9370 O.3   316  TYR316     -0.2866
    167  N         25.0090  104.9420   44.6300 N.am  317  THR317     -0.1953
    168  CA        25.5070  104.9310   46.0050 C.3   317  THR317      0.1897
    169  C         27.0190  105.3250   46.0900 C.2   317  THR317      0.2313
    170  O         27.5410  105.3970   47.2060 O.2   317  THR317     -0.2863
    171  CB        25.1320  103.6030   46.7100 C.3   317  THR317      0.1794
    172  OG1       25.0830  103.7950   48.1240 O.3   317  THR317     -0.2208
    173  CG2       26.0290  102.4300   46.3440 C.3   317  THR317      0.0378
    174  N         16.1620  108.5550   38.4770 N.3   333  LEU333     -0.1245
    175  CA        16.4280  107.8440   39.7310 C.3   333  LEU333      0.1561
    176  C         15.1130  107.2880   40.2940 C.2   333  LEU333      0.2260
    177  O         15.0910  106.1340   40.7250 O.2   333  LEU333     -0.2867
    178  CB        17.1340  108.7780   40.7530 C.3   333  LEU333      0.0270
    179  CG        17.0700  108.4370   42.2600 C.3   333  LEU333      0.0019
    180  CD1       17.8110  107.1390   42.5950 C.3   333  LEU333      0.0001
    181  CD2       17.6250  109.5670   43.0830 C.3   333  LEU333      0.0001
    182  N         13.8220  104.3170   38.0280 N.3   336  VAL336     -0.1231
    183  CA        14.7200  103.1610   38.1530 C.3   336  VAL336      0.1692
    184  C         14.4160  102.4530   39.4920 C.2   336  VAL336      0.2591
    185  O         14.1220  101.2570   39.4830 O.2   336  VAL336     -0.2718
    186  CB        16.2210  103.5450   38.0010 C.3   336  VAL336      0.0266
    187  CG1       17.1440  102.4720   38.5740 C.3   336  VAL336      0.0020
    188  CG2       16.5710  103.8260   36.5400 C.3   336  VAL336      0.0020
    189  N         14.4040  103.2060   40.6130 N.am  337  LYS337     -0.1980
    190  CA        14.1270  102.6580   41.9430 C.3   337  LYS337      0.1596
    191  C         12.7200  102.0390   42.0280 C.2   337  LYS337      0.2287
    192  O         12.5890  100.9270   42.5380 O.2   337  LYS337     -0.2864
    193  CB        14.3070  103.7280   43.0430 C.3   337  LYS337      0.0298
    194  CG        14.3210  103.1300   44.4530 C.3   337  LYS337      0.0038
    195  CD        14.3520  104.1670   45.5590 C.3   337  LYS337      0.0206
    196  CE        14.2030  103.5190   46.9160 C.3   337  LYS337      0.1093
    197  NZ        14.2650  104.5190   48.0140 N.3   337  LYS337     -0.1314
    198  N         12.4120   98.7320   39.7180 N.3   340  THR340     -0.1218
    199  CA        13.1750   97.6090   40.2610 C.3   340  THR340      0.1862
    200  C         12.5610   97.1140   41.5880 C.2   340  THR340      0.2287
    201  O         12.6280   95.9110   41.8540 O.2   340  THR340     -0.2866
    202  CB        14.6520   97.9570   40.4070 C.3   340  THR340      0.1770
    203  OG1       14.7910   99.1080   41.2310 O.3   340  THR340     -0.2211
    204  CG2       15.3450   98.1680   39.0620 C.3   340  THR340      0.0375
@<TRIPOS>BOND
     1   188   186    1
     2   166   165    1
     3   186   183    1
     4   186   187    1
     5   182   183    1
     6   183   184    1
     7   174   175    1
     8   204   202    1
     9   165   164   ar
    10   165   163   ar
    11   185   184    2
    12   184   189   am
    13   164   162   ar
    14   143   140    1
    15   198   199    1
    16   175   176    1
    17   175   178    1
    18   163   161   ar
    19   140   139    1
    20   140   141    1
    21   199   202    1
    22   199   200    1
    23   176   177    2
    24   202   203    1
    25   189   190    1
    26   178   179    1
    27   162   160   ar
    28   142   141    2
    29   141   144   am
    30   161   160   ar
    31   128   129    1
    32   160   159    1
    33   200   201    2
    34   190   191    1
    35   190   193    1
    36   155   156    1
    37   191   192    2
    38   129   130    1
    39   129   132    1
    40   179   180    1
    41   179   181    1
    42   144   145    1
    43   130   131    2
    44   156   159    1
    45   156   157    1
    46   193   194    1
    47   132   133    1
    48   146   145    1
    49   146   147    2
    50   145   148    1
    51   157   167   am
    52   157   158    2
    53   194   195    1
    54   133   134   ar
    55   133   135   ar
    56   134   136   ar
    57   167   168    1
    58   148   149    1
    59   195   196    1
    60   136   138   ar
    61   135   137   ar
    62   168   169    1
    63   168   171    1
    64   149   150    1
    65   169   170    2
    66   173   171    1
    67   171   172    1
    68   138   137   ar
    69   196   197    1
    70   150   151    1
    71   127   125   am
    72   151   152    2
    73   153   152    1
    74   125   126    2
    75   125   124    1
    76   152   154    1
    77    34    33    1
    78    57    56    1
    79   122   121    2
    80   124   123    1
    81    31    33   ar
    82    31    29   ar
    83    33    32   ar
    84   123   120    1
    85    54    56   ar
    86    54    52   ar
    87    56    55   ar
    88   120   121    1
    89   120   119    1
    90    29    28   ar
    91    32    30   ar
    92    52    51   ar
    93    55    53   ar
    94   116   115    2
    95   119   115   am
    96    46    47    1
    97    28    30   ar
    98    28    27    1
    99   115   114    1
   100    51    53   ar
   101    51    50    1
   102    47    48    1
   103    47    50    1
   104   108   107    2
   105    24    23    1
   106    24    27    1
   107    24    25    1
   108    48    49    2
   109   112   110   am
   110    26    25    2
   111   117   114    1
   112   117   118    1
   113   114   113    1
   114    14    11    1
   115    14    15    1
   116   109   110    1
   117   109   106    1
   118    25    35   am
   119   107   106    1
   120   110   111    2
   121    13    12    2
   122    11    12    1
   123    11    10    1
   124   106   105    1
   125    12    16   am
   126    35    36    1
   127    38    37    2
   128    37    36    1
   129   105   100   am
   130    36    39    1
   131    16    17    1
   132   101   100    2
   133    65    64    1
   134     8     7    2
   135    19    18    2
   136   100    99    1
   137     1     2    1
   138     9     7   am
   139    18    17    1
   140    17    20    1
   141    91    90    2
   142    95    97   ar
   143    95    93   ar
   144     7     6    1
   145     2     3    1
   146     2     5    1
   147    39    40    1
   148    97    96   ar
   149    64    63    1
   150    90    89    1
   151     4     3    2
   152   103   102    1
   153    42    40   ar
   154    42    44   ar
   155    93    92    1
   156    93    94   ar
   157    40    41   ar
   158     5     6    1
   159    99   102    1
   160    99    98    1
   161    63    62    1
   162    92    89    1
   163    20    22    1
   164    20    21    1
   165    96    94   ar
   166    44    45   ar
   167   102   104    1
   168    89    88    1
   169    87    85   am
   170    41    43   ar
   171    62    59    1
   172    72    71    1
   173    45    43   ar
   174    79    78    1
   175    73    71    1
   176    85    86    2
   177    85    84    1
   178    71    70    1
   179    59    60    1
   180    59    58    1
   181    84    81    1
   182    78    75    1
   183    61    60    2
   184    83    82    2
   185    75    74    1
   186    75    76    1
   187    70    67    1
   188    69    68    2
   189    74    68   am
   190    81    82    1
   191    81    80    1
   192    68    67    1
   193    77    76    2
   194    67    66    1
