@<TRIPOS>MOLECULE
tmp/4ntjA03.pdb
 90 88 0 0 0
SMALL
GASTEIGER

@<TRIPOS>ATOM
      1  N         17.3080   86.2740   39.4960 N.3   303  PHE303     -0.1227
      2  CA        17.7740   87.3000   38.5670 C.3   303  PHE303      0.1736
      3  C         16.6870   88.2650   38.1450 C.2   303  PHE303      0.2595
      4  O         16.9640   89.4570   38.0970 O.2   303  PHE303     -0.2718
      5  CB        18.4220   86.6720   37.3340 C.3   303  PHE303      0.0547
      6  CG        19.9180   86.5540   37.4710 C.ar  303  PHE303     -0.0202
      7  CD1       20.7620   87.4670   36.8510 C.ar  303  PHE303     -0.0042
      8  CD2       20.4850   85.5520   38.2530 C.ar  303  PHE303     -0.0042
      9  CE1       22.1490   87.3660   36.9940 C.ar  303  PHE303     -0.0003
     10  CE2       21.8690   85.4540   38.3970 C.ar  303  PHE303     -0.0003
     11  CZ        22.6920   86.3570   37.7640 C.ar  303  PHE303     -0.0000
     12  N         15.4710   87.7780   37.8350 N.am  304  ILE304     -0.1980
     13  CA        14.3540   88.6370   37.4180 C.3   304  ILE304      0.1595
     14  C         13.9680   89.6210   38.5540 C.2   304  ILE304      0.2287
     15  O         13.7690   90.8130   38.2910 O.2   304  ILE304     -0.2864
     16  CB        13.1230   87.7800   36.9610 C.3   304  ILE304      0.0276
     17  CG1       13.4080   87.0570   35.6250 C.3   304  ILE304      0.0022
     18  CG2       11.8350   88.6250   36.8490 C.3   304  ILE304      0.0022
     19  CD1       12.5610   85.7570   35.3660 C.3   304  ILE304      0.0001
     20  N         18.2150   90.9130   41.3690 N.3   307  VAL307     -0.1231
     21  CA        19.4240   91.3840   40.6840 C.3   307  VAL307      0.1678
     22  C         19.2410   92.8340   40.1520 C.2   307  VAL307      0.2434
     23  O         20.1380   93.6300   40.4350 O.2   307  VAL307     -0.2733
     24  CB        19.8900   90.3730   39.5820 C.3   307  VAL307      0.0265
     25  CG1       20.7680   91.0200   38.5130 C.3   307  VAL307      0.0020
     26  CG2       20.6030   89.1750   40.2080 C.3   307  VAL307      0.0020
     27  N         18.1360   93.2390   39.4510 N.am  308  PRO308     -0.2729
     28  CA        18.0790   94.6160   38.9230 C.3   308  PRO308      0.1401
     29  C         18.1690   95.7060   39.9920 C.2   308  PRO308      0.2269
     30  O         18.9190   96.6610   39.7950 O.2   308  PRO308     -0.2865
     31  CB        16.7330   94.6640   38.1910 C.3   308  PRO308      0.0296
     32  CG        16.4470   93.2570   37.8370 C.3   308  PRO308      0.0237
     33  CD        16.9580   92.4670   39.0000 C.3   308  PRO308      0.0939
     34  N         21.7840   95.9580   41.5600 N.3   311  PHE311     -0.1227
     35  CA        22.7700   96.3810   40.5660 C.3   311  PHE311      0.1736
     36  C         22.5940   97.8820   40.2760 C.2   311  PHE311      0.2595
     37  O         23.5830   98.6100   40.2310 O.2   311  PHE311     -0.2718
     38  CB        22.6760   95.5400   39.2830 C.3   311  PHE311      0.0547
     39  CG        23.6390   94.3780   39.2720 C.ar  311  PHE311     -0.0202
     40  CD1       23.3330   93.1930   39.9330 C.ar  311  PHE311     -0.0042
     41  CD2       24.8720   94.4810   38.6400 C.ar  311  PHE311     -0.0042
     42  CE1       24.2330   92.1220   39.9380 C.ar  311  PHE311     -0.0003
     43  CE2       25.7750   93.4120   38.6530 C.ar  311  PHE311     -0.0003
     44  CZ        25.4460   92.2380   39.2960 C.ar  311  PHE311     -0.0000
     45  N         21.3350   98.3430   40.1380 N.am  312  ALA312     -0.1980
     46  CA        20.9870   99.7420   39.8890 C.3   312  ALA312      0.1597
     47  C         21.4100  100.6520   41.0450 C.2   312  ALA312      0.2287
     48  O         21.7070  101.8240   40.8180 O.2   312  ALA312     -0.2864
     49  CB        19.4940   99.8740   39.6550 C.3   312  ALA312      0.0319
     50  N         25.5470  102.4750   40.9970 N.3   315  PRO315     -0.2102
     51  CA        25.8800  103.8310   40.5130 C.3   315  PRO315      0.1504
     52  C         25.3430  104.9670   41.3880 C.2   315  PRO315      0.2575
     53  O         26.0140  105.9890   41.5230 O.2   315  PRO315     -0.2718
     54  CB        25.2270  103.8810   39.1270 C.3   315  PRO315      0.0282
     55  CG        25.1070  102.4670   38.7080 C.3   315  PRO315      0.0208
     56  CD        24.8070  101.7220   39.9600 C.3   315  PRO315      0.0893
     57  N         24.1540  104.7830   41.9910 N.am  316  TYR316     -0.1977
     58  CA        23.4990  105.7780   42.8380 C.3   316  TYR316      0.1639
     59  C         24.0360  105.8030   44.2780 C.2   316  TYR316      0.2290
     60  O         23.5650  106.6240   45.0680 O.2   316  TYR316     -0.2864
     61  CB        21.9730  105.5460   42.8660 C.3   316  TYR316      0.0560
     62  CG        21.2780  105.8250   41.5510 C.ar  316  TYR316     -0.0198
     63  CD1       21.1610  107.1260   41.0620 C.ar  316  TYR316     -0.0009
     64  CD2       20.7010  104.7960   40.8120 C.ar  316  TYR316     -0.0009
     65  CE1       20.5170  107.3890   39.8530 C.ar  316  TYR316      0.0417
     66  CE2       20.0540  105.0470   39.6030 C.ar  316  TYR316      0.0417
     67  CZ        19.9650  106.3460   39.1270 C.ar  316  TYR316      0.1957
     68  OH        19.3280  106.6020   37.9370 O.3   316  TYR316     -0.2866
     69  N         13.8220  104.3170   38.0280 N.3   336  VAL336     -0.1245
     70  CA        14.7200  103.1610   38.1530 C.3   336  VAL336      0.1561
     71  C         14.4160  102.4530   39.4920 C.2   336  VAL336      0.2260
     72  O         14.1220  101.2570   39.4830 O.2   336  VAL336     -0.2867
     73  CB        16.2210  103.5450   38.0010 C.3   336  VAL336      0.0252
     74  CG1       17.1440  102.4720   38.5740 C.3   336  VAL336      0.0019
     75  CG2       16.5710  103.8260   36.5400 C.3   336  VAL336      0.0019
     76  N         12.4120   98.7320   39.7180 N.3   340  THR340     -0.1218
     77  CA        13.1750   97.6090   40.2610 C.3   340  THR340      0.1862
     78  C         12.5610   97.1140   41.5880 C.2   340  THR340      0.2287
     79  O         12.6280   95.9110   41.8540 O.2   340  THR340     -0.2866
     80  CB        14.6520   97.9570   40.4070 C.3   340  THR340      0.1770
     81  OG1       14.7910   99.1080   41.2310 O.3   340  THR340     -0.2211
     82  CG2       15.3450   98.1680   39.0620 C.3   340  THR340      0.0375
     83  N          9.8110   94.7990   40.6610 N.3   343  LEU343     -0.1245
     84  CA        10.3790   93.5160   40.2310 C.3   343  LEU343      0.1561
     85  C         10.7090   92.6450   41.4430 C.2   343  LEU343      0.2260
     86  O         10.5350   91.4330   41.4080 O.2   343  LEU343     -0.2867
     87  CB        11.6410   93.7300   39.3780 C.3   343  LEU343      0.0270
     88  CG        11.4380   94.1270   37.9140 C.3   343  LEU343      0.0019
     89  CD1       12.7420   94.5950   37.3040 C.3   343  LEU343      0.0001
     90  CD2       10.8590   92.9770   37.0940 C.3   343  LEU343      0.0001
@<TRIPOS>BOND
     1    19    17    1
     2    17    16    1
     3    75    73    1
     4    18    16    1
     5     7     9   ar
     6     7     6   ar
     7    16    13    1
     8     9    11   ar
     9    90    88    1
    10    89    88    1
    11     5     6    1
    12     5     2    1
    13    13    12    1
    14    13    14    1
    15     6     8   ar
    16    11    10   ar
    17    12     3   am
    18    32    31    1
    19    32    33    1
    20    88    87    1
    21    68    67    1
    22    73    70    1
    23    73    74    1
    24    69    70    1
    25     4     3    2
    26     3     2    1
    27    70    71    1
    28    31    28    1
    29     8    10   ar
    30    15    14    2
    31    25    24    1
    32     2     1    1
    33    41    43   ar
    34    41    39   ar
    35    43    44   ar
    36    55    54    1
    37    55    56    1
    38    28    27    1
    39    28    29    1
    40    33    27    1
    41    82    80    1
    42    67    66   ar
    43    67    65   ar
    44    54    51    1
    45    39    38    1
    46    39    40   ar
    47    38    35    1
    48    44    42   ar
    49    87    84    1
    50    27    22   am
    51    72    71    2
    52    24    26    1
    53    24    21    1
    54    66    64   ar
    55    49    46    1
    56    76    77    1
    57    30    29    2
    58    65    63   ar
    59    46    45    1
    60    46    47    1
    61    40    42   ar
    62    56    50    1
    63    45    36   am
    64    22    23    2
    65    22    21    1
    66    84    83    1
    67    84    85    1
    68    37    36    2
    69    77    80    1
    70    77    78    1
    71    36    35    1
    72    80    81    1
    73    51    50    1
    74    51    52    1
    75    35    34    1
    76    21    20    1
    77    64    62   ar
    78    48    47    2
    79    63    62   ar
    80    52    53    2
    81    52    57   am
    82    86    85    2
    83    62    61    1
    84    78    79    2
    85    57    58    1
    86    58    61    1
    87    58    59    1
    88    59    60    2
