@<TRIPOS>MOLECULE
tmp/4ntjA04.pdb
 89 80 0 0 0
SMALL
GASTEIGER

@<TRIPOS>ATOM
      1  N         15.0670   69.2040   54.0840 N.3    43  ASN43      -0.1240
      2  CA        15.4240   70.6180   54.3020 C.3    43  ASN43       0.1653
      3  C         14.6720   71.5260   53.3410 C.2    43  ASN43       0.2266
      4  O         14.1830   72.5840   53.7380 O.2    43  ASN43      -0.2867
      5  CB        16.9290   70.8360   54.1090 C.3    43  ASN43       0.1155
      6  CG        17.8220   70.0330   55.0050 C.2    43  ASN43       0.2627
      7  OD1       17.3780   69.3410   55.9220 O.2    43  ASN43      -0.2716
      8  ND2       19.1140   70.1100   54.7470 N.am   43  ASN43      -0.0877
      9  N         12.4920   74.9980   53.9600 N.3    47  PHE47      -0.1241
     10  CA        12.8510   76.3110   53.4250 C.3    47  PHE47       0.1605
     11  C         11.7180   76.8640   52.5420 C.2    47  PHE47       0.2264
     12  O         11.4180   78.0650   52.6260 O.2    47  PHE47      -0.2867
     13  CB        14.1970   76.2650   52.6790 C.3    47  PHE47       0.0534
     14  CG        15.3630   75.7510   53.5000 C.ar   47  PHE47      -0.0203
     15  CD1       15.4950   76.0870   54.8460 C.ar   47  PHE47      -0.0042
     16  CD2       16.3360   74.9420   52.9260 C.ar   47  PHE47      -0.0042
     17  CE1       16.5600   75.5920   55.6070 C.ar   47  PHE47      -0.0003
     18  CE2       17.4070   74.4620   53.6850 C.ar   47  PHE47      -0.0003
     19  CZ        17.5130   74.7940   55.0190 C.ar   47  PHE47      -0.0000
     20  N         19.5410   79.2890   50.4660 N.3    98  LEU98      -0.1245
     21  CA        19.5120   77.9840   51.1350 C.3    98  LEU98       0.1561
     22  C         18.8990   76.9210   50.2210 C.2    98  LEU98       0.2260
     23  O         19.3980   75.7960   50.1930 O.2    98  LEU98      -0.2867
     24  CB        18.7400   78.0300   52.4720 C.3    98  LEU98       0.0270
     25  CG        19.3090   78.8760   53.6260 C.3    98  LEU98       0.0019
     26  CD1       18.4440   78.7420   54.8690 C.3    98  LEU98       0.0001
     27  CD2       20.7470   78.4950   53.9680 C.3    98  LEU98       0.0001
     28  N         21.5630   75.9460   47.5420 N.3   101  ILE101     -0.1231
     29  CA        22.5650   75.0300   48.1100 C.3   101  ILE101      0.1692
     30  C         21.9810   73.6200   48.2160 C.2   101  ILE101      0.2592
     31  O         22.6300   72.6680   47.7750 O.2   101  ILE101     -0.2718
     32  CB        23.1280   75.5230   49.4810 C.3   101  ILE101      0.0266
     33  CG1       23.8640   76.8780   49.3380 C.3   101  ILE101      0.0019
     34  CG2       24.0610   74.4700   50.1110 C.3   101  ILE101      0.0020
     35  CD1       24.2130   77.5920   50.6430 C.3   101  ILE101      0.0001
     36  N         20.7540   73.4950   48.7630 N.am  102  ASP102     -0.1974
     37  CA        20.0500   72.2190   48.9240 C.3   102  ASP102      0.1709
     38  C         19.8850   71.5120   47.5740 C.2   102  ASP102      0.2293
     39  O         20.2260   70.3360   47.4650 O.2   102  ASP102     -0.2864
     40  CB        18.6850   72.4330   49.5950 C.3   102  ASP102      0.1436
     41  CG        17.8610   71.1740   49.7390 C.2   102  ASP102      0.3671
     42  OD1       17.9700   70.5110   50.7940 O.co2 102  ASP102     -0.2456
     43  OD2       17.1070   70.8530   48.8010 O.co2 102  ASP102     -0.2456
     44  N         23.2550   70.2970   46.1430 N.3   105  GLN105     -0.1245
     45  CA        23.6890   69.1340   46.9100 C.3   105  GLN105      0.1566
     46  C         22.9780   67.8700   46.4300 C.2   105  GLN105      0.2260
     47  O         23.5610   66.7920   46.4870 O.2   105  GLN105     -0.2867
     48  CB        23.4570   69.3630   48.4070 C.3   105  GLN105      0.0367
     49  CG        24.5090   70.2740   49.0460 C.3   105  GLN105      0.0905
     50  CD        24.4940   70.2700   50.5610 C.2   105  GLN105      0.2608
     51  OE1       23.9830   69.3490   51.2210 O.2   105  GLN105     -0.2717
     52  NE2       25.1140   71.2820   51.1510 N.am  105  GLN105     -0.0878
     53  N         19.4250   66.4610   58.9580 N.3   115  ASN115     -0.1240
     54  CA        19.4780   67.9220   58.9390 C.3   115  ASN115      0.1653
     55  C         18.1010   68.5870   59.1920 C.2   115  ASN115      0.2266
     56  O         18.0190   69.8180   59.1390 O.2   115  ASN115     -0.2867
     57  CB        20.0350   68.4030   57.5890 C.3   115  ASN115      0.1155
     58  CG        21.4550   67.9960   57.2830 C.2   115  ASN115      0.2627
     59  OD1       22.4080   68.4040   57.9550 O.2   115  ASN115     -0.2716
     60  ND2       21.6330   67.2520   56.2020 N.am  115  ASN115     -0.0877
     61  N         17.9120   72.4870   59.9880 N.3   119  ALA119     -0.1245
     62  CA        17.2360   73.3580   59.0210 C.3   119  ALA119      0.1562
     63  C         16.1880   74.2230   59.7120 C.2   119  ALA119      0.2260
     64  O         15.9650   75.3560   59.2940 O.2   119  ALA119     -0.2867
     65  CB        16.5820   72.5250   57.9330 C.3   119  ALA119      0.0290
     66  N         18.2340   76.9650   61.7520 N.3   122  LEU122     -0.1245
     67  CA        18.7990   77.8700   60.7520 C.3   122  LEU122      0.1561
     68  C         17.7330   78.8570   60.2830 C.2   122  LEU122      0.2260
     69  O         18.0130   80.0540   60.1960 O.2   122  LEU122     -0.2867
     70  CB        19.3670   77.0520   59.5780 C.3   122  LEU122      0.0270
     71  CG        20.1140   77.7790   58.4510 C.3   122  LEU122      0.0019
     72  CD1       21.2970   78.5910   58.9750 C.3   122  LEU122      0.0001
     73  CD2       20.6250   76.7800   57.4410 C.3   122  LEU122      0.0001
     74  N         26.1140   88.1700   49.1780 N.3   162  ILE162     -0.1245
     75  CA        26.6190   86.8550   49.5940 C.3   162  ILE162      0.1561
     76  C         25.7690   85.7630   48.9100 C.2   162  ILE162      0.2260
     77  O         26.3300   84.7950   48.3820 O.2   162  ILE162     -0.2867
     78  CB        26.6740   86.7100   51.1410 C.3   162  ILE162      0.0252
     79  CG1       27.9840   87.3110   51.6750 C.3   162  ILE162      0.0019
     80  CG2       26.5040   85.2500   51.6080 C.3   162  ILE162      0.0019
     81  CD1       28.0050   87.5520   53.1650 C.3   162  ILE162      0.0001
     82  N         26.4820   82.8050   46.0370 N.3   166  ILE166     -0.1245
     83  CA        26.1060   81.4130   46.2820 C.3   166  ILE166      0.1561
     84  C         25.3640   80.8710   45.0340 C.2   166  ILE166      0.2260
     85  O         25.6510   79.7610   44.5810 O.2   166  ILE166     -0.2867
     86  CB        25.2610   81.3220   47.5850 C.3   166  ILE166      0.0252
     87  CG1       26.1700   81.4150   48.8380 C.3   166  ILE166      0.0019
     88  CG2       24.3910   80.0570   47.6210 C.3   166  ILE166      0.0019
     89  CD1       25.4630   81.7050   50.1780 C.3   166  ILE166      0.0001
@<TRIPOS>BOND
     1    85    84    2
     2    84    83    1
     3    82    83    1
     4    44    45    1
     5    83    86    1
     6    46    47    2
     7    46    45    1
     8    45    48    1
     9    39    38    2
    10    28    29    1
    11    38    37    1
    12    86    88    1
    13    86    87    1
    14    31    30    2
    15    29    30    1
    16    29    32    1
    17    30    36   am
    18    77    76    2
    19    48    49    1
    20    36    37    1
    21    43    41   ar
    22    87    89    1
    23    76    75    1
    24    37    40    1
    25    49    50    1
    26    74    75    1
    27    33    32    1
    28    33    35    1
    29    32    34    1
    30    75    78    1
    31    40    41    1
    32    41    42   ar
    33    23    22    2
    34    22    21    1
    35    20    21    1
    36    50    52   am
    37    50    51    2
    38    21    24    1
    39    78    80    1
    40    78    79    1
    41    79    81    1
    42    24    25    1
    43    11    12    2
    44    11    10    1
    45    13    10    1
    46    13    14    1
    47    16    14   ar
    48    16    18   ar
    49     3     4    2
    50     3     2    1
    51    10     9    1
    52    14    15   ar
    53    25    27    1
    54    25    26    1
    55    18    19   ar
    56     1     2    1
    57     5     2    1
    58     5     6    1
    59     8     6   am
    60    15    17   ar
    61     6     7    2
    62    19    17   ar
    63    60    58   am
    64    58    57    1
    65    58    59    2
    66    73    71    1
    67    57    54    1
    68    65    62    1
    69    71    72    1
    70    71    70    1
    71    54    53    1
    72    54    55    1
    73    62    63    1
    74    62    61    1
    75    56    55    2
    76    64    63    2
    77    70    67    1
    78    69    68    2
    79    68    67    1
    80    67    66    1
