@<TRIPOS>MOLECULE
tmp/4ntjA02.pdb
 95 91 0 0 0
SMALL
GASTEIGER

@<TRIPOS>ATOM
      1  N         21.5630   75.9460   47.5420 N.3   101  ILE101     -0.1245
      2  CA        22.5650   75.0300   48.1100 C.3   101  ILE101      0.1561
      3  C         21.9810   73.6200   48.2160 C.2   101  ILE101      0.2260
      4  O         22.6300   72.6680   47.7750 O.2   101  ILE101     -0.2867
      5  CB        23.1280   75.5230   49.4810 C.3   101  ILE101      0.0252
      6  CG1       23.8640   76.8780   49.3380 C.3   101  ILE101      0.0019
      7  CG2       24.0610   74.4700   50.1110 C.3   101  ILE101      0.0019
      8  CD1       24.2130   77.5920   50.6430 C.3   101  ILE101      0.0001
      9  N         21.6150   72.0580   44.7270 N.3   104  TYR104     -0.1227
     10  CA        22.9490   71.7520   44.1960 C.3   104  TYR104      0.1736
     11  C         23.4920   70.4700   44.8310 C.2   104  TYR104      0.2595
     12  O         24.1180   69.6600   44.1460 O.2   104  TYR104     -0.2718
     13  CB        23.9220   72.9280   44.4310 C.3   104  TYR104      0.0548
     14  CG        25.3880   72.5530   44.3180 C.ar  104  TYR104     -0.0200
     15  CD1       25.9690   72.2880   43.0800 C.ar  104  TYR104     -0.0009
     16  CD2       26.1860   72.4360   45.4520 C.ar  104  TYR104     -0.0009
     17  CE1       27.3060   71.9100   42.9730 C.ar  104  TYR104      0.0417
     18  CE2       27.5270   72.0660   45.3580 C.ar  104  TYR104      0.0417
     19  CZ        28.0830   71.8030   44.1160 C.ar  104  TYR104      0.1957
     20  OH        29.4050   71.4390   44.0180 O.3   104  TYR104     -0.2866
     21  N         23.2550   70.2970   46.1430 N.am  105  GLN105     -0.1979
     22  CA        23.6890   69.1340   46.9100 C.3   105  GLN105      0.1601
     23  C         22.9780   67.8700   46.4300 C.2   105  GLN105      0.2287
     24  O         23.5610   66.7920   46.4870 O.2   105  GLN105     -0.2864
     25  CB        23.4570   69.3630   48.4070 C.3   105  GLN105      0.0394
     26  CG        24.5090   70.2740   49.0460 C.3   105  GLN105      0.0908
     27  CD        24.4940   70.2700   50.5610 C.2   105  GLN105      0.2608
     28  OE1       23.9830   69.3490   51.2210 O.2   105  GLN105     -0.2717
     29  NE2       25.1140   71.2820   51.1510 N.am  105  GLN105     -0.0878
     30  N         25.0710   93.2160   51.9810 N.3   158  VAL158     -0.1245
     31  CA        25.9940   92.0980   52.2170 C.3   158  VAL158      0.1561
     32  C         25.1940   90.7680   52.1470 C.2   158  VAL158      0.2260
     33  O         25.7130   89.7890   51.6160 O.2   158  VAL158     -0.2867
     34  CB        26.7860   92.2640   53.5510 C.3   158  VAL158      0.0252
     35  CG1       27.6390   91.0390   53.8630 C.3   158  VAL158      0.0019
     36  CG2       27.6660   93.5110   53.5180 C.3   158  VAL158      0.0019
     37  N         24.5030   90.2820   48.2570 N.3   161  TRP161     -0.1227
     38  CA        25.7430   89.9940   47.5540 C.3   161  TRP161      0.1737
     39  C         26.3550   88.6630   47.9460 C.2   161  TRP161      0.2595
     40  O         26.9970   88.0570   47.0950 O.2   161  TRP161     -0.2718
     41  CB        26.7490   91.1380   47.6990 C.3   161  TRP161      0.0564
     42  CG        26.3600   92.3470   46.8950 C.ar  161  TRP161      0.0003
     43  CD1       25.9040   93.5360   47.3790 C.ar  161  TRP161      0.0946
     44  CD2       26.2870   92.4420   45.4610 C.ar  161  TRP161      0.0152
     45  NE1       25.5640   94.3730   46.3420 N.ar  161  TRP161     -0.2442
     46  CE2       25.8060   93.7350   45.1520 C.ar  161  TRP161      0.0810
     47  CE3       26.6260   91.5730   44.4020 C.ar  161  TRP161      0.0012
     48  CZ2       25.6600   94.1880   43.8300 C.ar  161  TRP161      0.0191
     49  CZ3       26.4600   92.0160   43.0920 C.ar  161  TRP161      0.0001
     50  CH2       25.9850   93.3090   42.8170 C.ar  161  TRP161      0.0015
     51  N         26.1140   88.1700   49.1780 N.am  162  ILE162     -0.1980
     52  CA        26.6190   86.8550   49.5940 C.3   162  ILE162      0.1595
     53  C         25.7690   85.7630   48.9100 C.2   162  ILE162      0.2287
     54  O         26.3300   84.7950   48.3820 O.2   162  ILE162     -0.2864
     55  CB        26.6740   86.7100   51.1410 C.3   162  ILE162      0.0276
     56  CG1       27.9840   87.3110   51.6750 C.3   162  ILE162      0.0022
     57  CG2       26.5040   85.2500   51.6080 C.3   162  ILE162      0.0022
     58  CD1       28.0050   87.5520   53.1650 C.3   162  ILE162      0.0001
     59  N         26.3660   85.4810   45.0930 N.3   165  LEU165     -0.1231
     60  CA        27.5660   84.6880   44.8660 C.3   165  LEU165      0.1693
     61  C         27.3070   83.1930   45.0470 C.2   165  LEU165      0.2591
     62  O         27.8350   82.4060   44.2730 O.2   165  LEU165     -0.2718
     63  CB        28.7080   85.1430   45.7820 C.3   165  LEU165      0.0284
     64  CG        30.0040   85.5830   45.0820 C.3   165  LEU165      0.0019
     65  CD1       30.4100   84.6000   43.9580 C.3   165  LEU165      0.0001
     66  CD2       29.8970   87.0250   44.5510 C.3   165  LEU165      0.0001
     67  N         26.4820   82.8050   46.0370 N.am  166  ILE166     -0.1980
     68  CA        26.1060   81.4130   46.2820 C.3   166  ILE166      0.1595
     69  C         25.3640   80.8710   45.0340 C.2   166  ILE166      0.2287
     70  O         25.6510   79.7610   44.5810 O.2   166  ILE166     -0.2864
     71  CB        25.2610   81.3220   47.5850 C.3   166  ILE166      0.0276
     72  CG1       26.1700   81.4150   48.8380 C.3   166  ILE166      0.0022
     73  CG2       24.3910   80.0570   47.6210 C.3   166  ILE166      0.0022
     74  CD1       25.4630   81.7050   50.1780 C.3   166  ILE166      0.0001
     75  N         27.9380   80.6700   41.9120 N.3   169  VAL169     -0.1231
     76  CA        28.8390   79.5240   42.1210 C.3   169  VAL169      0.1692
     77  C         28.0910   78.1910   41.9400 C.2   169  VAL169      0.2592
     78  O         28.5970   77.3310   41.2200 O.2   169  VAL169     -0.2718
     79  CB        29.5830   79.5930   43.4870 C.3   169  VAL169      0.0266
     80  CG1       30.3140   78.2890   43.8060 C.3   169  VAL169      0.0020
     81  CG2       30.5630   80.7590   43.5080 C.3   169  VAL169      0.0020
     82  N         26.9110   78.0200   42.5720 N.am  170  CYS170     -0.1970
     83  CA        26.1270   76.7810   42.4760 C.3   170  CYS170      0.1712
     84  C         25.6740   76.5150   41.0360 C.2   170  CYS170      0.2296
     85  O         25.7280   75.3670   40.5990 O.2   170  CYS170     -0.2864
     86  CB        24.9350   76.7980   43.4300 C.3   170  CYS170      0.0983
     87  SG        25.3680   76.6500   45.1890 S.3   170  CYS170     -0.0798
     88  N         28.7940   75.4800   38.7690 N.3   173  LEU173     -0.1245
     89  CA        29.1340   74.0870   39.0280 C.3   173  LEU173      0.1561
     90  C         28.1080   73.1250   38.4090 C.2   173  LEU173      0.2260
     91  O         28.4950   72.0490   37.9560 O.2   173  LEU173     -0.2867
     92  CB        29.2530   73.8320   40.5370 C.3   173  LEU173      0.0270
     93  CG        30.4090   74.5400   41.2730 C.3   173  LEU173      0.0019
     94  CD1       30.1430   74.6090   42.7630 C.3   173  LEU173      0.0001
     95  CD2       31.7280   73.8490   41.0340 C.3   173  LEU173      0.0001
@<TRIPOS>BOND
     1    91    90    2
     2    90    89    1
     3    88    89    1
     4    89    92    1
     5    92    93    1
     6    85    84    2
     7    95    93    1
     8    84    83    1
     9    78    77    2
    10    93    94    1
    11    75    76    1
    12    77    76    1
    13    77    82   am
    14    76    79    1
    15    83    82    1
    16    83    86    1
    17    50    49   ar
    18    50    48   ar
    19    17    15   ar
    20    17    19   ar
    21    15    14   ar
    22    49    47   ar
    23    86    87    1
    24    79    81    1
    25    79    80    1
    26    48    46   ar
    27    65    64    1
    28    20    19    1
    29    19    18   ar
    30    12    11    2
    31    10    13    1
    32    10     9    1
    33    10    11    1
    34    62    61    2
    35    14    13    1
    36    14    16   ar
    37    47    44   ar
    38    66    64    1
    39    70    69    2
    40    11    21   am
    41    60    61    1
    42    60    59    1
    43    60    63    1
    44    69    68    1
    45    61    67   am
    46    64    63    1
    47    46    44   ar
    48    46    45   ar
    49    18    16   ar
    50    44    42   ar
    51    67    68    1
    52    21    22    1
    53    68    71    1
    54    45    43   ar
    55    23    24    2
    56    23    22    1
    57    42    43   ar
    58    42    41    1
    59    22    25    1
    60    40    39    2
    61     1     2    1
    62    38    41    1
    63    38    39    1
    64    38    37    1
    65    71    73    1
    66    71    72    1
    67     4     3    2
    68    39    51   am
    69     2     3    1
    70     2     5    1
    71    54    53    2
    72    25    26    1
    73    72    74    1
    74    53    52    1
    75    26    27    1
    76    51    52    1
    77     6     5    1
    78     6     8    1
    79     5     7    1
    80    52    55    1
    81    27    29   am
    82    27    28    2
    83    55    57    1
    84    55    56    1
    85    33    32    2
    86    56    58    1
    87    30    31    1
    88    32    31    1
    89    31    34    1
    90    36    34    1
    91    34    35    1
