@<TRIPOS>MOLECULE
tmp/4ntkA00.pdb
 93 90 0 0 0
SMALL
GASTEIGER

@<TRIPOS>ATOM
      1  N         17.6170   -6.4060    9.7230 N.3    16  HIS16      -0.1241
      2  CA        16.3180   -6.9590   10.0410 C.3    16  HIS16       0.1621
      3  C         16.4760   -8.4180   10.4280 C.2    16  HIS16       0.2264
      4  O         17.5290   -9.0320   10.2260 O.2    16  HIS16      -0.2867
      5  CB        15.2470   -6.7290    8.9370 C.3    16  HIS16       0.0745
      6  CG        15.2670   -7.6990    7.8090 C.ar   16  HIS16       0.0817
      7  ND1       14.2040   -7.8500    6.9570 N.ar   16  HIS16      -0.2268
      8  CD2       16.2200   -8.5470    7.3730 C.ar   16  HIS16       0.1154
      9  CE1       14.4690   -8.7840    6.0680 C.ar   16  HIS16       0.1986
     10  NE2       15.7050   -9.1990    6.2820 N.ar   16  HIS16      -0.2212
     11  N         13.4940  -11.9350   10.5390 N.3    18  LEU18      -0.1245
     12  CA        12.1450  -12.3660   10.3740 C.3    18  LEU18       0.1561
     13  C         11.7320  -13.2250   11.5870 C.2    18  LEU18       0.2260
     14  O         12.3280  -14.2710   11.8240 O.2    18  LEU18      -0.2867
     15  CB        11.9820  -13.1450    9.0600 C.3    18  LEU18       0.0270
     16  CG        12.2550  -12.3360    7.7530 C.3    18  LEU18       0.0019
     17  CD1       11.7510  -13.0610    6.5230 C.3    18  LEU18       0.0001
     18  CD2       11.6950  -10.9230    7.8050 C.3    18  LEU18       0.0001
     19  N         15.9130  -21.3190   10.2280 N.3    25  HIS25      -0.1226
     20  CA        15.8330  -20.5630    8.9520 C.3    25  HIS25       0.1752
     21  C         16.8000  -19.3490    9.0250 C.2    25  HIS25       0.2596
     22  O         16.8630  -18.6400   10.0190 O.2    25  HIS25      -0.2718
     23  CB        14.3820  -20.1200    8.7190 C.3    25  HIS25       0.0759
     24  CG        14.0780  -19.6100    7.3350 C.ar   25  HIS25       0.0818
     25  ND1       14.4420  -18.3510    6.9010 N.ar   25  HIS25      -0.2268
     26  CD2       13.3360  -20.1470    6.3350 C.ar   25  HIS25       0.1154
     27  CE1       14.0100  -18.1660    5.6640 C.ar   25  HIS25       0.1986
     28  NE2       13.3270  -19.2390    5.2990 N.ar   25  HIS25      -0.2212
     29  N         17.5470  -19.1280    7.9510 N.am   26  LYS26      -0.1966
     30  CA        18.5810  -18.1160    7.9650 C.3    26  LYS26       0.1728
     31  C         17.9980  -16.7170    8.1560 C.2    26  LYS26       0.2616
     32  O         18.6540  -15.8590    8.7670 O.2    26  LYS26      -0.2715
     33  CB        19.4340  -18.1920    6.6890 C.3    26  LYS26       0.0311
     34  CG        18.7600  -17.7220    5.4280 C.3    26  LYS26       0.0038
     35  CD        19.6780  -17.9240    4.2380 C.3    26  LYS26       0.0206
     36  CE        18.9710  -17.6650    2.9220 C.3    26  LYS26       0.1093
     37  NZ        19.7390  -18.2480    1.7690 N.3    26  LYS26      -0.1314
     38  N         16.7860  -16.4890    7.6560 N.am   27  ALA27      -0.1977
     39  CA        16.1330  -15.1720    7.8020 C.3    27  ALA27       0.1597
     40  C         15.8050  -14.8400    9.2540 C.2    27  ALA27       0.2287
     41  O         15.5860  -13.6780    9.5800 O.2    27  ALA27      -0.2864
     42  CB        14.8740  -15.0730    6.9450 C.3    27  ALA27       0.0319
     43  N         20.4010  -10.1690   10.6920 N.3    31  HIS31      -0.1241
     44  CA        21.2350   -9.9150    9.5150 C.3    31  HIS31       0.1621
     45  C         20.8150   -8.5720    8.9170 C.2    31  HIS31       0.2264
     46  O         20.2480   -7.7350    9.5890 O.2    31  HIS31      -0.2867
     47  CB        21.0800  -11.0680    8.5350 C.3    31  HIS31       0.0745
     48  CG        19.7160  -11.2160    7.9410 C.ar   31  HIS31       0.0817
     49  ND1       18.6550  -11.7970    8.6000 N.ar   31  HIS31      -0.2268
     50  CD2       19.2410  -10.8330    6.7360 C.ar   31  HIS31       0.1154
     51  CE1       17.5920  -11.7930    7.8030 C.ar   31  HIS31       0.1986
     52  NE2       17.9270  -11.2220    6.6590 N.ar   31  HIS31      -0.2212
     53  N         20.6760   -6.0290    4.8930 N.3    33  HIS33      -0.1241
     54  CA        20.6970   -5.9500    3.4130 C.3    33  HIS33       0.1621
     55  C         20.9470   -4.5110    3.0000 C.2    33  HIS33       0.2264
     56  O         20.6950   -3.5570    3.7700 O.2    33  HIS33      -0.2867
     57  CB        19.3480   -6.3560    2.7810 C.3    33  HIS33       0.0745
     58  CG        18.8840   -7.7240    3.1340 C.ar   33  HIS33       0.0817
     59  ND1       19.4050   -8.8750    2.5800 N.ar   33  HIS33      -0.2268
     60  CD2       17.9180   -8.1140    3.9830 C.ar   33  HIS33       0.1154
     61  CE1       18.7900   -9.9260    3.0860 C.ar   33  HIS33       0.1986
     62  NE2       17.8620   -9.4780    3.9170 N.ar   33  HIS33      -0.2212
     63  N          9.2990   -8.3060    6.2190 N.3    84  THR84      -0.1203
     64  CA         9.4070   -8.9280    4.9400 C.3    84  THR84       0.1994
     65  C          9.3990   -7.8530    3.8520 C.2    84  THR84       0.2619
     66  O          8.9970   -6.7120    4.1230 O.2    84  THR84      -0.2717
     67  CB         8.2430   -9.8600    4.6270 C.3    84  THR84       0.1784
     68  OG1        6.9940   -9.1770    4.6980 O.3    84  THR84      -0.2211
     69  CG2        8.2640  -11.0940    5.5930 C.3    84  THR84       0.0376
     70  N          9.8220   -8.2440    2.6560 N.am   85  SER85      -0.1937
     71  CA         9.7250   -7.3170    1.5210 C.3    85  SER85       0.2055
     72  C          8.3150   -6.8070    1.3020 C.2    85  SER85       0.2642
     73  O          8.0940   -5.5990    1.0980 O.2    85  SER85      -0.2714
     74  CB        10.2590   -7.9770    0.2520 C.3    85  SER85       0.2130
     75  OG        11.6380   -8.2050    0.4240 O.3    85  SER85      -0.2179
     76  N          7.3660   -7.7410    1.3650 N.am   86  GLU86      -0.1976
     77  CA         5.9620   -7.4750    1.1360 C.3    86  GLU86       0.1602
     78  C          5.3800   -6.5390    2.1970 C.2    86  GLU86       0.2287
     79  O          4.7250   -5.5380    1.8700 O.2    86  GLU86      -0.2864
     80  CB         5.1810   -8.7650    1.1460 C.3    86  GLU86       0.0415
     81  CG         5.5230   -9.7830    0.0520 C.3    86  GLU86       0.1163
     82  CD         6.5930  -10.8050    0.3760 C.2    86  GLU86       0.3649
     83  OE1        7.6040  -10.4840    1.0490 O.co2  86  GLU86      -0.2457
     84  OE2        6.4200  -11.9440   -0.1690 O.co2  86  GLU86      -0.2457
     85  N         15.1870   -6.6200   -1.5990 N.3   110  GLU110     -0.1245
     86  CA        16.0120   -6.9720   -0.4810 C.3   110  GLU110      0.1567
     87  C         17.4320   -7.2470   -0.9270 C.2   110  GLU110      0.2260
     88  O         18.3950   -6.9310   -0.2410 O.2   110  GLU110     -0.2867
     89  CB        15.4130   -8.2310    0.1150 C.3   110  GLU110      0.0388
     90  CG        15.5230   -8.3830    1.5790 C.3   110  GLU110      0.1160
     91  CD        14.6830   -9.5650    2.0180 C.2   110  GLU110      0.3649
     92  OE1       13.6670   -9.3430    2.7010 O.co2 110  GLU110     -0.2457
     93  OE2       15.0180  -10.6930    1.6020 O.co2 110  GLU110     -0.2457
@<TRIPOS>BOND
     1    85    86    1
     2    87    86    1
     3    87    88    2
     4    86    89    1
     5    84    82   ar
     6    81    82    1
     7    81    80    1
     8    89    90    1
     9    74    75    1
    10    74    71    1
    11    82    83   ar
    12    73    72    2
    13    77    80    1
    14    77    76    1
    15    77    78    1
    16    72    76   am
    17    72    71    1
    18    71    70    1
    19    90    91    1
    20    93    91   ar
    21    37    36    1
    22    79    78    2
    23    91    92   ar
    24    59    61   ar
    25    59    58   ar
    26    70    65   am
    27    57    58    1
    28    57    54    1
    29    36    35    1
    30    55    54    1
    31    55    56    2
    32    61    62   ar
    33    58    60   ar
    34    54    53    1
    35    65    66    2
    36    65    64    1
    37    62    60   ar
    38    35    34    1
    39    67    68    1
    40    67    64    1
    41    67    69    1
    42    64    63    1
    43    28    27   ar
    44    28    26   ar
    45    34    33    1
    46    27    25   ar
    47     9    10   ar
    48     9     7   ar
    49    10     8   ar
    50    26    24   ar
    51    17    16    1
    52    52    50   ar
    53    52    51   ar
    54    33    30    1
    55    50    48   ar
    56    25    24   ar
    57    42    39    1
    58     7     6   ar
    59    24    23    1
    60     8     6   ar
    61    38    39    1
    62    38    31   am
    63    16    18    1
    64    16    15    1
    65    39    40    1
    66    51    49   ar
    67     6     5    1
    68    48    47    1
    69    48    49   ar
    70    29    30    1
    71    29    21   am
    72    30    31    1
    73    31    32    2
    74    47    44    1
    75    23    20    1
    76    45    44    1
    77    45    46    2
    78     5     2    1
    79    20    21    1
    80    20    19    1
    81    21    22    2
    82    15    12    1
    83    40    41    2
    84    44    43    1
    85     1     2    1
    86     2     3    1
    87     4     3    2
    88    12    11    1
    89    12    13    1
    90    13    14    2
