@<TRIPOS>MOLECULE
tmp/4ntoC01.pdb
 132 124 0 0 0
SMALL
GASTEIGER

@<TRIPOS>ATOM
      1  N        -14.2930    7.2270   58.2580 N.3    46  ILE46      -0.1245
      2  CA       -13.7950    6.0430   57.5410 C.3    46  ILE46       0.1561
      3  C        -13.3810    4.8770   58.4520 C.2    46  ILE46       0.2260
      4  O        -13.5020    3.7170   58.0770 O.2    46  ILE46      -0.2867
      5  CB       -12.6370    6.4300   56.5760 C.3    46  ILE46       0.0252
      6  CG1      -12.0960    5.2120   55.8210 C.3    46  ILE46       0.0019
      7  CG2      -11.5140    7.1060   57.3330 C.3    46  ILE46       0.0019
      8  CD1      -13.0250    4.6670   54.7680 C.3    46  ILE46       0.0001
      9  N        -16.2210    2.4680   58.6050 N.3    49  LYS49      -0.1231
     10  CA       -16.8610    2.0320   57.3730 C.3    49  LYS49       0.1693
     11  C        -17.2670    0.5570   57.4070 C.2    49  LYS49       0.2592
     12  O        -18.1620    0.1330   56.6890 O.2    49  LYS49      -0.2718
     13  CB       -15.9560    2.3030   56.1690 C.3    49  LYS49       0.0285
     14  CG       -16.6170    2.0120   54.8300 C.3    49  LYS49       0.0035
     15  CD       -17.2010    3.2670   54.1750 C.3    49  LYS49       0.0206
     16  CE       -18.4860    3.7390   54.8110 C.3    49  LYS49       0.1093
     17  NZ       -18.9410    5.0140   54.1860 N.3    49  LYS49      -0.1314
     18  N        -16.6160   -0.2210   58.2580 N.am   50  PHE50      -0.1976
     19  CA       -16.9560   -1.6270   58.4160 C.3    50  PHE50       0.1639
     20  C        -18.3800   -1.7960   58.9330 C.2    50  PHE50       0.2290
     21  O        -18.9670   -2.8620   58.7800 O.2    50  PHE50      -0.2864
     22  CB       -15.9830   -2.3130   59.3890 C.3    50  PHE50       0.0560
     23  CG       -16.1620   -1.8960   60.8240 C.ar   50  PHE50      -0.0200
     24  CD1      -17.0910   -2.5340   61.6460 C.ar   50  PHE50      -0.0042
     25  CD2      -15.4090   -0.8670   61.3510 C.ar   50  PHE50      -0.0042
     26  CE1      -17.2640   -2.1470   62.9630 C.ar   50  PHE50      -0.0003
     27  CE2      -15.5670   -0.4830   62.6610 C.ar   50  PHE50      -0.0003
     28  CZ       -16.4960   -1.1250   63.4740 C.ar   50  PHE50      -0.0000
     29  N        -21.4520   -2.9440   56.3430 N.3    53  MET53      -0.1230
     30  CA       -21.8280   -4.3380   56.1590 C.3    53  MET53       0.1702
     31  C        -21.9840   -5.1050   57.4780 C.2    53  MET53       0.2592
     32  O        -22.7430   -6.0650   57.5240 O.2    53  MET53      -0.2718
     33  CB       -20.8890   -5.0580   55.1880 C.3    53  MET53       0.0401
     34  CG       -20.9550   -4.5300   53.7460 C.3    53  MET53       0.0596
     35  SD       -22.6080   -4.3650   53.0220 S.3    53  MET53      -0.1393
     36  CE       -23.1680   -6.0740   52.9950 C.3    53  MET53       0.0692
     37  N        -21.3180   -4.6650   58.5510 N.am   54  ALA54      -0.1980
     38  CA       -21.4050   -5.3410   59.8560 C.3    54  ALA54       0.1597
     39  C        -22.6600   -5.0240   60.6510 C.2    54  ALA54       0.2287
     40  O        -23.0770   -5.8030   61.5110 O.2    54  ALA54      -0.2864
     41  CB       -20.1790   -5.0210   60.7170 C.3    54  ALA54       0.0319
     42  N        -27.3740   -5.3200   58.3890 N.3    58  LYS58      -0.1245
     43  CA       -28.1020   -6.1900   59.3080 C.3    58  LYS58       0.1561
     44  C        -29.4210   -5.5940   59.7470 C.2    58  LYS58       0.2260
     45  O        -30.4290   -6.2990   59.8460 O.2    58  LYS58      -0.2867
     46  CB       -27.2510   -6.4790   60.5470 C.3    58  LYS58       0.0271
     47  CG       -26.3450   -7.6750   60.4230 C.3    58  LYS58       0.0035
     48  CD       -25.4960   -7.6020   59.1800 C.3    58  LYS58       0.0206
     49  CE       -24.4540   -8.6860   59.1620 C.3    58  LYS58       0.1093
     50  NZ       -23.7570   -8.6470   57.8570 N.3    58  LYS58      -0.1314
     51  N        -25.3550  -18.0320   56.9710 N.3    88  ALA88      -0.1245
     52  CA       -25.0790  -16.6800   56.5170 C.3    88  ALA88       0.1562
     53  C        -26.3260  -16.0170   55.9530 C.2    88  ALA88       0.2260
     54  O        -26.9260  -16.5090   54.9980 O.2    88  ALA88      -0.2867
     55  CB       -23.9730  -16.6880   55.4950 C.3    88  ALA88       0.0290
     56  N        -28.5690  -14.7680   62.9420 N.3    93  ARG93      -0.1245
     57  CA       -27.1570  -14.4470   62.7250 C.3    93  ARG93       0.1563
     58  C        -26.9590  -12.9380   62.6070 C.2    93  ARG93       0.2260
     59  O        -25.9760  -12.3890   63.1210 O.2    93  ARG93      -0.2867
     60  CB       -26.6180  -15.1290   61.4650 C.3    93  ARG93       0.0307
     61  CG       -25.6190  -14.2780   60.6630 C.3    93  ARG93       0.0489
     62  CD       -24.1690  -14.7290   60.8300 C.3    93  ARG93       0.2205
     63  NE       -23.8660  -15.8970   60.0060 N.pl3  93  ARG93      -0.0865
     64  CZ       -22.6390  -16.3690   59.7780 C.cat  93  ARG93       0.5346
     65  NH1      -22.4670  -17.4390   59.0100 N.pl3  93  ARG93       0.1354
     66  NH2      -21.5770  -15.7740   60.3030 N.pl3  93  ARG93       0.1354
     67  N        -25.1800   -9.7450   65.3180 N.3    97  ARG97      -0.1245
     68  CA       -24.3540   -8.6240   64.8590 C.3    97  ARG97       0.1563
     69  C        -24.9470   -7.2770   65.2590 C.2    97  ARG97       0.2260
     70  O        -24.2180   -6.3520   65.6160 O.2    97  ARG97      -0.2867
     71  CB       -24.1730   -8.6370   63.3370 C.3    97  ARG97       0.0307
     72  CG       -23.9350   -9.9880   62.6990 C.3    97  ARG97       0.0489
     73  CD       -22.9140  -10.7850   63.4500 C.3    97  ARG97       0.2205
     74  NE       -22.3090  -11.8390   62.6440 N.pl3  97  ARG97      -0.0865
     75  CZ       -21.8310  -12.9650   63.1570 C.cat  97  ARG97       0.5346
     76  NH1      -21.2740  -13.8740   62.3740 N.pl3  97  ARG97       0.1354
     77  NH2      -21.9230  -13.1830   64.4600 N.pl3  97  ARG97       0.1354
     78  N        -24.1950   -6.5410   68.8530 N.3   100  ARG100     -0.1245
     79  CA       -22.8350   -6.0340   68.9960 C.3   100  ARG100      0.1563
     80  C        -22.7270   -4.5550   68.6340 C.2   100  ARG100      0.2260
     81  O        -22.0540   -3.7940   69.3300 O.2   100  ARG100     -0.2867
     82  CB       -21.8690   -6.8590   68.1530 C.3   100  ARG100      0.0307
     83  CG       -21.6250   -8.2360   68.7190 C.3   100  ARG100      0.0489
     84  CD       -20.8430   -9.1070   67.7680 C.3   100  ARG100      0.2205
     85  NE       -20.7150  -10.4560   68.3050 N.pl3 100  ARG100     -0.0865
     86  CZ       -20.6110  -11.5440   67.5560 C.cat 100  ARG100      0.5346
     87  NH1      -20.6210  -11.4300   66.2420 N.pl3 100  ARG100      0.1354
     88  NH2      -20.5030  -12.7420   68.1200 N.pl3 100  ARG100      0.1354
     89  N        -15.6960   -4.9820   68.8280 N.3   133  PHE133     -0.1241
     90  CA       -15.5440   -5.5010   67.4660 C.3   133  PHE133      0.1605
     91  C        -14.2020   -6.1690   67.1830 C.2   133  PHE133      0.2264
     92  O        -14.1380   -7.1450   66.4420 O.2   133  PHE133     -0.2867
     93  CB       -15.8140   -4.4040   66.4260 C.3   133  PHE133      0.0534
     94  CG       -17.2720   -4.1720   66.1500 C.ar  133  PHE133     -0.0203
     95  CD1      -18.0220   -5.1230   65.4710 C.ar  133  PHE133     -0.0042
     96  CD2      -17.8930   -2.9970   66.5480 C.ar  133  PHE133     -0.0042
     97  CE1      -19.3730   -4.9110   65.2010 C.ar  133  PHE133     -0.0003
     98  CE2      -19.2410   -2.7780   66.2770 C.ar  133  PHE133     -0.0003
     99  CZ       -19.9790   -3.7470   65.6080 C.ar  133  PHE133     -0.0000
    100  N        -13.6450   -9.9180   66.8340 N.3   136  HIS136     -0.1226
    101  CA       -14.2800  -10.5950   65.7060 C.3   136  HIS136      0.1752
    102  C        -13.6840  -10.1950   64.3570 C.2   136  HIS136      0.2596
    103  O        -14.1070  -10.6880   63.3210 O.2   136  HIS136     -0.2718
    104  CB       -15.7850  -10.3270   65.6890 C.3   136  HIS136      0.0759
    105  CG       -16.4590  -10.5710   67.0070 C.ar  136  HIS136      0.0818
    106  ND1      -16.6470  -11.8290   67.5200 N.ar  136  HIS136     -0.2268
    107  CD2      -16.9770   -9.7010   67.9070 C.ar  136  HIS136      0.1154
    108  CE1      -17.2560  -11.7300   68.6970 C.ar  136  HIS136      0.1986
    109  NE2      -17.4670  -10.4570   68.9480 N.ar  136  HIS136     -0.2212
    110  N        -12.7110   -9.2950   64.3590 N.am  137  HIS137     -0.1975
    111  CA       -12.1210   -8.8530   63.0980 C.3   137  HIS137      0.1656
    112  C        -10.6820   -9.3240   62.9410 C.2   137  HIS137      0.2291
    113  O         -9.9070   -9.3130   63.8920 O.2   137  HIS137     -0.2864
    114  CB       -12.1620   -7.3320   62.9800 C.3   137  HIS137      0.0771
    115  CG       -13.5360   -6.7730   62.8330 C.ar  137  HIS137      0.0820
    116  ND1      -13.8330   -5.4600   63.1130 N.ar  137  HIS137     -0.2267
    117  CD2      -14.6900   -7.3460   62.4190 C.ar  137  HIS137      0.1154
    118  CE1      -15.1180   -5.2470   62.8880 C.ar  137  HIS137      0.1986
    119  NE2      -15.6590   -6.3720   62.4670 N.ar  137  HIS137     -0.2212
    120  N         -8.6270   -5.6630   58.8340 N.3   141  ILE141     -0.1245
    121  CA        -9.7030   -4.7830   59.2640 C.3   141  ILE141      0.1561
    122  C         -9.2780   -3.9530   60.4690 C.2   141  ILE141      0.2260
    123  O         -9.5050   -2.7480   60.5020 O.2   141  ILE141     -0.2867
    124  CB       -10.9740   -5.5780   59.5960 C.3   141  ILE141      0.0252
    125  CG1      -11.4900   -6.2670   58.3380 C.3   141  ILE141      0.0019
    126  CG2      -12.0570   -4.6700   60.1810 C.3   141  ILE141      0.0019
    127  CD1      -12.6040   -7.2490   58.5980 C.3   141  ILE141      0.0001
    128  N         -6.8730   -1.2470   59.5040 N.3   144  ALA144     -0.1245
    129  CA        -7.5000   -0.1920   58.7110 C.3   144  ALA144      0.1562
    130  C         -8.3210    0.6900   59.6430 C.2   144  ALA144      0.2260
    131  O         -8.3610    1.9160   59.4970 O.2   144  ALA144     -0.2867
    132  CB        -8.3750   -0.7700   57.6040 C.3   144  ALA144      0.0290
@<TRIPOS>BOND
     1    36    35    1
     2    35    34    1
     3    34    33    1
     4    15    16    1
     5    15    14    1
     6    17    16    1
     7     8     6    1
     8    14    13    1
     9    54    53    2
    10    33    30    1
    11    55    52    1
    12     6     5    1
    13    53    52    1
    14    30    29    1
    15    30    31    1
    16    13    10    1
    17    52    51    1
    18     5     7    1
    19     5     2    1
    20    12    11    2
    21    10    11    1
    22    10     9    1
    23    11    18   am
    24    31    32    2
    25    31    37   am
    26     2     1    1
    27     2     3    1
    28   132   129    1
    29    50    49    1
    30     4     3    2
    31    18    19    1
    32   125   127    1
    33   125   124    1
    34    42    43    1
    35    19    20    1
    36    19    22    1
    37    37    38    1
    38   129   128    1
    39   129   130    1
    40    21    20    2
    41   120   121    1
    42    65    64    1
    43    49    48    1
    44    48    47    1
    45   121   124    1
    46   121   122    1
    47    43    44    1
    48    43    46    1
    49    22    23    1
    50   131   130    2
    51   124   126    1
    52    44    45    2
    53    64    63    2
    54    64    66    1
    55    38    39    1
    56    38    41    1
    57    63    62    1
    58    47    46    1
    59   122   123    2
    60    39    40    2
    61    61    62    1
    62    61    60    1
    63    23    25   ar
    64    23    24   ar
    65    25    27   ar
    66    60    57    1
    67    24    26   ar
    68    76    75    1
    69   117   119   ar
    70   117   115   ar
    71   119   118   ar
    72    58    57    1
    73    58    59    2
    74    74    75    2
    75    74    73    1
    76    27    28   ar
    77    72    71    1
    78    72    73    1
    79    57    56    1
    80   115   114    1
    81   115   116   ar
    82   118   116   ar
    83   112   111    1
    84   112   113    2
    85    26    28   ar
    86   114   111    1
    87   111   110    1
    88    75    77    1
    89   103   102    2
    90    71    68    1
    91   102   110   am
    92   102   101    1
    93    68    69    1
    94    68    67    1
    95    97    95   ar
    96    97    99   ar
    97    69    70    2
    98    95    94   ar
    99    99    98   ar
   100   104   101    1
   101   104   105    1
   102   101   100    1
   103    94    93    1
   104    94    96   ar
   105    87    86    1
   106    98    96   ar
   107    93    90    1
   108    92    91    2
   109   105   106   ar
   110   105   107   ar
   111    91    90    1
   112    90    89    1
   113   106   108   ar
   114    86    88    1
   115    86    85    2
   116    84    85    1
   117    84    83    1
   118   107   109   ar
   119    82    83    1
   120    82    79    1
   121    80    79    1
   122    80    81    2
   123   108   109   ar
   124    78    79    1
