@<TRIPOS>MOLECULE
tmp/4ntwA01.pdb
 104 98 0 0 0
SMALL
GASTEIGER

@<TRIPOS>ATOM
      1  N        -13.6370   -9.8670   24.2850 N.3    52  LEU52      -0.1245
      2  CA       -14.5390   -8.7130   24.2510 C.3    52  LEU52       0.1561
      3  C        -15.6640   -8.9220   23.2230 C.2    52  LEU52       0.2260
      4  O        -16.7130   -8.3090   23.3160 O.2    52  LEU52      -0.2867
      5  CB       -13.7810   -7.4300   23.9310 C.3    52  LEU52       0.0270
      6  CG       -12.7250   -7.0600   24.9840 C.3    52  LEU52       0.0019
      7  CD1      -11.9970   -5.8260   24.5090 C.3    52  LEU52       0.0001
      8  CD2      -13.3870   -6.8590   26.3560 C.3    52  LEU52       0.0001
      9  N        -18.5980  -11.2250   21.9100 N.3    54  GLU54      -0.1245
     10  CA       -19.4550  -12.2090   22.5620 C.3    54  GLU54       0.1567
     11  C        -19.8420  -13.3860   21.6620 C.2    54  GLU54       0.2260
     12  O        -19.9240  -14.5230   22.1220 O.2    54  GLU54      -0.2867
     13  CB       -20.7180  -11.5160   23.0910 C.3    54  GLU54       0.0388
     14  CG       -20.4030  -10.4030   24.0890 C.3    54  GLU54       0.1160
     15  CD       -21.5910  -10.0190   24.9770 C.2    54  GLU54       0.3649
     16  OE1      -21.3950   -9.2080   25.9060 O.co2  54  GLU54      -0.2457
     17  OE2      -22.7220  -10.5070   24.7490 O.co2  54  GLU54      -0.2457
     18  N        -21.5340  -11.5970   32.1290 N.3   147  ARG147     -0.1231
     19  CA       -22.2430  -10.7060   31.2190 C.3   147  ARG147      0.1694
     20  C        -21.6000  -10.6430   29.8190 C.2   147  ARG147      0.2592
     21  O        -22.2770  -10.3710   28.8200 O.2   147  ARG147     -0.2718
     22  CB       -22.4110   -9.3120   31.8090 C.3   147  ARG147      0.0321
     23  CG       -23.3480   -8.4780   30.9730 C.3   147  ARG147      0.0489
     24  CD       -23.9760   -7.3500   31.7380 C.3   147  ARG147      0.2205
     25  NE       -25.0210   -6.7290   30.9290 N.pl3 147  ARG147     -0.0865
     26  CZ       -25.4500   -5.4950   31.1130 C.cat 147  ARG147      0.5346
     27  NH1      -24.8930   -4.7470   32.0640 N.pl3 147  ARG147      0.1354
     28  NH2      -26.4270   -5.0090   30.3550 N.pl3 147  ARG147      0.1354
     29  N        -20.3010  -10.9170   29.7530 N.am  148  TYR148     -0.1976
     30  CA       -19.5880  -11.0350   28.4790 C.3   148  TYR148      0.1639
     31  C        -19.9660  -12.2800   27.6690 C.2   148  TYR148      0.2290
     32  O        -19.6630  -12.3660   26.4830 O.2   148  TYR148     -0.2864
     33  CB       -18.0730  -11.0710   28.7220 C.3   148  TYR148      0.0560
     34  CG       -17.4810   -9.7030   28.9050 C.ar  148  TYR148     -0.0198
     35  CD1      -17.3700   -8.8310   27.8270 C.ar  148  TYR148     -0.0009
     36  CD2      -17.0230   -9.2820   30.1470 C.ar  148  TYR148     -0.0009
     37  CE1      -16.8370   -7.5640   27.9800 C.ar  148  TYR148      0.0417
     38  CE2      -16.4760   -8.0140   30.3110 C.ar  148  TYR148      0.0417
     39  CZ       -16.3870   -7.1670   29.2200 C.ar  148  TYR148      0.1957
     40  OH       -15.8530   -5.9160   29.3700 O.3   148  TYR148     -0.2866
     41  N        -25.7190   -3.2480   24.5350 N.3   194  ASP194     -0.1225
     42  CA       -24.9470   -3.7740   25.6450 C.3   194  ASP194      0.1805
     43  C        -24.1280   -5.0190   25.2950 C.2   194  ASP194      0.2598
     44  O        -23.2060   -5.3980   26.0370 O.2   194  ASP194     -0.2718
     45  CB       -25.8520   -4.0610   26.8330 C.3   194  ASP194      0.1424
     46  CG       -26.2850   -2.7840   27.5640 C.2   194  ASP194      0.3668
     47  OD1      -25.7870   -1.6800   27.2530 O.co2 194  ASP194     -0.2456
     48  OD2      -27.1080   -2.9020   28.4730 O.co2 194  ASP194     -0.2456
     49  N        -24.4450   -5.6550   24.1730 N.am  195  GLU195     -0.1965
     50  CA       -23.7850   -6.9170   23.8310 C.3   195  GLU195      0.1733
     51  C        -22.5820   -6.7600   22.8990 C.2   195  GLU195      0.2617
     52  O        -21.8460   -7.7220   22.6540 O.2   195  GLU195     -0.2715
     53  CB       -24.7850   -7.9160   23.2170 C.3   195  GLU195      0.0429
     54  CG       -25.7480   -8.5300   24.2220 C.3   195  GLU195      0.1163
     55  CD       -26.7890   -7.5440   24.7460 C.2   195  GLU195      0.3649
     56  OE1      -27.1950   -6.6180   24.0130 O.co2 195  GLU195     -0.2457
     57  OE2      -27.1970   -7.6970   25.9050 O.co2 195  GLU195     -0.2457
     58  N        -22.3890   -5.5670   22.3570 N.am  196  THR196     -0.1937
     59  CA       -21.2780   -5.3500   21.4370 C.3   196  THR196      0.2028
     60  C        -20.4230   -4.1710   21.8830 C.2   196  THR196      0.2642
     61  O        -20.8580   -3.3650   22.6920 O.2   196  THR196     -0.2714
     62  CB       -21.7770   -5.0590   20.0380 C.3   196  THR196      0.1808
     63  OG1      -22.6100   -3.9030   20.0910 O.3   196  THR196     -0.2208
     64  CG2      -22.5730   -6.2370   19.5060 C.3   196  THR196      0.0379
     65  N        -19.2030   -4.0840   21.3650 N.am  197  SER197     -0.1949
     66  CA       -18.3300   -2.9750   21.7260 C.3   197  SER197      0.1924
     67  C        -17.4490   -2.5750   20.5610 C.2   197  SER197      0.2314
     68  O        -17.3550   -3.2930   19.5590 O.2   197  SER197     -0.2863
     69  CB       -17.4410   -3.3300   22.9340 C.3   197  SER197      0.2116
     70  OG       -16.3640   -4.1800   22.5530 O.3   197  SER197     -0.2180
     71  N        -17.0530   -7.7350   34.0820 N.3   216  ASP216     -0.1225
     72  CA       -17.4680   -6.4990   33.4160 C.3   216  ASP216      0.1805
     73  C        -17.2120   -5.2730   34.2950 C.2   216  ASP216      0.2597
     74  O        -16.8440   -4.2050   33.7970 O.2   216  ASP216     -0.2718
     75  CB       -18.9320   -6.5530   32.9850 C.3   216  ASP216      0.1424
     76  CG       -19.8830   -6.7860   34.1530 C.2   216  ASP216      0.3668
     77  OD1      -19.6850   -7.7500   34.9260 O.co2 216  ASP216     -0.2456
     78  OD2      -20.8280   -5.9880   34.3060 O.co2 216  ASP216     -0.2456
     79  N        -17.3750   -5.4370   35.6030 N.am  217  GLN217     -0.1979
     80  CA       -17.1800   -4.3250   36.5290 C.3   217  GLN217      0.1601
     81  C        -15.7340   -4.1880   37.0020 C.2   217  GLN217      0.2287
     82  O        -15.1980   -3.0860   37.0320 O.2   217  GLN217     -0.2864
     83  CB       -18.1100   -4.4430   37.7500 C.3   217  GLN217      0.0394
     84  CG       -19.5850   -4.2190   37.4150 C.3   217  GLN217      0.0908
     85  CD       -19.8140   -2.9260   36.6450 C.2   217  GLN217      0.2608
     86  OE1      -19.4460   -1.8330   37.1000 O.2   217  GLN217     -0.2717
     87  NE2      -20.4190   -3.0430   35.4730 N.am  217  GLN217     -0.0878
     88  N        -28.2100   -2.3240   33.8740 N.3   304  ASP304     -0.1239
     89  CA       -27.4480   -1.0890   33.7120 C.3   304  ASP304      0.1674
     90  C        -27.8490   -0.0880   34.8020 C.2   304  ASP304      0.2266
     91  O        -26.9850    0.5570   35.4020 O.2   304  ASP304     -0.2867
     92  CB       -27.6630   -0.4530   32.3300 C.3   304  ASP304      0.1410
     93  CG       -27.0650   -1.2780   31.1860 C.2   304  ASP304      0.3668
     94  OD1      -26.3160   -2.2380   31.4530 O.co2 304  ASP304     -0.2456
     95  OD2      -27.3640   -0.9550   30.0160 O.co2 304  ASP304     -0.2456
     96  N        -25.2440    1.1930   37.5890 N.3   308  GLU308     -0.1245
     97  CA       -24.7210    2.5380   37.3310 C.3   308  GLU308      0.1567
     98  C        -25.3440    3.6100   38.2160 C.2   308  GLU308      0.2260
     99  O        -24.6420    4.4670   38.7390 O.2   308  GLU308     -0.2867
    100  CB       -24.9160    2.9210   35.8640 C.3   308  GLU308      0.0388
    101  CG       -24.1760    2.0330   34.9060 C.3   308  GLU308      0.1160
    102  CD       -24.7270    2.1090   33.4970 C.2   308  GLU308      0.3649
    103  OE1      -25.7040    2.8500   33.2720 O.co2 308  GLU308     -0.2457
    104  OE2      -24.1860    1.4150   32.6130 O.co2 308  GLU308     -0.2457
@<TRIPOS>BOND
     1    64    62    1
     2    68    67    2
     3    62    63    1
     4    62    59    1
     5    67    66    1
     6    65    66    1
     7    65    60   am
     8    59    60    1
     9    59    58    1
    10    11    12    2
    11    11    10    1
    12    66    69    1
    13    60    61    2
    14     9    10    1
    15    58    51   am
    16    70    69    1
    17    10    13    1
    18    52    51    2
    19    51    50    1
    20    13    14    1
    21    53    50    1
    22    53    54    1
    23     3     4    2
    24     3     2    1
    25    50    49    1
    26     5     2    1
    27     5     6    1
    28    56    55   ar
    29    14    15    1
    30    49    43   am
    31    54    55    1
    32     2     1    1
    33     7     6    1
    34    41    42    1
    35    55    57   ar
    36    17    15   ar
    37    15    16   ar
    38     6     8    1
    39    43    42    1
    40    43    44    2
    41    42    45    1
    42    32    31    2
    43    45    46    1
    44    47    46   ar
    45    46    48   ar
    46    31    30    1
    47    35    37   ar
    48    35    34   ar
    49    37    39   ar
    50    30    33    1
    51    30    29    1
    52    33    34    1
    53    21    20    2
    54    34    36   ar
    55    39    40    1
    56    39    38   ar
    57    29    20   am
    58    20    19    1
    59    95    93   ar
    60    36    38   ar
    61    28    26    1
    62    25    26    2
    63    25    24    1
    64    23    24    1
    65    23    22    1
    66    26    27    1
    67    93    94   ar
    68    93    92    1
    69    19    22    1
    70    19    18    1
    71    92    89    1
    72   104   102   ar
    73    75    72    1
    74    75    76    1
    75   103   102   ar
    76    72    71    1
    77    72    73    1
    78   102   101    1
    79    89    88    1
    80    89    90    1
    81    74    73    2
    82    76    78   ar
    83    76    77   ar
    84    73    79   am
    85    90    91    2
    86   101   100    1
    87    87    85   am
    88    79    80    1
    89   100    97    1
    90    80    81    1
    91    80    83    1
    92    85    86    2
    93    85    84    1
    94    81    82    2
    95    97    96    1
    96    97    98    1
    97    84    83    1
    98    98    99    2
