@<TRIPOS>MOLECULE
tmp/4ntyA00.pdb
 120 114 0 0 0
SMALL
GASTEIGER

@<TRIPOS>ATOM
      1  N         15.3660    6.9010    7.2760 N.3    51  LEU51      -0.1245
      2  CA        14.8000    8.2540    7.2860 C.3    51  LEU51       0.1561
      3  C         15.5290    9.1660    8.2670 C.2    51  LEU51       0.2260
      4  O         15.4780   10.3870    8.1470 O.2    51  LEU51      -0.2867
      5  CB        13.3000    8.2330    7.5700 C.3    51  LEU51       0.0270
      6  CG        12.4980    7.5780    6.4500 C.3    51  LEU51       0.0019
      7  CD1       11.0140    7.6370    6.7380 C.3    51  LEU51       0.0001
      8  CD2       12.8210    8.2200    5.1190 C.3    51  LEU51       0.0001
      9  N         19.0810   10.4870    9.5760 N.3    53  GLU53      -0.1245
     10  CA        20.3870   10.7020    8.9680 C.3    53  GLU53       0.1567
     11  C         21.5710   10.4440    9.8940 C.2    53  GLU53       0.2260
     12  O         22.6060    9.9870    9.4480 O.2    53  GLU53      -0.2867
     13  CB        20.4540   12.1030    8.3670 C.3    53  GLU53       0.0388
     14  CG        19.2740   12.3910    7.4610 C.3    53  GLU53       0.1160
     15  CD        19.4330   13.6410    6.6080 C.2    53  GLU53       0.3649
     16  OE1       18.6280   13.8200    5.6750 O.co2  53  GLU53      -0.2457
     17  OE2       20.3470   14.4460    6.8550 O.co2  53  GLU53      -0.2457
     18  N         20.5970   12.6840   -0.4170 N.3   146  ARG146     -0.1231
     19  CA        20.0990   13.7620    0.4230 C.3   146  ARG146      0.1694
     20  C         19.7730   13.2490    1.8250 C.2   146  ARG146      0.2592
     21  O         19.7640   14.0070    2.7840 O.2   146  ARG146     -0.2718
     22  CB        18.8790   14.4120   -0.2170 C.3   146  ARG146      0.0321
     23  CG        18.3510   15.6230    0.5190 C.3   146  ARG146      0.0489
     24  CD        18.8390   16.8720   -0.1260 C.3   146  ARG146      0.2205
     25  NE        18.4750   18.0800    0.6090 N.pl3 146  ARG146     -0.0865
     26  CZ        17.5140   18.9190    0.2430 C.cat 146  ARG146      0.5346
     27  NH1       16.7980   18.6830   -0.8390 N.pl3 146  ARG146      0.1354
     28  NH2       17.2700   19.9880    0.9600 N.pl3 146  ARG146      0.1354
     29  N         19.5290   11.9500    1.9420 N.am  147  TYR147     -0.1976
     30  CA        19.2820   11.3290    3.2380 C.3   147  TYR147      0.1639
     31  C         20.5700   11.0370    3.9820 C.2   147  TYR147      0.2290
     32  O         20.5650   10.7000    5.1530 O.2   147  TYR147     -0.2864
     33  CB        18.5280   10.0300    3.0530 C.3   147  TYR147      0.0560
     34  CG        17.0930   10.2050    2.6920 C.ar  147  TYR147     -0.0198
     35  CD1       16.1450   10.4530    3.6650 C.ar  147  TYR147     -0.0009
     36  CD2       16.6830   10.1080    1.3810 C.ar  147  TYR147     -0.0009
     37  CE1       14.8260   10.6070    3.3400 C.ar  147  TYR147      0.0417
     38  CE2       15.3820   10.2550    1.0470 C.ar  147  TYR147      0.0417
     39  CZ        14.4490   10.5080    2.0250 C.ar  147  TYR147      0.1957
     40  OH        13.1280   10.6580    1.6730 O.3   147  TYR147     -0.2866
     41  N         12.1710   21.9490   12.9080 N.3   191  GLU191     -0.1231
     42  CA        11.9080   21.4640   11.5610 C.3   191  GLU191      0.1699
     43  C         12.9370   22.0050   10.5920 C.2   191  GLU191      0.2593
     44  O         12.9660   23.1890   10.3170 O.2   191  GLU191     -0.2718
     45  CB        10.5220   21.8960   11.1000 C.3   191  GLU191      0.0402
     46  CG         9.4060   21.4120   11.9900 C.3   191  GLU191      0.1161
     47  CD         8.0380   21.8360   11.4980 C.2   191  GLU191      0.3649
     48  OE1        7.1780   22.1420   12.3510 O.co2 191  GLU191     -0.2457
     49  OE2        7.8220   21.8560   10.2660 O.co2 191  GLU191     -0.2457
     50  N         13.7970   21.1350   10.0840 N.am  192  THR192     -0.1939
     51  CA        14.7990   21.5260    9.1070 C.3   192  THR192      0.2028
     52  C         14.7960   20.4680    8.0200 C.2   192  THR192      0.2642
     53  O         14.1010   19.4800    8.1350 O.2   192  THR192     -0.2714
     54  CB        16.1990   21.5990    9.7340 C.3   192  THR192      0.1808
     55  OG1       16.7580   20.2870    9.8260 O.3   192  THR192     -0.2208
     56  CG2       16.1340   22.1970   11.1210 C.3   192  THR192      0.0379
     57  N         15.5820   20.6620    6.9750 N.am  193  ASP193     -0.1957
     58  CA        15.6610   19.6940    5.8930 C.3   193  ASP193      0.1840
     59  C         16.2990   18.3670    6.2960 C.2   193  ASP193      0.2622
     60  O         16.3020   17.4240    5.5210 O.2   193  ASP193     -0.2715
     61  CB        16.4160   20.2900    4.7020 C.3   193  ASP193      0.1450
     62  CG        15.5610   21.2490    3.8860 C.2   193  ASP193      0.3671
     63  OD1       14.4630   21.6220    4.3350 O.co2 193  ASP193     -0.2456
     64  OD2       15.9800   21.6290    2.7870 O.co2 193  ASP193     -0.2456
     65  N         16.8420   18.2940    7.5040 N.am  194  GLU194     -0.1963
     66  CA        17.5580   17.1070    7.9420 C.3   194  GLU194      0.1733
     67  C         16.8340   16.3980    9.0650 C.2   194  GLU194      0.2617
     68  O         17.3600   15.4390    9.6330 O.2   194  GLU194     -0.2715
     69  CB        18.9820   17.4470    8.3990 C.3   194  GLU194      0.0429
     70  CG        19.9840   17.7590    7.2840 C.3   194  GLU194      0.1163
     71  CD        19.8700   19.1690    6.7430 C.2   194  GLU194      0.3649
     72  OE1       19.4260   20.0740    7.4750 O.co2 194  GLU194     -0.2457
     73  OE2       20.2290   19.3750    5.5720 O.co2 194  GLU194     -0.2457
     74  N         15.6370   16.8730    9.4010 N.am  195  THR195     -0.1937
     75  CA        14.8580   16.2450   10.4600 C.3   195  THR195      0.2028
     76  C         13.6700   15.4980    9.8800 C.2   195  THR195      0.2642
     77  O         13.2460   15.7490    8.7640 O.2   195  THR195     -0.2714
     78  CB        14.4000   17.2460   11.5460 C.3   195  THR195      0.1808
     79  OG1       13.5920   18.2650   10.9560 O.3   195  THR195     -0.2208
     80  CG2       15.5910   17.8880   12.2210 C.3   195  THR195      0.0379
     81  N         13.1400   14.5660   10.6520 N.am  196  SER196     -0.1949
     82  CA        12.1530   13.6460   10.1420 C.3   196  SER196      0.1924
     83  C         11.0720   13.4350   11.1800 C.2   196  SER196      0.2314
     84  O         11.3640   13.1440   12.3280 O.2   196  SER196     -0.2863
     85  CB        12.8290   12.3100    9.8130 C.3   196  SER196      0.2116
     86  OG        11.9540   11.4490    9.1240 O.3   196  SER196     -0.2180
     87  N         15.1710   10.9310   -2.5890 N.3   215  ASP215     -0.1225
     88  CA        14.2560   11.8610   -1.9160 C.3   215  ASP215      0.1805
     89  C         13.1090   12.3070   -2.8270 C.2   215  ASP215      0.2597
     90  O         12.0570   12.7350   -2.3570 O.2   215  ASP215     -0.2718
     91  CB        14.9960   13.0900   -1.3850 C.3   215  ASP215      0.1424
     92  CG        15.5580   13.9620   -2.4990 C.2   215  ASP215      0.3668
     93  OD1       16.3220   13.4490   -3.3420 O.co2 215  ASP215     -0.2456
     94  OD2       15.2270   15.1680   -2.5360 O.co2 215  ASP215     -0.2456
     95  N         13.3080   12.1940   -4.1310 N.am  216  GLN216     -0.1979
     96  CA        12.3140   12.6480   -5.0810 C.3   216  GLN216      0.1601
     97  C         11.5130   11.5090   -5.6810 C.2   216  GLN216      0.2287
     98  O         10.3230   11.6390   -5.8830 O.2   216  GLN216     -0.2864
     99  CB        12.9690   13.4770   -6.1980 C.3   216  GLN216      0.0394
    100  CG        13.6270   14.7610   -5.7270 C.3   216  GLN216      0.0908
    101  CD        12.6730   15.6570   -4.9880 C.2   216  GLN216      0.2608
    102  OE1       11.5790   15.9260   -5.4600 O.2   216  GLN216     -0.2717
    103  NE2       13.0710   16.1080   -3.8120 N.am  216  GLN216     -0.0878
    104  N         16.1730   23.0710   -2.4150 N.3   303  ASP303     -0.1239
    105  CA        14.7170   23.1110   -2.2730 C.3   303  ASP303      0.1674
    106  C         14.0520   23.9540   -3.3460 C.2   303  ASP303      0.2266
    107  O         13.0290   23.5670   -3.8800 O.2   303  ASP303     -0.2867
    108  CB        14.2990   23.6670   -0.9190 C.3   303  ASP303      0.1410
    109  CG        14.6480   22.7610    0.2170 C.2   303  ASP303      0.3668
    110  OD1       14.9870   21.5840   -0.0170 O.co2 303  ASP303     -0.2456
    111  OD2       14.5650   23.2350    1.3570 O.co2 303  ASP303     -0.2456
    112  N         11.5800   22.4000   -5.9460 N.3   307  GLU307     -0.1245
    113  CA        10.1820   22.7450   -5.7400 C.3   307  GLU307      0.1567
    114  C          9.6520   23.8370   -6.6640 C.2   307  GLU307      0.2260
    115  O          8.6070   23.6590   -7.2750 O.2   307  GLU307     -0.2867
    116  CB         9.9440   23.1270   -4.2900 C.3   307  GLU307      0.0388
    117  CG        10.2730   22.0290   -3.3450 C.3   307  GLU307      0.1160
    118  CD        10.5010   22.5240   -1.9380 C.2   307  GLU307      0.3649
    119  OE1       10.3950   23.7370   -1.7080 O.co2 307  GLU307     -0.2457
    120  OE2       10.7960   21.6960   -1.0590 O.co2 307  GLU307     -0.2457
@<TRIPOS>BOND
     1   115   114    2
     2   114   113    1
     3    99   100    1
     4    99    96    1
     5   112   113    1
     6    98    97    2
     7   113   116    1
     8   100   101    1
     9    97    96    1
    10   102   101    2
    11    96    95    1
    12   101   103   am
    13   116   117    1
    14    95    89   am
    15   107   106    2
    16   106   105    1
    17   117   118    1
    18    93    92   ar
    19    89    90    2
    20    89    88    1
    21    87    88    1
    22    94    92   ar
    23    92    91    1
    24   104   105    1
    25   105   108    1
    26   118   119   ar
    27   118   120   ar
    28    88    91    1
    29   108   109    1
    30    27    26    1
    31    18    19    1
    32    22    19    1
    33    22    23    1
    34    24    23    1
    35    24    25    1
    36   110   109   ar
    37   109   111   ar
    38    26    25    2
    39    26    28    1
    40    19    20    1
    41    38    36   ar
    42    38    39   ar
    43    36    34   ar
    44    40    39    1
    45    20    29   am
    46    20    21    2
    47    29    30    1
    48    39    37   ar
    49    34    33    1
    50    34    35   ar
    51    64    62   ar
    52    33    30    1
    53    30    31    1
    54    37    35   ar
    55    62    63   ar
    56    62    61    1
    57    31    32    2
    58    61    58    1
    59     8     6    1
    60    60    59    2
    61    73    71   ar
    62    16    15   ar
    63    58    59    1
    64    58    57    1
    65    59    65   am
    66     6     7    1
    67     6     5    1
    68    15    17   ar
    69    15    14    1
    70    71    70    1
    71    71    72   ar
    72    57    52   am
    73     1     2    1
    74    70    69    1
    75     2     5    1
    76     2     3    1
    77    14    13    1
    78    65    66    1
    79    66    69    1
    80    66    67    1
    81    52    53    2
    82    52    51    1
    83     4     3    2
    84    13    10    1
    85    77    76    2
    86    10     9    1
    87    10    11    1
    88    67    74   am
    89    67    68    2
    90    51    54    1
    91    51    50    1
    92    86    85    1
    93    74    75    1
    94    12    11    2
    95    54    55    1
    96    54    56    1
    97    85    82    1
    98    76    75    1
    99    76    81   am
   100    50    43   am
   101    82    81    1
   102    82    83    1
   103    49    47   ar
   104    44    43    2
   105    75    78    1
   106    43    42    1
   107    79    78    1
   108    45    42    1
   109    45    46    1
   110    83    84    2
   111    47    46    1
   112    47    48   ar
   113    78    80    1
   114    42    41    1
