@<TRIPOS>MOLECULE
tmp/4nucA00.pdb
 119 116 0 0 0
SMALL
GASTEIGER

@<TRIPOS>ATOM
      1  N         -9.0270    4.1530   -6.1230 N.3    40  TRP40      -0.1228
      2  CA       -10.4470    3.9280   -6.3370 C.3    40  TRP40       0.1722
      3  C        -11.2780    5.0990   -6.8520 C.2    40  TRP40       0.2437
      4  O        -12.1360    4.9190   -7.7170 O.2    40  TRP40      -0.2733
      5  CB       -11.0970    3.2410   -5.1200 C.3    40  TRP40       0.0563
      6  CG       -10.9890    3.9910   -3.8560 C.ar   40  TRP40       0.0003
      7  CD1      -10.0350    3.8570   -2.9130 C.ar   40  TRP40       0.0946
      8  CD2      -11.9130    4.9960   -3.3750 C.ar   40  TRP40       0.0152
      9  NE1      -10.2670    4.7300   -1.9060 N.ar   40  TRP40      -0.2442
     10  CE2      -11.4140    5.4480   -2.1570 C.ar   40  TRP40       0.0810
     11  CE3      -13.0710    5.5700   -3.8800 C.ar   40  TRP40       0.0012
     12  CZ2      -12.0690    6.4090   -1.3900 C.ar   40  TRP40       0.0191
     13  CZ3      -13.7060    6.5430   -3.1340 C.ar   40  TRP40       0.0001
     14  CH2      -13.1880    6.9640   -1.9150 C.ar   40  TRP40       0.0015
     15  N        -11.0210    6.3400   -6.3610 N.am   41  PRO41      -0.2718
     16  CA       -11.8160    7.4560   -6.9330 C.3    41  PRO41       0.1535
     17  C        -11.5710    7.7130   -8.4100 C.2    41  PRO41       0.2598
     18  O        -12.3720    8.4280   -9.0370 O.2    41  PRO41      -0.2715
     19  CB       -11.3920    8.6570   -6.0820 C.3    41  PRO41       0.0310
     20  CG       -10.7100    8.1130   -4.8610 C.3    41  PRO41       0.0237
     21  CD       -10.0550    6.8350   -5.3640 C.3    41  PRO41       0.0939
     22  N        -10.4720    7.1880   -8.9360 N.am   42  PHE42      -0.1974
     23  CA        -9.9320    7.5710  -10.2190 C.3    42  PHE42       0.1639
     24  C        -10.0000    6.4610  -11.2610 C.2    42  PHE42       0.2290
     25  O         -9.5570    6.6620  -12.3860 O.2    42  PHE42      -0.2864
     26  CB        -8.4670    8.0750  -10.0560 C.3    42  PHE42       0.0560
     27  CG        -8.3350    9.1760   -9.0570 C.ar   42  PHE42      -0.0200
     28  CD1       -8.7460   10.4670   -9.3530 C.ar   42  PHE42      -0.0042
     29  CD2       -7.8520    8.9070   -7.7790 C.ar   42  PHE42      -0.0042
     30  CE1       -8.6440   11.4610   -8.3960 C.ar   42  PHE42      -0.0003
     31  CE2       -7.7610    9.8920   -6.8220 C.ar   42  PHE42      -0.0003
     32  CZ        -8.1900   11.1550   -7.1420 C.ar   42  PHE42      -0.0000
     33  N        -12.6020    5.1350  -12.7950 N.3    44  GLN44      -0.1245
     34  CA       -13.7200    5.2720  -13.7240 C.3    44  GLN44       0.1566
     35  C        -14.1580    6.7170  -13.7170 C.2    44  GLN44       0.2260
     36  O        -13.8030    7.4660  -12.7910 O.2    44  GLN44      -0.2867
     37  CB       -14.8990    4.3610  -13.2860 C.3    44  GLN44       0.0367
     38  CG       -15.4180    4.6500  -11.9250 C.3    44  GLN44       0.0905
     39  CD       -14.4850    4.1600  -10.8050 C.2    44  GLN44       0.2608
     40  OE1      -14.1050    2.9790  -10.7410 O.2    44  GLN44      -0.2717
     41  NE2      -14.1400    5.0810   -9.8730 N.am   44  GLN44      -0.0878
     42  N        -16.2480   10.0150  -12.9480 N.3    46  VAL46      -0.1245
     43  CA       -17.0390   10.4100  -11.8200 C.3    46  VAL46       0.1561
     44  C        -18.5140   10.2300  -12.1470 C.2    46  VAL46       0.2260
     45  O        -19.0630   10.8460  -13.0620 O.2    46  VAL46      -0.2867
     46  CB       -16.7420   11.8600  -11.3750 C.3    46  VAL46       0.0252
     47  CG1      -17.6560   12.2700  -10.2180 C.3    46  VAL46       0.0019
     48  CG2      -15.2920   12.0160  -10.9670 C.3    46  VAL46       0.0019
     49  N        -24.8510    8.9140   -9.4230 N.3    50  LYS50      -0.1231
     50  CA       -24.7960    8.0000   -8.2960 C.3    50  LYS50       0.1693
     51  C        -24.3180    8.6760   -7.0090 C.2    50  LYS50       0.2591
     52  O        -24.7200    8.2670   -5.9100 O.2    50  LYS50      -0.2718
     53  CB       -23.9380    6.7680   -8.6270 C.3    50  LYS50       0.0285
     54  CG       -23.5680    5.8100   -7.4920 C.3    50  LYS50       0.0035
     55  CD       -22.4660    4.7560   -7.8930 C.3    50  LYS50       0.0206
     56  CE       -21.9060    3.9020   -6.7260 C.3    50  LYS50       0.1093
     57  NZ       -21.0370    4.6660   -5.7440 N.3    50  LYS50      -0.1314
     58  N        -23.4080    9.6370   -7.1680 N.am   51  LEU51      -0.1980
     59  CA       -22.8660   10.3480   -6.0470 C.3    51  LEU51       0.1596
     60  C        -23.6660   11.5970   -5.6920 C.2    51  LEU51       0.2287
     61  O        -23.3210   12.2790   -4.7660 O.2    51  LEU51      -0.2864
     62  CB       -21.4030   10.7020   -6.3270 C.3    51  LEU51       0.0297
     63  CG       -20.4790    9.4970   -6.5580 C.3    51  LEU51       0.0022
     64  CD1      -19.1570    9.9100   -7.1000 C.3    51  LEU51       0.0001
     65  CD2      -20.3380    8.7210   -5.2340 C.3    51  LEU51       0.0001
     66  N        -23.8560   14.5990   -7.3210 N.3    53  LEU53      -0.1245
     67  CA       -23.0020   15.7770   -7.5060 C.3    53  LEU53       0.1561
     68  C        -23.5030   16.5470   -8.7570 C.2    53  LEU53       0.2260
     69  O        -22.8140   16.5680   -9.7960 O.2    53  LEU53      -0.2867
     70  CB       -21.5290   15.3690   -7.7100 C.3    53  LEU53       0.0270
     71  CG       -20.8950   14.4780   -6.6050 C.3    53  LEU53       0.0019
     72  CD1      -19.5120   13.9700   -6.9710 C.3    53  LEU53       0.0001
     73  CD2      -20.8620   15.2590   -5.3130 C.3    53  LEU53       0.0001
     74  N        -21.1040   18.7350  -10.7470 N.3    56  TYR56      -0.1241
     75  CA       -19.7860   18.2400  -11.1130 C.3    56  TYR56       0.1605
     76  C        -19.4660   18.5870  -12.5670 C.2    56  TYR56       0.2264
     77  O        -18.3900   19.1630  -12.8660 O.2    56  TYR56      -0.2867
     78  CB       -19.5730   16.7440  -10.8200 C.3    56  TYR56       0.0534
     79  CG       -18.1360   16.3380  -11.0780 C.ar   56  TYR56      -0.0201
     80  CD1      -17.1760   16.4800  -10.1070 C.ar   56  TYR56      -0.0009
     81  CD2      -17.7150   15.8400  -12.2950 C.ar   56  TYR56      -0.0009
     82  CE1      -15.8820   16.2100  -10.3260 C.ar   56  TYR56       0.0417
     83  CE2      -16.3950   15.5350  -12.5500 C.ar   56  TYR56       0.0417
     84  CZ       -15.4640   15.7410  -11.5620 C.ar   56  TYR56       0.1957
     85  OH       -14.1340   15.4410  -11.8020 O.3    56  TYR56      -0.2866
     86  N         -9.6650   17.1380  -10.1080 N.3    95  CYS95      -0.1235
     87  CA        -9.8320   16.8710   -8.6820 C.3    95  CYS95       0.1677
     88  C         -9.5230   18.1250   -7.8630 C.2    95  CYS95       0.2270
     89  O        -10.2220   18.4520   -6.9190 O.2    95  CYS95      -0.2867
     90  CB        -8.9410   15.7300   -8.2360 C.3    95  CYS95       0.0956
     91  SG        -9.1770   15.1620   -6.5400 S.3    95  CYS95      -0.0801
     92  N        -12.3650   20.8600   -8.3830 N.3    98  TYR98      -0.1227
     93  CA       -13.6520   20.6030   -7.8060 C.3    98  TYR98       0.1736
     94  C        -13.6260   20.5450   -6.2870 C.2    98  TYR98       0.2595
     95  O        -14.5620   20.9900   -5.5990 O.2    98  TYR98      -0.2718
     96  CB       -14.2850   19.3080   -8.4150 C.3    98  TYR98       0.0548
     97  CG       -15.7310   19.0850   -7.9400 C.ar   98  TYR98      -0.0200
     98  CD1      -16.7960   19.7650   -8.4890 C.ar   98  TYR98      -0.0009
     99  CD2      -15.9900   18.2600   -6.8930 C.ar   98  TYR98      -0.0009
    100  CE1      -18.0940   19.5760   -8.0530 C.ar   98  TYR98       0.0417
    101  CE2      -17.2690   18.0500   -6.4270 C.ar   98  TYR98       0.0417
    102  CZ       -18.3240   18.7310   -6.9810 C.ar   98  TYR98       0.1957
    103  OH       -19.6010   18.5510   -6.5360 O.3    98  TYR98      -0.2866
    104  N        -12.5580   20.0030   -5.7490 N.am   99  ASN99      -0.1974
    105  CA       -12.4190   19.7390   -4.3230 C.3    99  ASN99       0.1688
    106  C        -11.5350   20.7820   -3.6320 C.2    99  ASN99       0.2292
    107  O        -10.9080   21.6080   -4.2830 O.2    99  ASN99      -0.2864
    108  CB       -11.8950   18.3220   -4.1150 C.3    99  ASN99       0.1181
    109  CG       -12.8650   17.2850   -4.7090 C.2    99  ASN99       0.2629
    110  OD1      -13.9640   17.0360   -4.1810 O.2    99  ASN99      -0.2716
    111  ND2      -12.4790   16.7040   -5.8400 N.am   99  ASN99      -0.0877
    112  N         -9.9850   13.4190   -0.5970 N.3   105  ILE105     -0.1245
    113  CA        -9.7470   13.0990   -1.9950 C.3   105  ILE105      0.1561
    114  C         -8.6130   13.8850   -2.6300 C.2   105  ILE105      0.2260
    115  O         -7.9060   13.3860   -3.4850 O.2   105  ILE105     -0.2867
    116  CB       -10.9900   13.2480   -2.8740 C.3   105  ILE105      0.0252
    117  CG1      -10.7560   12.4960   -4.2060 C.3   105  ILE105      0.0019
    118  CG2      -11.4220   14.7070   -2.9830 C.3   105  ILE105      0.0019
    119  CD1      -11.9720   12.3550   -5.0360 C.3   105  ILE105      0.0001
@<TRIPOS>BOND
     1    34    35    1
     2    34    37    1
     3    34    33    1
     4    35    36    2
     5    37    38    1
     6    45    44    2
     7    42    43    1
     8    77    76    2
     9    76    75    1
    10    83    81   ar
    11    83    84   ar
    12    25    24    2
    13    81    79   ar
    14    44    43    1
    15    38    39    1
    16    43    46    1
    17    85    84    1
    18    84    82   ar
    19    46    48    1
    20    46    47    1
    21    24    23    1
    22    75    78    1
    23    75    74    1
    24    79    78    1
    25    79    80   ar
    26    39    40    2
    27    39    41   am
    28    82    80   ar
    29    23    26    1
    30    23    22    1
    31    86    87    1
    32    26    27    1
    33    69    68    2
    34    49    50    1
    35    28    27   ar
    36    28    30   ar
    37    27    29   ar
    38    18    17    2
    39    22    17   am
    40    68    67    1
    41    87    90    1
    42    87    88    1
    43    53    50    1
    44    53    54    1
    45    98   100   ar
    46    98    97   ar
    47    96    97    1
    48    96    93    1
    49    17    16    1
    50    30    32   ar
    51    92    93    1
    52    50    51    1
    53    90    91    1
    54   100   102   ar
    55    97    99   ar
    56    55    54    1
    57    55    56    1
    58    88    89    2
    59    93    94    1
    60    29    31   ar
    61     4     3    2
    62    70    67    1
    63    70    71    1
    64    67    66    1
    65    58    51   am
    66    58    59    1
    67    32    31   ar
    68    64    63    1
    69    51    52    2
    70   102   103    1
    71   102   101   ar
    72    72    71    1
    73    16    15    1
    74    16    19    1
    75    99   101   ar
    76     3    15   am
    77     3     2    1
    78    56    57    1
    79    71    73    1
    80    63    62    1
    81    63    65    1
    82    15    21    1
    83     2     1    1
    84     2     5    1
    85    62    59    1
    86    94   104   am
    87    94    95    2
    88    19    20    1
    89    59    60    1
    90   111   109   am
    91   104   105    1
    92    60    61    2
    93    21    20    1
    94     5     6    1
    95   119   117    1
    96   109   110    2
    97   109   108    1
    98   105   108    1
    99   105   106    1
   100   107   106    2
   101   117   116    1
   102    11     8   ar
   103    11    13   ar
   104     6     8   ar
   105     6     7   ar
   106   115   114    2
   107     8    10   ar
   108    13    14   ar
   109   118   116    1
   110     7     9   ar
   111   116   113    1
   112   114   113    1
   113    10     9   ar
   114    10    12   ar
   115   113   112    1
   116    14    12   ar
