@<TRIPOS>MOLECULE
tmp/4nufA00.pdb
 191 187 0 0 0
SMALL
GASTEIGER

@<TRIPOS>ATOM
      1  N         -6.0890   11.1660  -30.5860 N.3    12  ASN12      -0.1240
      2  CA        -4.9740   11.7560  -31.3040 C.3    12  ASN12       0.1653
      3  C         -3.6690   11.0690  -30.9900 C.2    12  ASN12       0.2266
      4  O         -3.4810   10.5880  -29.8790 O.2    12  ASN12      -0.2867
      5  CB        -4.8720   13.2350  -30.9730 C.3    12  ASN12       0.1155
      6  CG        -4.0460   13.9990  -31.9810 C.2    12  ASN12       0.2627
      7  OD1       -3.8770   13.5650  -33.1240 O.2    12  ASN12      -0.2716
      8  ND2       -3.5430   15.1610  -31.5700 N.am   12  ASN12      -0.0877
      9  N         -0.7150   12.2450  -30.4120 N.3    14  ASP14      -0.1225
     10  CA         0.1590   12.8890  -29.4360 C.3    14  ASP14       0.1805
     11  C         -0.2780   12.6920  -27.9850 C.2    14  ASP14       0.2597
     12  O          0.4270   13.1010  -27.0620 O.2    14  ASP14      -0.2718
     13  CB         0.2640   14.3800  -29.7220 C.3    14  ASP14       0.1424
     14  CG        -1.0870   15.0410  -29.8440 C.2    14  ASP14       0.3668
     15  OD1       -2.0920   14.4380  -29.3910 O.co2  14  ASP14      -0.2456
     16  OD2       -1.1400   16.1680  -30.3910 O.co2  14  ASP14      -0.2456
     17  N         -1.4440   12.0770  -27.7900 N.am   15  LYS15      -0.1979
     18  CA        -1.9760   11.7930  -26.4570 C.3    15  LYS15       0.1596
     19  C         -1.4340   10.4730  -25.8780 C.2    15  LYS15       0.2287
     20  O         -0.6100    9.8000  -26.5010 O.2    15  LYS15      -0.2864
     21  CB        -3.4970   11.7340  -26.5070 C.3    15  LYS15       0.0298
     22  CG        -4.1450   13.0310  -26.9460 C.3    15  LYS15       0.0038
     23  CD        -3.7700   14.1730  -26.0200 C.3    15  LYS15       0.0206
     24  CE        -4.5100   15.4390  -26.3900 C.3    15  LYS15       0.1093
     25  NZ        -4.2100   15.8130  -27.7900 N.3    15  LYS15      -0.1314
     26  N         -8.9390   14.4470  -36.8560 N.3    44  GLU44      -0.1245
     27  CA        -9.8180   15.6200  -36.7950 C.3    44  GLU44       0.1567
     28  C        -10.7960   15.6830  -37.9860 C.2    44  GLU44       0.2260
     29  O        -11.9180   16.1770  -37.8600 O.2    44  GLU44      -0.2867
     30  CB        -8.9620   16.8950  -36.7490 C.3    44  GLU44       0.0388
     31  CG        -7.8730   16.9280  -37.8130 C.3    44  GLU44       0.1160
     32  CD        -7.2010   18.2840  -37.9550 C.2    44  GLU44       0.3649
     33  OE1       -6.4960   18.7290  -37.0240 O.co2  44  GLU44      -0.2457
     34  OE2       -7.3780   18.9150  -39.0160 O.co2  44  GLU44      -0.2457
     35  N        -11.1330   14.3030  -28.6330 N.3    62  TRP62      -0.1227
     36  CA       -10.6180   15.4890  -29.2730 C.3    62  TRP62       0.1737
     37  C        -11.0560   16.6980  -28.4630 C.2    62  TRP62       0.2595
     38  O        -11.8460   16.5680  -27.5250 O.2    62  TRP62      -0.2718
     39  CB       -11.1460   15.5750  -30.7090 C.3    62  TRP62       0.0564
     40  CG       -10.3620   16.5010  -31.5780 C.ar   62  TRP62       0.0003
     41  CD1      -10.6010   17.8240  -31.7790 C.ar   62  TRP62       0.0946
     42  CD2       -9.1550   16.1960  -32.3110 C.ar   62  TRP62       0.0152
     43  NE1       -9.6220   18.3700  -32.5810 N.ar   62  TRP62      -0.2442
     44  CE2       -8.7230   17.3950  -32.9230 C.ar   62  TRP62       0.0810
     45  CE3       -8.3940   15.0290  -32.5050 C.ar   62  TRP62       0.0012
     46  CZ2       -7.5630   17.4650  -33.7230 C.ar   62  TRP62       0.0191
     47  CZ3       -7.2310   15.1000  -33.3040 C.ar   62  TRP62       0.0001
     48  CH2       -6.8340   16.3090  -33.8980 C.ar   62  TRP62       0.0015
     49  N        -10.5240   17.8680  -28.8010 N.am   63  ALA63      -0.1980
     50  CA       -10.8950   19.1000  -28.1210 C.3    63  ALA63       0.1597
     51  C        -12.3650   19.4500  -28.4310 C.2    63  ALA63       0.2287
     52  O        -12.9020   19.1010  -29.4890 O.2    63  ALA63      -0.2864
     53  CB        -9.9620   20.2280  -28.5560 C.3    63  ALA63       0.0319
     54  N        -13.7530   22.1390  -29.3080 N.3    65  ASP65      -0.1225
     55  CA       -13.9270   23.0220  -30.4590 C.3    65  ASP65       0.1805
     56  C        -14.4570   22.3340  -31.7250 C.2    65  ASP65       0.2597
     57  O        -15.0710   22.9770  -32.5670 O.2    65  ASP65      -0.2718
     58  CB       -12.6070   23.7520  -30.7720 C.3    65  ASP65       0.1424
     59  CG       -11.5970   22.8670  -31.4910 C.2    65  ASP65       0.3668
     60  OD1      -11.2360   21.8140  -30.9420 O.co2  65  ASP65      -0.2456
     61  OD2      -11.1600   23.2160  -32.6090 O.co2  65  ASP65      -0.2456
     62  N        -14.2370   21.0350  -31.8590 N.am   66  ARG66      -0.1979
     63  CA       -14.7080   20.3220  -33.0330 C.3    66  ARG66       0.1597
     64  C        -16.0610   19.6480  -32.8220 C.2    66  ARG66       0.2287
     65  O        -16.8420   19.5300  -33.7640 O.2    66  ARG66      -0.2864
     66  CB       -13.6940   19.2540  -33.4420 C.3    66  ARG66       0.0334
     67  CG       -12.4160   19.7780  -34.0680 C.3    66  ARG66       0.0492
     68  CD       -12.5500   19.9830  -35.5670 C.3    66  ARG66       0.2205
     69  NE       -11.2790   20.4300  -36.1440 N.pl3  66  ARG66      -0.0865
     70  CZ       -11.1440   20.9210  -37.3730 C.cat  66  ARG66       0.5346
     71  NH1      -12.2040   21.0270  -38.1660 N.pl3  66  ARG66       0.1354
     72  NH2       -9.9580   21.3390  -37.7970 N.pl3  66  ARG66       0.1354
     73  N         -6.4390   21.6710  -21.4280 N.3   111  GLU111     -0.1245
     74  CA        -5.0790   21.8650  -21.9210 C.3   111  GLU111      0.1567
     75  C         -4.8210   23.2850  -22.4510 C.2   111  GLU111      0.2260
     76  O         -5.7140   23.9460  -22.9800 O.2   111  GLU111     -0.2867
     77  CB        -4.7830   20.8220  -23.0000 C.3   111  GLU111      0.0388
     78  CG        -5.8440   20.7400  -24.0820 C.3   111  GLU111      0.1160
     79  CD        -5.7520   19.4580  -24.8970 C.2   111  GLU111      0.3649
     80  OE1       -6.4920   19.3100  -25.8950 O.co2 111  GLU111     -0.2457
     81  OE2       -4.9380   18.5840  -24.5330 O.co2 111  GLU111     -0.2457
     82  N          5.9810   24.0470  -33.7050 N.3   150  ASN150     -0.1240
     83  CA         5.2870   23.6610  -34.9150 C.3   150  ASN150      0.1653
     84  C          4.6250   24.8400  -35.5920 C.2   150  ASN150      0.2266
     85  O          3.8730   25.5740  -34.9590 O.2   150  ASN150     -0.2867
     86  CB         4.2410   22.6040  -34.5940 C.3   150  ASN150      0.1155
     87  CG         3.5640   22.0650  -35.8310 C.2   150  ASN150      0.2627
     88  OD1        4.0860   22.1730  -36.9460 O.2   150  ASN150     -0.2716
     89  ND2        2.4020   21.4590  -35.6410 N.am  150  ASN150     -0.0877
     90  N          0.5640   24.0260  -37.8210 N.3   153  GLU153     -0.1231
     91  CA        -0.7460   24.1180  -37.1760 C.3   153  GLU153      0.1684
     92  C         -0.9480   25.5090  -36.5720 C.2   153  GLU153      0.2434
     93  O         -0.2300   25.9390  -35.6670 O.2   153  GLU153     -0.2733
     94  CB        -0.8750   23.0250  -36.1180 C.3   153  GLU153      0.0402
     95  CG        -1.0840   21.6510  -36.7350 C.3   153  GLU153      0.1161
     96  CD        -2.5360   21.3940  -37.1830 C.2   153  GLU153      0.3649
     97  OE1       -3.2030   22.3050  -37.7370 O.co2 153  GLU153     -0.2457
     98  OE2       -3.0120   20.2540  -36.9840 O.co2 153  GLU153     -0.2457
     99  N         -1.9370   26.2430  -37.0810 N.am  154  PRO154     -0.2718
    100  CA        -2.1890   27.5900  -36.5640 C.3   154  PRO154      0.1535
    101  C         -2.4370   27.6270  -35.0640 C.2   154  PRO154      0.2599
    102  O         -2.3890   28.6860  -34.4510 O.2   154  PRO154     -0.2715
    103  CB        -3.3880   28.0470  -37.3820 C.3   154  PRO154      0.0310
    104  CG        -4.1000   26.7440  -37.6740 C.3   154  PRO154      0.0237
    105  CD        -2.9740   25.8350  -38.0390 C.3   154  PRO154      0.0939
    106  N         -2.6770   26.4640  -34.4770 N.am  155  TYR155     -0.1960
    107  CA        -2.9300   26.3730  -33.0490 C.3   155  TYR155      0.1771
    108  C         -1.7620   26.8850  -32.2200 C.2   155  TYR155      0.2619
    109  O         -1.9590   27.5180  -31.1860 O.2   155  TYR155     -0.2715
    110  CB        -3.1960   24.9240  -32.6740 C.3   155  TYR155      0.0574
    111  CG        -3.4110   24.6840  -31.2020 C.ar  155  TYR155     -0.0198
    112  CD1       -4.6150   25.0180  -30.5910 C.ar  155  TYR155     -0.0009
    113  CD2       -2.4250   24.0890  -30.4270 C.ar  155  TYR155     -0.0009
    114  CE1       -4.8360   24.7550  -29.2360 C.ar  155  TYR155      0.0417
    115  CE2       -2.6300   23.8240  -29.0720 C.ar  155  TYR155      0.0417
    116  CZ        -3.8380   24.1600  -28.4820 C.ar  155  TYR155      0.1957
    117  OH        -4.0420   23.9220  -27.1390 O.3   155  TYR155     -0.2866
    118  N         -0.5490   26.6000  -32.6740 N.am  156  PHE156     -0.1974
    119  CA         0.6520   26.9990  -31.9590 C.3   156  PHE156      0.1639
    120  C          1.0390   28.4650  -32.1250 C.2   156  PHE156      0.2290
    121  O          1.6320   29.0580  -31.2230 O.2   156  PHE156     -0.2864
    122  CB         1.8210   26.1230  -32.4030 C.3   156  PHE156      0.0560
    123  CG         1.6930   24.6910  -31.9920 C.ar  156  PHE156     -0.0200
    124  CD1        2.1410   24.2750  -30.7550 C.ar  156  PHE156     -0.0042
    125  CD2        1.1090   23.7520  -32.8430 C.ar  156  PHE156     -0.0042
    126  CE1        2.0150   22.9400  -30.3650 C.ar  156  PHE156     -0.0003
    127  CE2        0.9730   22.4110  -32.4620 C.ar  156  PHE156     -0.0003
    128  CZ         1.4280   22.0070  -31.2250 C.ar  156  PHE156     -0.0000
    129  N          5.9040   19.5870  -36.0590 N.3   210  TYR210     -0.1241
    130  CA         5.8600   19.1050  -34.6840 C.3   210  TYR210      0.1605
    131  C          7.0490   18.2200  -34.3360 C.2   210  TYR210      0.2264
    132  O          7.7330   18.4790  -33.3530 O.2   210  TYR210     -0.2867
    133  CB         4.5520   18.3460  -34.4220 C.3   210  TYR210      0.0534
    134  CG         4.3270   17.9930  -32.9580 C.ar  210  TYR210     -0.0201
    135  CD1        5.0760   16.9970  -32.3240 C.ar  210  TYR210     -0.0009
    136  CD2        3.3910   18.6880  -32.1920 C.ar  210  TYR210     -0.0009
    137  CE1        4.8980   16.7010  -30.9550 C.ar  210  TYR210      0.0417
    138  CE2        3.2050   18.4030  -30.8250 C.ar  210  TYR210      0.0417
    139  CZ         3.9590   17.4080  -30.2150 C.ar  210  TYR210      0.1957
    140  OH         3.7500   17.0950  -28.8810 O.3   210  TYR210     -0.2866
    141  N          0.8990   17.1580  -22.8070 N.3   230  TRP230     -0.1241
    142  CA         1.2260   15.8630  -23.4100 C.3   230  TRP230      0.1605
    143  C          2.6830   15.7250  -23.8460 C.2   230  TRP230      0.2264
    144  O          3.1870   14.6160  -24.0240 O.2   230  TRP230     -0.2867
    145  CB         0.3170   15.6250  -24.6150 C.3   230  TRP230      0.0550
    146  CG         0.4570   16.6760  -25.6610 C.ar  230  TRP230      0.0003
    147  CD1        1.4420   16.7710  -26.5910 C.ar  230  TRP230      0.0946
    148  CD2       -0.3830   17.8240  -25.8460 C.ar  230  TRP230      0.0152
    149  NE1        1.2800   17.9070  -27.3450 N.ar  230  TRP230     -0.2442
    150  CE2        0.1660   18.5750  -26.9100 C.ar  230  TRP230      0.0810
    151  CE3       -1.5480   18.2970  -25.2130 C.ar  230  TRP230      0.0012
    152  CZ2       -0.4090   19.7770  -27.3620 C.ar  230  TRP230      0.0191
    153  CZ3       -2.1170   19.4910  -25.6600 C.ar  230  TRP230      0.0001
    154  CH2       -1.5450   20.2160  -26.7250 C.ar  230  TRP230      0.0015
    155  N         -8.3070   24.4970  -24.7280 N.3   260  GLY260     -0.1225
    156  CA        -9.1550   23.4140  -25.1870 C.3   260  GLY260      0.1811
    157  C         -9.4700   22.3900  -24.1030 C.2   260  GLY260      0.2280
    158  O         -8.6750   22.1710  -23.1860 O.2   260  GLY260     -0.2866
    159  N        -11.9480   27.8670  -26.4870 N.3   330  MET330     -0.1245
    160  CA       -12.2330   27.7500  -27.9070 C.3   330  MET330      0.1570
    161  C        -13.7210   27.6330  -28.1790 C.2   330  MET330      0.2261
    162  O        -14.4500   26.9510  -27.4510 O.2   330  MET330     -0.2867
    163  CB       -11.5210   26.5440  -28.5210 C.3   330  MET330      0.0387
    164  CG       -10.0510   26.7380  -28.8280 C.3   330  MET330      0.0595
    165  SD        -9.4140   25.2890  -29.7260 S.3   330  MET330     -0.1393
    166  CE        -9.4910   24.0370  -28.5310 C.3   330  MET330      0.0692
    167  N        -10.3060   27.3910  -38.6620 N.3   340  TRP340     -0.1241
    168  CA        -9.0090   26.7440  -38.5390 C.3   340  TRP340      0.1605
    169  C         -8.3080   26.5130  -39.8660 C.2   340  TRP340      0.2264
    170  O         -7.0980   26.7420  -39.9960 O.2   340  TRP340     -0.2867
    171  CB        -9.1510   25.4200  -37.7940 C.3   340  TRP340      0.0550
    172  CG        -9.2100   25.5600  -36.2970 C.ar  340  TRP340      0.0003
    173  CD1      -10.1210   24.9870  -35.4680 C.ar  340  TRP340      0.0946
    174  CD2       -8.3130   26.3020  -35.4530 C.ar  340  TRP340      0.0152
    175  NE1       -9.8570   25.3200  -34.1620 N.ar  340  TRP340     -0.2442
    176  CE2       -8.7520   26.1260  -34.1210 C.ar  340  TRP340      0.0810
    177  CE3       -7.1810   27.0960  -35.6910 C.ar  340  TRP340      0.0012
    178  CZ2       -8.1050   26.7150  -33.0280 C.ar  340  TRP340      0.0191
    179  CZ3       -6.5370   27.6820  -34.6020 C.ar  340  TRP340      0.0001
    180  CH2       -7.0040   27.4860  -33.2880 C.ar  340  TRP340      0.0015
    181  N         -4.9140   28.2590  -40.8890 N.3   344  ARG344     -0.1245
    182  CA        -3.8290   27.3320  -41.1930 C.3   344  ARG344      0.1563
    183  C         -3.2150   27.6980  -42.5390 C.2   344  ARG344      0.2260
    184  O         -1.9950   27.7030  -42.6890 O.2   344  ARG344     -0.2867
    185  CB        -4.3430   25.8920  -41.2510 C.3   344  ARG344      0.0307
    186  CG        -3.2480   24.8410  -41.4440 C.3   344  ARG344      0.0489
    187  CD        -3.8580   23.4630  -41.6840 C.3   344  ARG344      0.2205
    188  NE        -4.9710   23.2140  -40.7630 N.pl3 344  ARG344     -0.0865
    189  CZ        -5.9230   22.3010  -40.9520 C.cat 344  ARG344      0.5346
    190  NH1       -5.8980   21.5360  -42.0370 N.pl3 344  ARG344      0.1354
    191  NH2       -6.9170   22.1700  -40.0730 N.pl3 344  ARG344      0.1354
@<TRIPOS>BOND
     1   184   183    2
     2   183   182    1
     3   190   189    1
     4   187   186    1
     5   187   188    1
     6   186   185    1
     7   185   182    1
     8   182   181    1
     9   189   188    2
    10   189   191    1
    11   170   169    2
    12   169   168    1
    13    34    32   ar
    14   167   168    1
    15   168   171    1
    16    71    70    1
    17   105   104    1
    18   105    99    1
    19    28    29    2
    20    28    27    1
    21    32    31    1
    22    32    33   ar
    23    90    91    1
    24    31    30    1
    25    72    70    1
    26   171   172    1
    27    97    96   ar
    28   104   103    1
    29   103   100    1
    30    70    69    2
    31    96    98   ar
    32    96    95    1
    33    91    92    1
    34    91    94    1
    35    99    92   am
    36    99   100    1
    37    88    87    2
    38    26    27    1
    39    27    30    1
    40    95    94    1
    41    92    93    2
    42   100   101    1
    43   172   173   ar
    44   172   174   ar
    45    69    68    1
    46   129   130    1
    47    87    89   am
    48    87    86    1
    49   177   174   ar
    50   177   179   ar
    51    84    85    2
    52    84    83    1
    53    68    67    1
    54   173   175   ar
    55   174   176   ar
    56   101   106   am
    57   101   102    2
    58    83    86    1
    59    83    82    1
    60   130   133    1
    61   130   131    1
    62   179   180   ar
    63   106   107    1
    64   133   134    1
    65   131   132    2
    66   175   176   ar
    67   176   178   ar
    68    67    66    1
    69    48    46   ar
    70    48    47   ar
    71    65    64    2
    72    46    44   ar
    73    66    63    1
    74    47    45   ar
    75   180   178   ar
    76     7     6    2
    77   107   110    1
    78   107   108    1
    79    63    64    1
    80    63    62    1
    81   134   135   ar
    82   134   136   ar
    83    44    43   ar
    84    44    42   ar
    85   125   127   ar
    86   125   123   ar
    87   118   108   am
    88   118   119    1
    89   110   111    1
    90    61    59   ar
    91    43    41   ar
    92    57    56    2
    93    45    42   ar
    94   127   128   ar
    95   122   123    1
    96   122   119    1
    97   135   137   ar
    98    42    40   ar
    99   108   109    2
   100   136   138   ar
   101   120   119    1
   102   120   121    2
   103   123   124   ar
   104     6     8   am
   105     6     5    1
   106    62    56   am
   107    41    40   ar
   108    56    55    1
   109    40    39    1
   110    59    60   ar
   111    59    58    1
   112     2     3    1
   113     2     5    1
   114     2     1    1
   115   128   126   ar
   116   111   112   ar
   117   111   113   ar
   118     3     4    2
   119   137   139   ar
   120   138   139   ar
   121    58    55    1
   122   124   126   ar
   123    39    36    1
   124   112   114   ar
   125    55    54    1
   126   113   115   ar
   127     9    10    1
   128    16    14   ar
   129   139   140    1
   130    14    13    1
   131    14    15   ar
   132   165   164    1
   133   165   166    1
   134    13    10    1
   135    52    51    2
   136    10    11    1
   137    36    35    1
   138    36    37    1
   139   114   116   ar
   140   115   116   ar
   141   164   163    1
   142    49    37   am
   143    49    50    1
   144    53    50    1
   145   163   160    1
   146   116   117    1
   147    37    38    2
   148    51    50    1
   149   161   160    1
   150   161   162    2
   151    11    17   am
   152    11    12    2
   153   160   159    1
   154    25    24    1
   155    17    18    1
   156   152   150   ar
   157   152   154   ar
   158   149   150   ar
   159   149   147   ar
   160    22    21    1
   161    22    23    1
   162   150   148   ar
   163   154   153   ar
   164   147   146   ar
   165    21    18    1
   166    20    19    2
   167    18    19    1
   168    24    23    1
   169    80    79   ar
   170   148   146   ar
   171   148   151   ar
   172   146   145    1
   173   153   151   ar
   174   156   155    1
   175   156   157    1
   176    79    81   ar
   177    79    78    1
   178   145   142    1
   179   157   158    2
   180    78    77    1
   181   144   143    2
   182   143   142    1
   183   142   141    1
   184    77    74    1
   185    76    75    2
   186    75    74    1
   187    74    73    1
