@<TRIPOS>MOLECULE
tmp/4nugB01.pdb
 62 59 0 0 0
SMALL
GASTEIGER

@<TRIPOS>ATOM
      1  N          3.2920  -14.0900    4.5140 N.3     7  SER7       -0.1202
      2  CA         4.2040  -13.3290    3.6740 C.3     7  SER7        0.2020
      3  C          4.4600  -11.9740    4.3070 C.2     7  SER7        0.2619
      4  O          3.7970  -11.5950    5.2810 O.2     7  SER7       -0.2717
      5  CB         3.6240  -13.1790    2.2560 C.3     7  SER7        0.2103
      6  OG         2.3460  -12.5630    2.2900 O.3     7  SER7       -0.2182
      7  N          5.4560  -11.2630    3.7920 N.am    8  GLY8       -0.1942
      8  CA         5.6880   -9.8920    4.2040 C.3     8  GLY8        0.2014
      9  C          6.9800   -9.6850    4.9840 C.2     8  GLY8        0.2639
     10  O          7.3660   -8.5550    5.2630 O.2     8  GLY8       -0.2714
     11  N          7.6450  -10.7740    5.3420 N.am    9  GLY9       -0.1939
     12  CA         8.8990  -10.6760    6.0740 C.3     9  GLY9        0.2014
     13  C         10.0300  -10.0570    5.2770 C.2     9  GLY9        0.2639
     14  O          9.9240   -9.8720    4.0680 O.2     9  GLY9       -0.2714
     15  N         11.1340   -9.7460    5.9530 N.am   10  GLY10      -0.1939
     16  CA        12.2530   -9.0790    5.3040 C.3    10  GLY10       0.2014
     17  C         13.2310   -8.5340    6.3260 C.2    10  GLY10       0.2639
     18  O         13.1030   -8.8220    7.5160 O.2    10  GLY10      -0.2714
     19  N         14.2010   -7.7490    5.8640 N.am   11  VAL11      -0.1963
     20  CA        15.2040   -7.1500    6.7320 C.3    11  VAL11       0.1727
     21  C         14.7840   -5.7190    7.0250 C.2    11  VAL11       0.2616
     22  O         14.4990   -4.9580    6.1010 O.2    11  VAL11      -0.2715
     23  CB        16.5970   -7.1620    6.0540 C.3    11  VAL11       0.0290
     24  CG1       17.6330   -6.4430    6.9200 C.3    11  VAL11       0.0023
     25  CG2       17.0230   -8.5930    5.7610 C.3    11  VAL11       0.0023
     26  N         14.7260   -5.3670    8.3080 N.am   12  VAL12      -0.1977
     27  CA        14.1780   -4.0860    8.7560 C.3    12  VAL12       0.1596
     28  C         15.0780   -3.4050    9.7780 C.2    12  VAL12       0.2287
     29  O         15.6370   -4.0500   10.6510 O.2    12  VAL12      -0.2864
     30  CB        12.7800   -4.2670    9.4130 C.3    12  VAL12       0.0276
     31  CG1       12.1230   -2.9110    9.6640 C.3    12  VAL12       0.0022
     32  CG2       11.8790   -5.1290    8.5470 C.3    12  VAL12       0.0022
     33  N          6.8550   -3.0670    9.6760 N.3    18  VAL18      -0.1245
     34  CA         6.5750   -4.0150    8.5990 C.3    18  VAL18       0.1561
     35  C          5.1920   -4.6520    8.7920 C.2    18  VAL18       0.2260
     36  O          4.7290   -4.8080    9.9160 O.2    18  VAL18      -0.2867
     37  CB         7.6900   -5.0980    8.4730 C.3    18  VAL18       0.0252
     38  CG1        7.5550   -6.1690    9.5540 C.3    18  VAL18       0.0019
     39  CG2        7.6590   -5.7320    7.0930 C.3    18  VAL18       0.0019
     40  N         10.1700  -14.6730    7.7250 N.3   130  THR130     -0.1218
     41  CA        11.2540  -14.2140    8.5960 C.3   130  THR130      0.1862
     42  C         11.3240  -12.6930    8.6270 C.2   130  THR130      0.2287
     43  O         11.3080  -12.0410    7.5920 O.2   130  THR130     -0.2866
     44  CB        12.6140  -14.7860    8.1510 C.3   130  THR130      0.1770
     45  OG1       12.5850  -16.2180    8.2530 O.3   130  THR130     -0.2211
     46  CG2       13.7450  -14.2490    9.0300 C.3   130  THR130      0.0375
     47  N         22.7640   -9.5880    4.8470 N.3   169  PRO169     -0.2102
     48  CA        22.0870  -10.4650    5.7990 C.3   169  PRO169      0.1504
     49  C         22.3050  -11.9180    5.3970 C.2   169  PRO169      0.2575
     50  O         23.0270  -12.1970    4.4390 O.2   169  PRO169     -0.2718
     51  CB        20.6220  -10.0830    5.6100 C.3   169  PRO169      0.0282
     52  CG        20.5290   -9.7640    4.1590 C.3   169  PRO169      0.0208
     53  CD        21.8470   -9.1030    3.8050 C.3   169  PRO169      0.0893
     54  N         21.6940  -12.8360    6.1300 N.am  170  GLU170     -0.1980
     55  CA        21.6340  -14.2230    5.6950 C.3   170  GLU170      0.1602
     56  C         20.8160  -14.2780    4.4020 C.2   170  GLU170      0.2287
     57  O         20.0180  -13.3800    4.1370 O.2   170  GLU170     -0.2864
     58  CB        20.9600  -15.0640    6.7800 C.3   170  GLU170      0.0415
     59  CG        21.7520  -15.0830    8.0720 C.3   170  GLU170      0.1163
     60  CD        21.3720  -16.2240    8.9750 C.2   170  GLU170      0.3649
     61  OE1       20.3470  -16.0970    9.6830 O.co2 170  GLU170     -0.2457
     62  OE2       22.0990  -17.2430    8.9750 O.co2 170  GLU170     -0.2457
@<TRIPOS>BOND
     1     5     6    1
     2     5     2    1
     3     2     3    1
     4     2     1    1
     5     7     8    1
     6     7     3   am
     7    53    52    1
     8    53    47    1
     9    14    13    2
    10    57    56    2
    11    52    51    1
    12     8     9    1
    13     3     4    2
    14    56    55    1
    15    50    49    2
    16    47    48    1
    17     9    10    2
    18     9    11   am
    19    13    15   am
    20    13    12    1
    21    16    15    1
    22    16    17    1
    23    11    12    1
    24    49    48    1
    25    49    54   am
    26    51    48    1
    27    55    54    1
    28    55    58    1
    29    25    23    1
    30    19    17   am
    31    19    20    1
    32    23    20    1
    33    23    24    1
    34    22    21    2
    35    17    18    2
    36    20    21    1
    37    58    59    1
    38    21    26   am
    39    39    37    1
    40    43    42    2
    41    40    41    1
    42    59    60    1
    43    44    45    1
    44    44    41    1
    45    44    46    1
    46    26    27    1
    47    37    34    1
    48    37    38    1
    49    32    30    1
    50    41    42    1
    51    34    35    1
    52    34    33    1
    53    27    30    1
    54    27    28    1
    55    35    36    2
    56    62    60   ar
    57    60    61   ar
    58    30    31    1
    59    28    29    2
