@<TRIPOS>MOLECULE
tmp/4nusA00.pdb
 150 143 0 0 0
SMALL
GASTEIGER

@<TRIPOS>ATOM
      1  N        -18.4970    8.8140  -32.3540 N.3    22  LEU22      -0.1231
      2  CA       -18.9230    8.5100  -30.9880 C.3    22  LEU22       0.1693
      3  C        -18.5170    9.5940  -29.9950 C.2    22  LEU22       0.2593
      4  O        -19.1870    9.7720  -28.9740 O.2    22  LEU22      -0.2718
      5  CB       -18.3700    7.1450  -30.5310 C.3    22  LEU22       0.0284
      6  CG       -18.9580    5.8840  -31.1760 C.3    22  LEU22       0.0019
      7  CD1      -18.2460    4.6460  -30.6720 C.3    22  LEU22       0.0001
      8  CD2      -20.4560    5.7460  -30.8980 C.3    22  LEU22       0.0001
      9  N        -17.4130   10.2780  -30.2910 N.am   23  GLY23      -0.1942
     10  CA       -16.8500   11.3290  -29.4530 C.3    23  GLY23       0.2014
     11  C        -15.6130   11.9770  -30.0380 C.2    23  GLY23       0.2639
     12  O        -15.1010   11.5350  -31.0700 O.2    23  GLY23      -0.2714
     13  N        -15.1340   13.0390  -29.3720 N.am   24  GLN24      -0.1963
     14  CA       -13.9780   13.8500  -29.7600 C.3    24  GLN24       0.1733
     15  C        -13.3950   14.5050  -28.5080 C.2    24  GLN24       0.2616
     16  O        -14.1080   14.6660  -27.5120 O.2    24  GLN24      -0.2715
     17  CB       -14.4340   14.9460  -30.7480 C.3    24  GLN24       0.0408
     18  CG       -13.3130   15.6200  -31.5390 C.3    24  GLN24       0.0908
     19  CD       -13.8360   16.7670  -32.3680 C.2    24  GLN24       0.2608
     20  OE1      -14.3790   16.5790  -33.4650 O.2    24  GLN24      -0.2717
     21  NE2      -13.6860   17.9850  -31.8560 N.am   24  GLN24      -0.0878
     22  N        -12.1280   14.9130  -28.5890 N.am   25  GLY25      -0.1955
     23  CA       -11.4260   15.5910  -27.5050 C.3    25  GLY25       0.1869
     24  C         -9.9880   15.9440  -27.8240 C.2    25  GLY25       0.2309
     25  O         -9.5840   15.9200  -28.9910 O.2    25  GLY25      -0.2863
     26  N         -7.3580   14.2160  -27.0240 N.3    27  PHE27      -0.1241
     27  CA        -6.7710   12.9480  -27.4610 C.3    27  PHE27       0.1605
     28  C         -6.9370   12.7200  -28.9800 C.2    27  PHE27       0.2264
     29  O         -6.0890   12.0900  -29.6030 O.2    27  PHE27      -0.2867
     30  CB        -7.4110   11.7750  -26.6790 C.3    27  PHE27       0.0534
     31  CG        -8.9120   11.6290  -26.8340 C.ar   27  PHE27      -0.0203
     32  CD1       -9.7850   12.2920  -25.9810 C.ar   27  PHE27      -0.0042
     33  CD2       -9.4510   10.8290  -27.8380 C.ar   27  PHE27      -0.0042
     34  CE1      -11.1690   12.1660  -26.1350 C.ar   27  PHE27      -0.0003
     35  CE2      -10.8320   10.7140  -27.9970 C.ar   27  PHE27      -0.0003
     36  CZ       -11.6820   11.3680  -27.1350 C.ar   27  PHE27      -0.0000
     37  N        -13.0430    9.6150  -31.8620 N.3    30  VAL30      -0.1245
     38  CA       -13.4970    8.2210  -31.7470 C.3    30  VAL30       0.1561
     39  C        -14.6870    7.9970  -32.6900 C.2    30  VAL30       0.2260
     40  O        -15.6580    8.7660  -32.6630 O.2    30  VAL30      -0.2867
     41  CB       -13.8740    7.8190  -30.2910 C.3    30  VAL30       0.0252
     42  CG1      -14.3100    6.3550  -30.2140 C.3    30  VAL30       0.0019
     43  CG2      -12.7390    8.1040  -29.3160 C.3    30  VAL30       0.0019
     44  N        -14.6810    0.3710  -31.8230 N.3    46  ALA46      -0.1245
     45  CA       -14.4640    1.7870  -31.5640 C.3    46  ALA46       0.1562
     46  C        -13.0620    2.0630  -32.1300 C.2    46  ALA46       0.2260
     47  O        -12.1260    1.2890  -31.8680 O.2    46  ALA46      -0.2867
     48  CB       -14.5170    2.0810  -30.0740 C.3    46  ALA46       0.0290
     49  N        -10.1780    4.9410  -32.3730 N.3    48  LYS48      -0.1245
     50  CA        -9.6170    6.1880  -31.8380 C.3    48  LYS48       0.1561
     51  C         -8.4890    6.6480  -32.7810 C.2    48  LYS48       0.2260
     52  O         -7.5230    5.9140  -32.9860 O.2    48  LYS48      -0.2867
     53  CB        -9.1540    5.9940  -30.3710 C.3    48  LYS48       0.0271
     54  CG        -8.3480    7.1580  -29.7730 C.3    48  LYS48       0.0035
     55  CD        -8.2070    7.0570  -28.2660 C.3    48  LYS48       0.0206
     56  CE        -7.2900    5.9550  -27.7990 C.3    48  LYS48       0.1093
     57  NZ        -7.4310    5.7550  -26.3460 N.3    48  LYS48      -0.1314
     58  N        -10.8490   -3.0140  -21.3250 N.3    79  VAL79      -0.1245
     59  CA       -10.9840   -2.8810  -22.7860 C.3    79  VAL79       0.1561
     60  C         -9.8660   -3.6180  -23.5180 C.2    79  VAL79       0.2260
     61  O         -8.6910   -3.5590  -23.1130 O.2    79  VAL79      -0.2867
     62  CB       -11.1200   -1.4130  -23.2570 C.3    79  VAL79       0.0252
     63  CG1       -9.7890   -0.6570  -23.1700 C.3    79  VAL79       0.0019
     64  CG2      -11.7070   -1.3320  -24.6560 C.3    79  VAL79       0.0019
     65  N        -10.3970   -0.6420  -30.7740 N.3    95  LEU95      -0.1231
     66  CA       -10.7780   -1.2320  -29.4880 C.3    95  LEU95       0.1693
     67  C        -12.1750   -1.8120  -29.5040 C.2    95  LEU95       0.2592
     68  O        -12.8980   -1.6370  -30.4720 O.2    95  LEU95      -0.2718
     69  CB       -10.6520   -0.1770  -28.3640 C.3    95  LEU95       0.0284
     70  CG        -9.2780    0.4810  -28.2210 C.3    95  LEU95       0.0019
     71  CD1       -9.3140    1.9330  -28.6890 C.3    95  LEU95       0.0001
     72  CD2       -8.7370    0.3360  -26.8030 C.3    95  LEU95       0.0001
     73  N        -12.5730   -2.4640  -28.3940 N.am   96  ASP96      -0.1960
     74  CA       -13.9230   -3.0020  -28.1950 C.3    96  ASP96       0.1840
     75  C        -14.9420   -1.8820  -28.3440 C.2    96  ASP96       0.2622
     76  O        -14.7130   -0.7490  -27.8760 O.2    96  ASP96      -0.2715
     77  CB       -14.0770   -3.5100  -26.7460 C.3    96  ASP96       0.1450
     78  CG       -13.4710   -4.8470  -26.4060 C.2    96  ASP96       0.3671
     79  OD1      -13.2520   -5.6640  -27.3460 O.co2  96  ASP96      -0.2456
     80  OD2      -13.2700   -5.1120  -25.1900 O.co2  96  ASP96      -0.2456
     81  N        -16.0830   -2.2150  -28.9350 N.am   97  PHE97      -0.1960
     82  CA       -17.2130   -1.3040  -29.0030 C.3    97  PHE97       0.1771
     83  C        -18.1360   -1.6880  -27.8370 C.2    97  PHE97       0.2619
     84  O        -18.5720   -2.8440  -27.7380 O.2    97  PHE97      -0.2715
     85  CB       -17.9430   -1.3750  -30.3460 C.3    97  PHE97       0.0574
     86  CG       -19.2480   -0.6140  -30.3310 C.ar   97  PHE97      -0.0200
     87  CD1      -19.2820    0.7390  -30.0020 C.ar   97  PHE97      -0.0042
     88  CD2      -20.4480   -1.2560  -30.6140 C.ar   97  PHE97      -0.0042
     89  CE1      -20.4960    1.4320  -29.9490 C.ar   97  PHE97      -0.0003
     90  CE2      -21.6590   -0.5540  -30.5930 C.ar   97  PHE97      -0.0003
     91  CZ       -21.6740    0.7840  -30.2570 C.ar   97  PHE97      -0.0000
     92  N        -18.3890   -0.7200  -26.9340 N.am   98  LEU98      -0.1977
     93  CA       -19.2090   -0.9090  -25.7430 C.3    98  LEU98       0.1596
     94  C        -20.4890   -0.1190  -25.8470 C.2    98  LEU98       0.2287
     95  O        -20.4640    1.1070  -25.8320 O.2    98  LEU98      -0.2864
     96  CB       -18.3830   -0.5830  -24.4930 C.3    98  LEU98       0.0297
     97  CG       -17.1430   -1.4720  -24.3700 C.3    98  LEU98       0.0022
     98  CD1      -15.9530   -0.7280  -23.8500 C.3    98  LEU98       0.0001
     99  CD2      -17.4500   -2.7100  -23.6120 C.3    98  LEU98       0.0001
    100  N        -16.3000    8.3810  -16.0030 N.3   145  GLU145     -0.1231
    101  CA       -16.3370    8.5220  -17.4850 C.3   145  GLU145      0.1699
    102  C        -15.4360    7.4730  -18.1310 C.2   145  GLU145      0.2592
    103  O        -15.6840    7.0660  -19.2650 O.2   145  GLU145     -0.2718
    104  CB       -15.8440    9.9100  -17.9520 C.3   145  GLU145      0.0402
    105  CG       -16.7180   11.0780  -17.5480 C.3   145  GLU145      0.1161
    106  CD       -16.3120   11.8240  -16.2860 C.2   145  GLU145      0.3649
    107  OE1      -16.0960   11.1720  -15.2360 O.co2 145  GLU145     -0.2457
    108  OE2      -16.2960   13.0750  -16.3280 O.co2 145  GLU145     -0.2457
    109  N        -14.3860    7.0590  -17.4080 N.am  146  ASN146     -0.1974
    110  CA       -13.3900    6.0840  -17.8370 C.3   146  ASN146      0.1688
    111  C        -13.8260    4.6230  -17.6190 C.2   146  ASN146      0.2292
    112  O        -13.0720    3.7150  -17.9660 O.2   146  ASN146     -0.2864
    113  CB       -12.0260    6.3870  -17.1950 C.3   146  ASN146      0.1181
    114  CG       -11.2820    7.5010  -17.8930 C.2   146  ASN146      0.2629
    115  OD1      -11.6140    7.9030  -19.0050 O.2   146  ASN146     -0.2716
    116  ND2      -10.2470    8.0220  -17.2740 N.am  146  ASN146     -0.0877
    117  N        -16.7660    2.1830  -18.8950 N.3   148  LEU148     -0.1245
    118  CA       -17.9060    1.9560  -19.7730 C.3   148  LEU148      0.1561
    119  C        -18.6250    0.6680  -19.3490 C.2   148  LEU148      0.2260
    120  O        -18.1210   -0.0740  -18.4950 O.2   148  LEU148     -0.2867
    121  CB       -17.4710    1.8830  -21.2440 C.3   148  LEU148      0.0270
    122  CG       -16.6110    3.0170  -21.8140 C.3   148  LEU148      0.0019
    123  CD1      -16.4310    2.8640  -23.2980 C.3   148  LEU148      0.0001
    124  CD2      -17.1780    4.3800  -21.5300 C.3   148  LEU148      0.0001
    125  N        -11.5370    1.6120  -19.3540 N.3   158  THR158     -0.1203
    126  CA       -10.8970    2.1360  -20.5710 C.3   158  THR158      0.1994
    127  C         -9.3990    2.2690  -20.3620 C.2   158  THR158      0.2618
    128  O         -8.9230    2.1770  -19.2310 O.2   158  THR158     -0.2717
    129  CB       -11.5370    3.4460  -21.0870 C.3   158  THR158      0.1784
    130  OG1      -11.2360    4.5070  -20.1960 O.3   158  THR158     -0.2211
    131  CG2      -13.0080    3.3470  -21.2980 C.3   158  THR158      0.0376
    132  N         -8.6610    2.4740  -21.4610 N.am  159  ASP159     -0.1959
    133  CA        -7.2140    2.6330  -21.4830 C.3   159  ASP159      0.1840
    134  C         -6.7260    4.0390  -21.1120 C.2   159  ASP159      0.2622
    135  O         -5.5500    4.1860  -20.7650 O.2   159  ASP159     -0.2715
    136  CB        -6.6560    2.2460  -22.8650 C.3   159  ASP159      0.1450
    137  CG        -7.2530    3.0400  -24.0040 C.2   159  ASP159      0.3671
    138  OD1       -8.4860    3.0100  -24.1570 O.co2 159  ASP159     -0.2456
    139  OD2       -6.4780    3.6520  -24.7730 O.co2 159  ASP159     -0.2456
    140  N         -7.6170    5.0590  -21.1880 N.am  160  PHE160     -0.1974
    141  CA        -7.3250    6.4830  -20.9640 C.3   160  PHE160      0.1639
    142  C         -6.4880    6.8140  -19.7170 C.2   160  PHE160      0.2290
    143  O         -5.7630    7.8030  -19.7390 O.2   160  PHE160     -0.2864
    144  CB        -8.6090    7.3080  -20.9570 C.3   160  PHE160      0.0560
    145  CG        -9.3230    7.3810  -22.2810 C.ar  160  PHE160     -0.0200
    146  CD1       -8.8270    8.1620  -23.3140 C.ar  160  PHE160     -0.0042
    147  CD2      -10.5270    6.7250  -22.4750 C.ar  160  PHE160     -0.0042
    148  CE1       -9.5050    8.2530  -24.5250 C.ar  160  PHE160     -0.0003
    149  CE2      -11.1940    6.8040  -23.6930 C.ar  160  PHE160     -0.0003
    150  CZ       -10.6820    7.5730  -24.7070 C.ar  160  PHE160     -0.0000
@<TRIPOS>BOND
     1    20    19    2
     2    52    51    2
     3    51    50    1
     4    39    40    2
     5    39    38    1
     6    49    50    1
     7    19    21   am
     8    19    18    1
     9     1     2    1
    10    46    47    2
    11    46    45    1
    12    37    38    1
    13    50    53    1
    14    44    45    1
    15    38    41    1
    16    45    48    1
    17    18    17    1
    18     6     8    1
    19     6     7    1
    20     6     5    1
    21    12    11    2
    22     2     5    1
    23     2     3    1
    24    65    66    1
    25    17    14    1
    26    88    90   ar
    27    88    86   ar
    28    90    91   ar
    29    68    67    2
    30    53    54    1
    31    85    86    1
    32    85    82    1
    33    86    87   ar
    34     9     3   am
    35     9    10    1
    36    41    42    1
    37    41    43    1
    38    91    89   ar
    39    11    10    1
    40    11    13   am
    41    87    89   ar
    42     3     4    2
    43    54    55    1
    44    14    13    1
    45    14    15    1
    46    29    28    2
    47    67    66    1
    48    67    73   am
    49    66    69    1
    50    82    81    1
    51    82    83    1
    52    25    24    2
    53    28    27    1
    54    81    75   am
    55    71    70    1
    56    22    15   am
    57    22    23    1
    58    15    16    2
    59    73    74    1
    60    69    70    1
    61    75    74    1
    62    75    76    2
    63    55    56    1
    64    70    72    1
    65    74    77    1
    66    35    33   ar
    67    35    36   ar
    68    33    31   ar
    69    83    84    2
    70    83    92   am
    71    24    23    1
    72    56    57    1
    73    27    26    1
    74    27    30    1
    75    79    78   ar
    76    36    34   ar
    77    92    93    1
    78    31    30    1
    79    31    32   ar
    80    77    78    1
    81    78    80   ar
    82    34    32   ar
    83    94    95    2
    84    94    93    1
    85    93    96    1
    86   139   137   ar
    87   150   148   ar
    88   150   149   ar
    89    64    62    1
    90   148   146   ar
    91    96    97    1
    92    97    98    1
    93    97    99    1
    94   138   137   ar
    95   137   136    1
    96   149   147   ar
    97    60    61    2
    98    60    59    1
    99   146   145   ar
   100   123   122    1
   101    62    63    1
   102    62    59    1
   103   136   133    1
   104    59    58    1
   105   147   145   ar
   106   145   144    1
   107   122   124    1
   108   122   121    1
   109   133   132    1
   110   133   134    1
   111   132   127   am
   112   131   129    1
   113   121   118    1
   114   140   134   am
   115   140   141    1
   116   134   135    2
   117   129   126    1
   118   129   130    1
   119   141   144    1
   120   141   142    1
   121   126   127    1
   122   126   125    1
   123   127   128    2
   124   118   119    1
   125   118   117    1
   126   143   142    2
   127   119   120    2
   128   103   102    2
   129   115   114    2
   130   102   101    1
   131   102   109   am
   132   112   111    2
   133   104   105    1
   134   104   101    1
   135   114   116   am
   136   114   113    1
   137   110   111    1
   138   110   109    1
   139   110   113    1
   140   105   106    1
   141   101   100    1
   142   108   106   ar
   143   106   107   ar
