@<TRIPOS>MOLECULE
tmp/4nv0B00.pdb
 146 141 0 0 0
SMALL
GASTEIGER

@<TRIPOS>ATOM
      1  N        -35.4400    5.7910  -32.7460 N.3    45  ASP45      -0.1225
      2  CA       -34.7080    5.1560  -31.6440 C.3    45  ASP45       0.1805
      3  C        -34.5450    3.6500  -31.8150 C.2    45  ASP45       0.2597
      4  O        -35.5140    2.8970  -31.8200 O.2    45  ASP45      -0.2718
      5  CB       -35.3590    5.4630  -30.2830 C.3    45  ASP45       0.1424
      6  CG       -35.2010    6.9290  -29.8760 C.2    45  ASP45       0.3668
      7  OD1      -34.0230    7.4090  -29.7900 O.co2  45  ASP45      -0.2456
      8  OD2      -36.2490    7.6030  -29.6620 O.co2  45  ASP45      -0.2456
      9  N        -33.2830    3.2410  -31.9700 N.am   46  TYR46      -0.1976
     10  CA       -32.9140    1.8290  -32.1010 C.3    46  TYR46       0.1639
     11  C        -33.3070    1.2170  -33.4390 C.2    46  TYR46       0.2290
     12  O        -33.1620    0.0170  -33.6270 O.2    46  TYR46      -0.2864
     13  CB       -33.4070    1.0030  -30.8920 C.3    46  TYR46       0.0560
     14  CG       -32.9900    1.7150  -29.6360 C.ar   46  TYR46      -0.0198
     15  CD1      -31.6560    2.0160  -29.4300 C.ar   46  TYR46      -0.0009
     16  CD2      -33.9270    2.1960  -28.7290 C.ar   46  TYR46      -0.0009
     17  CE1      -31.2500    2.7170  -28.2960 C.ar   46  TYR46       0.0417
     18  CE2      -33.5180    2.9110  -27.5880 C.ar   46  TYR46       0.0417
     19  CZ       -32.1830    3.1540  -27.3850 C.ar   46  TYR46       0.1957
     20  OH       -31.7630    3.8550  -26.2620 O.3    46  TYR46      -0.2866
     21  N        -31.7050    7.0420  -25.6480 N.3    61  SER61      -0.1217
     22  CA       -32.8250    7.3420  -26.5100 C.3    61  SER61       0.1889
     23  C        -32.7400    8.8400  -26.8270 C.2    61  SER61       0.2288
     24  O        -31.9590    9.5710  -26.2120 O.2    61  SER61      -0.2866
     25  CB       -34.1090    7.0560  -25.7750 C.3    61  SER61       0.2089
     26  OG       -34.2650    7.9840  -24.7070 O.3    61  SER61      -0.2183
     27  N        -34.8240   11.0140  -25.9330 N.3    63  PHE63      -0.1227
     28  CA       -35.1200   11.6280  -24.6380 C.3    63  PHE63       0.1736
     29  C        -33.8290   11.7560  -23.8460 C.2    63  PHE63       0.2596
     30  O        -33.5710   12.7930  -23.2270 O.2    63  PHE63      -0.2718
     31  CB       -36.1060   10.7790  -23.8110 C.3    63  PHE63       0.0547
     32  CG       -37.5450   10.8250  -24.3020 C.ar   63  PHE63      -0.0202
     33  CD1      -38.3390   11.9220  -24.0610 C.ar   63  PHE63      -0.0042
     34  CD2      -38.1050    9.7290  -24.9530 C.ar   63  PHE63      -0.0042
     35  CE1      -39.6450   11.9530  -24.5060 C.ar   63  PHE63      -0.0003
     36  CE2      -39.4100    9.7600  -25.3770 C.ar   63  PHE63      -0.0003
     37  CZ       -40.1740   10.8460  -25.1480 C.ar   63  PHE63      -0.0000
     38  N        -33.0200   10.7020  -23.8370 N.am   64  GLY64      -0.1957
     39  CA       -31.8120   10.7000  -23.0350 C.3    64  GLY64       0.1869
     40  C        -30.7960   11.7050  -23.5380 C.2    64  GLY64       0.2309
     41  O        -29.9940   12.2460  -22.7570 O.2    64  GLY64      -0.2863
     42  N        -31.9830   14.9550  -22.1600 N.3    67  ASN67      -0.1240
     43  CA       -31.7810   15.0080  -20.7130 C.3    67  ASN67       0.1653
     44  C        -30.3340   15.2110  -20.2970 C.2    67  ASN67       0.2266
     45  O        -30.0410   15.6240  -19.1660 O.2    67  ASN67      -0.2867
     46  CB       -32.3070   13.7160  -20.0680 C.3    67  ASN67       0.1155
     47  CG       -33.8220   13.6170  -20.1080 C.2    67  ASN67       0.2627
     48  OD1      -34.5210   14.6130  -20.3270 O.2    67  ASN67      -0.2716
     49  ND2      -34.3390   12.4160  -19.8910 N.am   67  ASN67      -0.0877
     50  N        -36.8440   13.3800  -13.6410 N.3    80  THR80      -0.1218
     51  CA       -36.9560   12.5480  -14.8430 C.3    80  THR80       0.1862
     52  C        -36.2220   11.2160  -14.6290 C.2    80  THR80       0.2287
     53  O        -36.6650   10.1790  -15.1210 O.2    80  THR80      -0.2866
     54  CB       -36.5100   13.2530  -16.1450 C.3    80  THR80       0.1770
     55  OG1      -36.7500   12.3730  -17.2500 O.3    80  THR80      -0.2211
     56  CG2      -35.0280   13.6350  -16.1260 C.3    80  THR80       0.0375
     57  N        -38.6070    9.0960  -12.7780 N.3    83  LEU83      -0.1231
     58  CA       -39.6290    8.5650  -13.6760 C.3    83  LEU83       0.1693
     59  C        -39.0890    7.3880  -14.4500 C.2    83  LEU83       0.2592
     60  O        -39.7880    6.3900  -14.6420 O.2    83  LEU83      -0.2718
     61  CB       -40.0690    9.6060  -14.6960 C.3    83  LEU83       0.0284
     62  CG       -41.2030   10.5640  -14.3450 C.3    83  LEU83       0.0019
     63  CD1      -41.4870   11.4400  -15.5780 C.3    83  LEU83       0.0001
     64  CD2      -42.4520    9.8170  -13.9060 C.3    83  LEU83       0.0001
     65  N        -37.8540    7.5320  -14.9300 N.am   84  TYR84      -0.1976
     66  CA       -37.2280    6.5090  -15.7610 C.3    84  TYR84       0.1639
     67  C        -37.0760    5.2160  -14.9580 C.2    84  TYR84       0.2290
     68  O        -37.4020    4.1260  -15.4410 O.2    84  TYR84      -0.2864
     69  CB       -35.8560    6.9830  -16.2930 C.3    84  TYR84       0.0560
     70  CG       -35.3020    6.0280  -17.3260 C.ar   84  TYR84      -0.0198
     71  CD1      -35.6790    6.1460  -18.6490 C.ar   84  TYR84      -0.0009
     72  CD2      -34.4650    4.9710  -16.9720 C.ar   84  TYR84      -0.0009
     73  CE1      -35.2110    5.2780  -19.6090 C.ar   84  TYR84       0.0417
     74  CE2      -33.9900    4.0960  -17.9280 C.ar   84  TYR84       0.0417
     75  CZ       -34.3780    4.2500  -19.2390 C.ar   84  TYR84       0.1957
     76  OH       -33.9450    3.3740  -20.2070 O.3    84  TYR84      -0.2866
     77  N        -39.3150    2.4250  -16.8230 N.3    88  ARG88      -0.1245
     78  CA       -38.4960    1.5800  -17.6890 C.3    88  ARG88       0.1563
     79  C        -38.6230    0.0900  -17.3070 C.2    88  ARG88       0.2260
     80  O        -38.7660   -0.7530  -18.1970 O.2    88  ARG88      -0.2867
     81  CB       -37.0320    2.0590  -17.7290 C.3    88  ARG88       0.0307
     82  CG       -36.0470    1.1270  -18.5210 C.3    88  ARG88       0.0489
     83  CD       -36.4000    0.9860  -20.0040 C.3    88  ARG88       0.2205
     84  NE       -35.4210    0.0960  -20.6660 N.pl3  88  ARG88      -0.0865
     85  CZ       -35.5250   -0.3450  -21.9180 C.cat  88  ARG88       0.5346
     86  NH1      -36.5690    0.0210  -22.6620 N.pl3  88  ARG88       0.1354
     87  NH2      -34.5980   -1.1710  -22.4270 N.pl3  88  ARG88       0.1354
     88  N        -41.8840   -1.0470  -18.7190 N.3    91  GLU91      -0.1245
     89  CA       -41.7830   -1.1720  -20.1740 C.3    91  GLU91       0.1567
     90  C        -41.2550   -2.5270  -20.6680 C.2    91  GLU91       0.2260
     91  O        -41.7120   -3.0540  -21.6910 O.2    91  GLU91      -0.2867
     92  CB       -40.8910   -0.0670  -20.7350 C.3    91  GLU91       0.0388
     93  CG       -40.8260   -0.0910  -22.2640 C.3    91  GLU91       0.1160
     94  CD       -40.0170    1.0630  -22.8310 C.2    91  GLU91       0.3649
     95  OE1      -40.3450    1.5600  -23.9390 O.co2  91  GLU91      -0.2457
     96  OE2      -39.0650    1.4820  -22.1540 O.co2  91  GLU91      -0.2457
     97  N        -46.2160    7.4490  -18.4680 N.3   108  TRP108     -0.1227
     98  CA       -44.8190    7.8680  -18.4770 C.3   108  TRP108      0.1737
     99  C        -44.6010    9.0340  -19.4420 C.2   108  TRP108      0.2595
    100  O        -44.0190   10.0650  -19.0600 O.2   108  TRP108     -0.2718
    101  CB       -43.9350    6.6830  -18.8740 C.3   108  TRP108      0.0564
    102  CG       -42.4680    6.9180  -18.7750 C.ar  108  TRP108      0.0003
    103  CD1      -41.8200    7.9480  -18.1410 C.ar  108  TRP108      0.0946
    104  CD2      -41.4520    6.0890  -19.3450 C.ar  108  TRP108      0.0152
    105  NE1      -40.4490    7.7990  -18.2880 N.ar  108  TRP108     -0.2442
    106  CE2      -40.2060    6.6660  -19.0230 C.ar  108  TRP108      0.0810
    107  CE3      -41.4780    4.9010  -20.0970 C.ar  108  TRP108      0.0012
    108  CZ2      -38.9950    6.0920  -19.4200 C.ar  108  TRP108      0.0191
    109  CZ3      -40.2720    4.3310  -20.4940 C.ar  108  TRP108      0.0001
    110  CH2      -39.0510    4.9190  -20.1470 C.ar  108  TRP108      0.0015
    111  N        -45.0840    8.8880  -20.6820 N.am  109  TRP109     -0.1976
    112  CA       -44.8960    9.9410  -21.6740 C.3   109  TRP109      0.1640
    113  C        -45.5660   11.2350  -21.1860 C.2   109  TRP109      0.2290
    114  O        -44.9890   12.3390  -21.2730 O.2   109  TRP109     -0.2864
    115  CB       -45.4640    9.5110  -23.0360 C.3   109  TRP109      0.0576
    116  CG       -44.4450    9.0030  -24.0390 C.ar  109  TRP109      0.0006
    117  CD1      -43.9690    9.6730  -25.1240 C.ar  109  TRP109      0.0946
    118  CD2      -43.7970    7.7160  -24.0480 C.ar  109  TRP109      0.0152
    119  NE1      -43.0650    8.8950  -25.8110 N.ar  109  TRP109     -0.2442
    120  CE2      -42.9400    7.6900  -25.1750 C.ar  109  TRP109      0.0810
    121  CE3      -43.8650    6.5900  -23.2200 C.ar  109  TRP109      0.0012
    122  CZ2      -42.1560    6.5810  -25.4980 C.ar  109  TRP109      0.0191
    123  CZ3      -43.0760    5.4930  -23.5240 C.ar  109  TRP109      0.0001
    124  CH2      -42.2430    5.4890  -24.6670 C.ar  109  TRP109      0.0015
    125  N        -43.6150   12.8600  -18.4210 N.3   112  SER112     -0.1217
    126  CA       -42.3660   13.3500  -18.9590 C.3   112  SER112      0.1889
    127  C        -42.6070   14.7280  -19.5550 C.2   112  SER112      0.2288
    128  O        -41.8180   15.6430  -19.3270 O.2   112  SER112     -0.2866
    129  CB       -41.8230   12.4080  -20.0270 C.3   112  SER112      0.2089
    130  OG       -40.5340   12.8240  -20.4450 O.3   112  SER112     -0.2183
    131  N        -41.7780    8.2350  -31.4100 N.3   160  ALA160     -0.1231
    132  CA       -42.3660    8.5340  -30.1020 C.3   160  ALA160      0.1694
    133  C        -41.3440    9.1970  -29.1750 C.2   160  ALA160      0.2592
    134  O        -41.6120    9.3730  -27.9830 O.2   160  ALA160     -0.2718
    135  CB       -42.8580    7.2700  -29.4640 C.3   160  ALA160      0.0304
    136  N        -40.1570    9.5080  -29.7070 N.am  161  GLY161     -0.1957
    137  CA       -39.1210   10.1090  -28.8870 C.3   161  GLY161      0.1869
    138  C        -39.2110   11.6220  -28.7620 C.2   161  GLY161      0.2309
    139  O        -40.2930   12.2230  -28.8980 O.2   161  GLY161     -0.2863
    140  N        -45.2950    4.8490  -27.6640 N.3   204  THR204     -0.1218
    141  CA       -45.0070    3.6050  -28.3630 C.3   204  THR204      0.1862
    142  C        -46.2000    3.0420  -29.1230 C.2   204  THR204      0.2287
    143  O        -46.0490    2.4460  -30.1890 O.2   204  THR204     -0.2866
    144  CB       -44.5440    2.5350  -27.3840 C.3   204  THR204      0.1770
    145  OG1      -43.4430    3.0560  -26.6440 O.3   204  THR204     -0.2211
    146  CG2      -44.1000    1.2690  -28.1160 C.3   204  THR204      0.0375
@<TRIPOS>BOND
     1    12    11    2
     2    11    10    1
     3     1     2    1
     4    10     9    1
     5    10    13    1
     6     9     3   am
     7     4     3    2
     8     3     2    1
     9     2     5    1
    10   131   132    1
    11    13    14    1
    12     5     6    1
    13   143   142    2
    14   132   135    1
    15   132   133    1
    16     6     7   ar
    17     6     8   ar
    18   136   133   am
    19   136   137    1
    20    14    15   ar
    21    14    16   ar
    22    15    17   ar
    23   133   134    2
    24   142   141    1
    25   139   138    2
    26   137   138    1
    27    16    18   ar
    28   141   140    1
    29   141   144    1
    30    17    19   ar
    31   146   144    1
    32    18    19   ar
    33    19    20    1
    34   144   145    1
    35    23    22    1
    36    23    24    2
    37    22    25    1
    38    22    21    1
    39    27    28    1
    40   119   120   ar
    41   119   117   ar
    42    25    26    1
    43   122   120   ar
    44   122   124   ar
    45    36    37   ar
    46    36    34   ar
    47   120   118   ar
    48    37    35   ar
    49   117   116   ar
    50    34    32   ar
    51   124   123   ar
    52    28    29    1
    53    28    31    1
    54    35    33   ar
    55    32    33   ar
    56    32    31    1
    57   118   116   ar
    58   118   121   ar
    59   116   115    1
    60    95    94   ar
    61    29    38   am
    62    29    30    2
    63    38    39    1
    64    40    39    1
    65    40    41    2
    66   123   121   ar
    67   115   112    1
    68    94    93    1
    69    94    96   ar
    70    86    85    1
    71    87    85    1
    72    93    92    1
    73    42    43    1
    74    85    84    2
    75    91    90    2
    76   112   113    1
    77   112   111    1
    78   114   113    2
    79    92    89    1
    80    43    44    1
    81    43    46    1
    82   111    99   am
    83    90    89    1
    84    84    83    1
    85   109   110   ar
    86   109   107   ar
    87   130   129    1
    88    48    47    2
    89    44    45    2
    90    76    75    1
    91    89    88    1
    92   110   108   ar
    93    47    46    1
    94    47    49   am
    95   107   104   ar
    96   129   126    1
    97    83    82    1
    98    73    75   ar
    99    73    71   ar
   100   127   128    2
   101   127   126    1
   102    99   100    2
   103    99    98    1
   104   108   106   ar
   105   104   106   ar
   106   104   102   ar
   107    75    74   ar
   108   106   105   ar
   109   126   125    1
   110   101   102    1
   111   101    98    1
   112   102   103   ar
   113    71    70   ar
   114    82    81    1
   115    98    97    1
   116   105   103   ar
   117    80    79    2
   118    74    72   ar
   119    81    78    1
   120    78    79    1
   121    78    77    1
   122    70    72   ar
   123    70    69    1
   124    55    54    1
   125    69    66    1
   126    54    56    1
   127    54    51    1
   128    66    67    1
   129    66    65    1
   130    63    62    1
   131    68    67    2
   132    53    52    2
   133    65    59   am
   134    51    52    1
   135    51    50    1
   136    61    62    1
   137    61    58    1
   138    60    59    2
   139    59    58    1
   140    62    64    1
   141    58    57    1
