@<TRIPOS>MOLECULE
tmp/4nv1G00.pdb
 179 181 0 0 0
SMALL
GASTEIGER

@<TRIPOS>ATOM
      1  N         33.0090   31.2090   99.8940 N.3    11  ASP11      -0.1225
      2  CA        32.0570   31.4110   98.8140 C.3    11  ASP11       0.1805
      3  C         30.6450   30.9360   99.1480 C.2    11  ASP11       0.2597
      4  O         29.8130   30.8240   98.2640 O.2    11  ASP11      -0.2718
      5  CB        32.5770   30.7530   97.5480 C.3    11  ASP11       0.1424
      6  CG        33.6480   31.5930   96.8610 C.2    11  ASP11       0.3668
      7  OD1       33.2890   32.3270   95.9030 O.co2  11  ASP11      -0.2456
      8  OD2       34.8300   31.5190   97.2870 O.co2  11  ASP11      -0.2456
      9  N         30.3540   30.7020  100.4240 N.am   12  ASN12      -0.1974
     10  CA        29.0400   30.1920  100.8330 C.3    12  ASN12       0.1688
     11  C         28.2100   31.2140  101.6090 C.2    12  ASN12       0.2292
     12  O         28.6980   31.7340  102.6090 O.2    12  ASN12      -0.2864
     13  CB        29.2830   28.9630  101.7140 C.3    12  ASN12       0.1181
     14  CG        28.0220   28.1490  101.9790 C.2    12  ASN12       0.2629
     15  OD1       27.1690   28.5140  102.7920 O.2    12  ASN12      -0.2716
     16  ND2       27.9400   26.9930  101.3390 N.am   12  ASN12      -0.0877
     17  N         34.4220   26.8190  103.2410 N.3    75  HIS75      -0.1226
     18  CA        33.6240   26.7700  102.0150 C.3    75  HIS75       0.1752
     19  C         34.1010   27.7740  100.9480 C.2    75  HIS75       0.2597
     20  O         33.3260   28.4950  100.3300 O.2    75  HIS75      -0.2718
     21  CB        32.1230   26.8210  102.3810 C.3    75  HIS75       0.0759
     22  CG        31.6510   25.5980  103.1100 C.ar   75  HIS75       0.0818
     23  ND1       30.9490   24.5900  102.4890 N.ar   75  HIS75      -0.2268
     24  CD2       31.8120   25.1940  104.3940 C.ar   75  HIS75       0.1154
     25  CE1       30.6800   23.6310  103.3580 C.ar   75  HIS75       0.1986
     26  NE2       31.1880   23.9760  104.5250 N.ar   75  HIS75      -0.2212
     27  N         35.4110   27.7770  100.7180 N.am   76  SER76      -0.1938
     28  CA        36.0660   28.7550   99.8600 C.3    76  SER76       0.2055
     29  C         36.3380   28.0380   98.5760 C.2    76  SER76       0.2642
     30  O         36.8480   26.9150   98.6270 O.2    76  SER76      -0.2714
     31  CB        37.4240   29.1770  100.4280 C.3    76  SER76       0.2130
     32  OG        38.2220   29.8500   99.4530 O.3    76  SER76      -0.2179
     33  N         36.0510   28.6970   97.4580 N.am   77  LYS77      -0.1977
     34  CA        36.2450   28.1060   96.1240 C.3    77  LYS77       0.1596
     35  C         37.6860   28.1650   95.6430 C.2    77  LYS77       0.2287
     36  O         37.9770   27.6390   94.5730 O.2    77  LYS77      -0.2864
     37  CB        35.3660   28.7860   95.0610 C.3    77  LYS77       0.0298
     38  CG        33.8670   28.5210   95.1820 C.3    77  LYS77       0.0038
     39  CD        33.0410   29.2380   94.1220 C.3    77  LYS77       0.0206
     40  CE        33.1120   28.4520   92.8240 C.3    77  LYS77       0.1093
     41  NZ        32.3000   29.0370   91.7270 N.3    77  LYS77      -0.1314
     42  N         36.5670   22.6390  107.4850 N.3    94  HIS94      -0.1227
     43  CA        36.3340   21.7070  106.4030 C.3    94  HIS94       0.1737
     44  C         35.1650   20.8000  106.7580 C.2    94  HIS94       0.2438
     45  O         35.1510   20.2170  107.8720 O.2    94  HIS94      -0.2733
     46  CB        37.5910   20.8420  106.2600 C.3    94  HIS94       0.0758
     47  CG        37.5240   19.7970  105.1910 C.ar   94  HIS94       0.0818
     48  ND1       37.4200   20.1000  103.8470 N.ar   94  HIS94      -0.2268
     49  CD2       37.6080   18.4460  105.2690 C.ar   94  HIS94       0.1154
     50  CE1       37.4210   18.9800  103.1460 C.ar   94  HIS94       0.1986
     51  NE2       37.5310   17.9620  103.9840 N.ar   94  HIS94      -0.2212
     52  N         34.2500   20.6230  105.7850 N.am   95  PRO95      -0.2729
     53  CA        33.1380   19.6880  105.8380 C.3    95  PRO95       0.1401
     54  C         33.4790   18.2250  105.5520 C.2    95  PRO95       0.2269
     55  O         32.7730   17.5660  104.8020 O.2    95  PRO95      -0.2865
     56  CB        32.1430   20.2450  104.7990 C.3    95  PRO95       0.0296
     57  CG        32.9610   20.9850  103.8140 C.3    95  PRO95       0.0237
     58  CD        34.2070   21.4320  104.5450 C.3    95  PRO95       0.0939
     59  N         39.3420   16.3040  100.0890 N.3   103  GLY103     -0.1210
     60  CA        39.0340   16.8170   98.7590 C.3   103  GLY103      0.1956
     61  C         37.5690   17.1900   98.6470 C.2   103  GLY103      0.2612
     62  O         36.9520   17.5630   99.6410 O.2   103  GLY103     -0.2717
     63  N         37.0520   17.0400   97.4260 N.am  104  TRP104     -0.1962
     64  CA        35.6810   17.3430   96.9850 C.3   104  TRP104      0.1771
     65  C         34.5390   16.4280   97.5060 C.2   104  TRP104      0.2620
     66  O         34.6460   15.2090   97.5960 O.2   104  TRP104     -0.2715
     67  CB        35.6650   17.4510   95.4370 C.3   104  TRP104      0.0590
     68  CG        36.2260   18.7640   94.9860 C.ar  104  TRP104      0.0006
     69  CD1       37.4720   19.2480   95.2460 C.ar  104  TRP104      0.0946
     70  CD2       35.5280   19.8060   94.3090 C.ar  104  TRP104      0.0152
     71  NE1       37.6040   20.5170   94.7430 N.ar  104  TRP104     -0.2442
     72  CE2       36.4220   20.8790   94.1570 C.ar  104  TRP104      0.0810
     73  CE3       34.2460   19.9180   93.7640 C.ar  104  TRP104      0.0012
     74  CZ2       36.0730   22.0470   93.4840 C.ar  104  TRP104      0.0191
     75  CZ3       33.8850   21.0910   93.1270 C.ar  104  TRP104      0.0001
     76  CH2       34.7980   22.1360   92.9870 C.ar  104  TRP104      0.0015
     77  N         33.4710   17.0710   97.9660 N.am  105  PHE105     -0.1960
     78  CA        32.1860   16.4180   98.2340 C.3   105  PHE105      0.1756
     79  C         32.3120   15.2740   99.1530 C.2   105  PHE105      0.2461
     80  O         31.7850   14.2230   98.8770 O.2   105  PHE105     -0.2730
     81  CB        31.5460   15.9640   96.9240 C.3   105  PHE105      0.0574
     82  CG        31.3690   17.0990   95.9600 C.ar  105  PHE105     -0.0200
     83  CD1       31.2870   16.8720   94.6000 C.ar  105  PHE105     -0.0042
     84  CD2       31.3950   18.4170   96.4070 C.ar  105  PHE105     -0.0042
     85  CE1       31.1800   17.9230   93.6940 C.ar  105  PHE105     -0.0003
     86  CE2       31.2570   19.4760   95.5190 C.ar  105  PHE105     -0.0003
     87  CZ        31.1230   19.2200   94.1570 C.ar  105  PHE105     -0.0000
     88  N         32.9310   15.5080  100.3150 N.am  106  PRO106     -0.2716
     89  CA        33.2360   14.3390  101.1600 C.3   106  PRO106      0.1536
     90  C         32.0340   13.5300  101.5950 C.2   106  PRO106      0.2598
     91  O         32.1610   12.3110  101.7610 O.2   106  PRO106     -0.2715
     92  CB        33.9180   14.9340  102.4060 C.3   106  PRO106      0.0310
     93  CG        34.1970   16.3550  102.0680 C.3   106  PRO106      0.0237
     94  CD        33.4190   16.7830  100.8540 C.3   106  PRO106      0.0939
     95  N         30.9150   14.1990  101.8930 N.am  107  GLN107     -0.1964
     96  CA        29.7350   13.4340  102.3190 C.3   107  GLN107      0.1733
     97  C         29.2470   12.4340  101.2350 C.2   107  GLN107      0.2616
     98  O         28.8500   11.2950  101.5490 O.2   107  GLN107     -0.2715
     99  CB        28.6190   14.3320  102.8570 C.3   107  GLN107      0.0408
    100  CG        27.7390   14.9750  101.8160 C.3   107  GLN107      0.0908
    101  CD        28.3810   16.1630  101.1110 C.2   107  GLN107      0.2608
    102  OE1       29.4970   16.6300  101.4380 O.2   107  GLN107     -0.2717
    103  NE2       27.6950   16.6210  100.0730 N.am  107  GLN107     -0.0878
    104  N         29.3890   12.8120   99.9600 N.am  108  VAL108     -0.1977
    105  CA        28.9320   11.9640   98.8620 C.3   108  VAL108      0.1596
    106  C         29.7080   10.6730   98.9290 C.2   108  VAL108      0.2287
    107  O         29.1130    9.6070   99.0290 O.2   108  VAL108     -0.2864
    108  CB        29.1760   12.5810   97.5100 C.3   108  VAL108      0.0276
    109  CG1       28.7820   11.5890   96.3940 C.3   108  VAL108      0.0022
    110  CG2       28.3830   13.8550   97.4580 C.3   108  VAL108      0.0022
    111  N         22.7050   13.1880  100.1990 N.3   147  SER147     -0.1217
    112  CA        23.8170   14.1300  100.2760 C.3   147  SER147      0.1889
    113  C         23.4100   15.4550  100.8540 C.2   147  SER147      0.2288
    114  O         24.1080   15.9870  101.7040 O.2   147  SER147     -0.2866
    115  CB        24.4990   14.3660   98.9320 C.3   147  SER147      0.2089
    116  OG        25.4480   15.4120   99.0080 O.3   147  SER147     -0.2183
    117  N         25.1200   16.7950  104.2270 N.3   151  TYR151     -0.1241
    118  CA        25.8170   18.0420  104.0890 C.3   151  TYR151      0.1605
    119  C         25.2760   19.0430  105.0660 C.2   151  TYR151      0.2264
    120  O         26.0900   19.7730  105.6450 O.2   151  TYR151     -0.2867
    121  CB        25.6920   18.6090  102.6880 C.3   151  TYR151      0.0534
    122  CG        26.2530   19.9700  102.3890 C.ar  151  TYR151     -0.0201
    123  CD1       27.5770   20.1290  102.0520 C.ar  151  TYR151     -0.0009
    124  CD2       25.4360   21.0870  102.3070 C.ar  151  TYR151     -0.0009
    125  CE1       28.0850   21.3510  101.6890 C.ar  151  TYR151      0.0417
    126  CE2       25.9350   22.3160  101.9170 C.ar  151  TYR151      0.0417
    127  CZ        27.2620   22.4240  101.6210 C.ar  151  TYR151      0.1957
    128  OH        27.8090   23.6000  101.2230 O.3   151  TYR151     -0.2866
    129  N         34.3970   12.7350   91.2000 N.3   191  TYR191     -0.1241
    130  CA        32.9630   12.9280   91.2240 C.3   191  TYR191      0.1605
    131  C         32.3180   12.8500   89.8390 C.2   191  TYR191      0.2264
    132  O         31.3520   12.1030   89.6650 O.2   191  TYR191     -0.2867
    133  CB        32.5650   14.2380   91.9100 C.3   191  TYR191      0.0534
    134  CG        31.0460   14.3870   92.0470 C.ar  191  TYR191     -0.0201
    135  CD1       30.3250   13.6270   92.9840 C.ar  191  TYR191     -0.0009
    136  CD2       30.3460   15.3020   91.2660 C.ar  191  TYR191     -0.0009
    137  CE1       28.9580   13.7790   93.1200 C.ar  191  TYR191      0.0417
    138  CE2       28.9750   15.4540   91.3960 C.ar  191  TYR191      0.0417
    139  CZ        28.2850   14.6810   92.3040 C.ar  191  TYR191      0.1957
    140  OH        26.9250   14.8440   92.4360 O.3   191  TYR191     -0.2866
    141  N         21.1100   15.5680   95.4700 N.3   217  HIS217     -0.1241
    142  CA        21.4440   16.7560   96.2170 C.3   217  HIS217      0.1621
    143  C         20.8040   17.9220   95.4820 C.2   217  HIS217      0.2264
    144  O         21.4280   18.5060   94.5900 O.2   217  HIS217     -0.2867
    145  CB        22.9620   16.9260   96.3670 C.3   217  HIS217      0.0745
    146  CG        23.3310   18.0390   97.3020 C.ar  217  HIS217      0.0817
    147  ND1       24.1020   17.8240   98.4280 N.ar  217  HIS217     -0.2268
    148  CD2       22.9090   19.3280   97.3650 C.ar  217  HIS217      0.1154
    149  CE1       24.1540   18.9400   99.1350 C.ar  217  HIS217      0.1986
    150  NE2       23.4460   19.8710   98.5150 N.ar  217  HIS217     -0.2212
    151  N         20.7110   20.1360   92.1940 N.3   220  TYR220     -0.1227
    152  CA        21.6620   19.7680   91.1790 C.3   220  TYR220      0.1736
    153  C         21.1770   18.5360   90.5160 C.2   220  TYR220      0.2595
    154  O         20.4890   17.7370   91.1350 O.2   220  TYR220     -0.2718
    155  CB        23.0190   19.4560   91.7630 C.3   220  TYR220      0.0548
    156  CG        23.6180   20.6260   92.4980 C.ar  220  TYR220     -0.0200
    157  CD1       23.4360   20.7500   93.8730 C.ar  220  TYR220     -0.0009
    158  CD2       24.4140   21.5420   91.8510 C.ar  220  TYR220     -0.0009
    159  CE1       23.9920   21.7890   94.5820 C.ar  220  TYR220      0.0417
    160  CE2       24.9810   22.6010   92.5530 C.ar  220  TYR220      0.0417
    161  CZ        24.7610   22.7240   93.9210 C.ar  220  TYR220      0.1957
    162  OH        25.2990   23.7430   94.6820 O.3   220  TYR220     -0.2866
    163  N         21.7130   18.3570   89.3220 N.am  221  LYS221     -0.1966
    164  CA        21.4500   17.2190   88.5090 C.3   221  LYS221      0.1728
    165  C         22.7370   16.4830   88.4220 C.2   221  LYS221      0.2616
    166  O         23.6310   16.9860   87.7790 O.2   221  LYS221     -0.2715
    167  CB        21.1070   17.6790   87.1090 C.3   221  LYS221      0.0311
    168  CG        19.7920   18.4200   86.9650 C.3   221  LYS221      0.0038
    169  CD        19.5200   18.5320   85.4700 C.3   221  LYS221      0.0206
    170  CE        18.0470   18.3840   85.2110 C.3   221  LYS221      0.1093
    171  NZ        17.3990   19.4920   85.9390 N.3   221  LYS221     -0.1314
    172  N         22.8060   15.2700   88.9540 N.am  222  ASN222     -0.1972
    173  CA        24.0860   14.5970   89.0720 C.3   222  ASN222      0.1688
    174  C         24.0960   13.2650   88.3400 C.2   222  ASN222      0.2292
    175  O         24.7480   13.1720   87.3040 O.2   222  ASN222     -0.2864
    176  CB        24.4470   14.4160   90.5740 C.3   222  ASN222      0.1181
    177  CG        24.4940   15.7360   91.3490 C.2   222  ASN222      0.2629
    178  OD1       24.9110   16.7770   90.8170 O.2   222  ASN222     -0.2716
    179  ND2       24.0420   15.7310   92.6010 N.am  222  ASN222     -0.0877
@<TRIPOS>BOND
     1   170   169    1
     2   170   171    1
     3   169   168    1
     4   168   167    1
     5   167   164    1
     6   175   174    2
     7   166   165    2
     8   174   173    1
     9   165   164    1
    10   165   172   am
    11   164   163    1
    12   172   173    1
    13   173   176    1
    14   163   153   am
    15   132   131    2
    16   131   130    1
    17   153   154    2
    18   153   152    1
    19   176   177    1
    20   178   177    2
    21   152   155    1
    22   152   151    1
    23   129   130    1
    24   130   133    1
    25   136   138   ar
    26   136   134   ar
    27   177   179   am
    28   138   139   ar
    29    41    40    1
    30   155   156    1
    31   158   156   ar
    32   158   160   ar
    33   133   134    1
    34   134   135   ar
    35   139   140    1
    36   139   137   ar
    37   156   157   ar
    38   160   161   ar
    39    40    39    1
    40   135   137   ar
    41    76    75   ar
    42    76    74   ar
    43    75    73   ar
    44    74    72   ar
    45    85    87   ar
    46    85    83   ar
    47    73    70   ar
    48   157   159   ar
    49   161   159   ar
    50   161   162    1
    51    39    38    1
    52    72    70   ar
    53    72    71   ar
    54    87    86   ar
    55    70    68   ar
    56    36    35    2
    57   144   143    2
    58    83    82   ar
    59    71    69   ar
    60    68    69   ar
    61    68    67    1
    62    37    38    1
    63    37    34    1
    64    67    64    1
    65   141   142    1
    66   143   142    1
    67    86    84   ar
    68    35    34    1
    69     7     6   ar
    70    82    84   ar
    71    82    81    1
    72    34    33    1
    73   142   145    1
    74   145   146    1
    75   109   108    1
    76     6     8   ar
    77     6     5    1
    78    81    78    1
    79    64    63    1
    80    64    65    1
    81   146   148   ar
    82   146   147   ar
    83   148   150   ar
    84    63    61   am
    85   110   108    1
    86    33    29   am
    87    65    66    2
    88    65    77   am
    89   108   105    1
    90     5     2    1
    91    77    78    1
    92    78    79    1
    93     4     3    2
    94   147   149   ar
    95   150   149   ar
    96    29    30    2
    97    29    28    1
    98    61    60    1
    99    61    62    2
   100    60    59    1
   101     2     3    1
   102     2     1    1
   103   105   106    1
   104   105   104    1
   105    80    79    2
   106   106   107    2
   107   115   116    1
   108   115   112    1
   109     3     9   am
   110    79    88   am
   111    32    31    1
   112    28    31    1
   113    28    27    1
   114   104    97   am
   115   103   101   am
   116   111   112    1
   117   112   113    1
   118    88    94    1
   119    88    89    1
   120    20    19    2
   121     9    10    1
   122    27    19   am
   123    10    11    1
   124    10    13    1
   125   113   114    2
   126    94    93    1
   127    19    18    1
   128   101   102    2
   129   101   100    1
   130    89    90    1
   131    89    92    1
   132   128   127    1
   133    97    98    2
   134    97    96    1
   135    16    14   am
   136    90    91    2
   137    90    95   am
   138    11    12    2
   139   127   125   ar
   140   127   126   ar
   141   125   123   ar
   142    13    14    1
   143   100    99    1
   144    95    96    1
   145   126   124   ar
   146    14    15    2
   147    18    21    1
   148    18    17    1
   149   123   122   ar
   150    93    92    1
   151   124   122   ar
   152    96    99    1
   153    21    22    1
   154   122   121    1
   155    23    22   ar
   156    23    25   ar
   157   121   118    1
   158    22    24   ar
   159    50    48   ar
   160    50    51   ar
   161    25    26   ar
   162    57    58    1
   163    57    56    1
   164    48    47   ar
   165    51    49   ar
   166   118   117    1
   167   118   119    1
   168    24    26   ar
   169    58    52    1
   170    56    53    1
   171    55    54    2
   172   119   120    2
   173    47    49   ar
   174    47    46    1
   175    54    53    1
   176    52    53    1
   177    52    44   am
   178    46    43    1
   179    43    44    1
   180    43    42    1
   181    44    45    2
