@<TRIPOS>MOLECULE
tmp/4nv1H00.pdb
 176 176 0 0 0
SMALL
GASTEIGER

@<TRIPOS>ATOM
      1  N        -15.6570    4.4520   89.7920 N.3     9  ASP9       -0.1225
      2  CA       -15.3130    5.4000   90.8440 C.3     9  ASP9        0.1805
      3  C        -14.3100    6.4540   90.3360 C.2     9  ASP9        0.2597
      4  O        -13.7190    7.1950   91.1200 O.2     9  ASP9       -0.2718
      5  CB       -14.8300    4.6030   92.0560 C.3     9  ASP9        0.1424
      6  CG       -15.9530    3.7770   92.6630 C.2     9  ASP9        0.3668
      7  OD1      -16.8070    4.3910   93.3320 O.co2   9  ASP9       -0.2456
      8  OD2      -16.0490    2.5400   92.4750 O.co2   9  ASP9       -0.2456
      9  N        -14.1390    6.5840   89.0220 N.am   10  ASN10      -0.1974
     10  CA       -13.1900    7.5690   88.5160 C.3    10  ASN10       0.1688
     11  C        -13.9370    8.6800   87.8190 C.2    10  ASN10       0.2292
     12  O        -14.6670    8.4200   86.8550 O.2    10  ASN10      -0.2864
     13  CB       -12.2430    6.8770   87.5370 C.3    10  ASN10       0.1181
     14  CG       -11.2100    7.8080   86.9570 C.2    10  ASN10       0.2629
     15  OD1      -11.5270    8.7110   86.2050 O.2    10  ASN10      -0.2716
     16  ND2       -9.9490    7.5310   87.2330 N.am   10  ASN10      -0.0877
     17  N        -12.5590    0.9550   86.2210 N.3    73  HIS73      -0.1226
     18  CA       -12.0370    1.6340   87.4640 C.3    73  HIS73       0.1752
     19  C        -13.0480    1.6970   88.5810 C.2    73  HIS73       0.2597
     20  O        -13.3670    2.7630   89.0470 O.2    73  HIS73      -0.2718
     21  CB       -11.4970    3.0330   87.2230 C.3    73  HIS73       0.0759
     22  CG       -10.3040    3.0100   86.3410 C.ar   73  HIS73       0.0818
     23  ND1       -9.1080    2.4710   86.7460 N.ar   73  HIS73      -0.2268
     24  CD2      -10.1600    3.2910   85.0290 C.ar   73  HIS73       0.1154
     25  CE1       -8.2670    2.4320   85.7290 C.ar   73  HIS73       0.1986
     26  NE2       -8.8960    2.8950   84.6690 N.ar   73  HIS73      -0.2212
     27  N        -13.6570    0.5660   88.9070 N.am   74  SER74      -0.1938
     28  CA       -14.6800    0.4900   89.9390 C.3    74  SER74       0.2055
     29  C        -13.9860   -0.0560   91.1660 C.2    74  SER74       0.2642
     30  O        -13.1790   -0.9700   91.0260 O.2    74  SER74      -0.2714
     31  CB       -15.7180   -0.5790   89.5990 C.3    74  SER74       0.2130
     32  OG       -16.7890   -0.5650   90.5300 O.3    74  SER74      -0.2179
     33  N        -14.4090    0.3930   92.3390 N.am   75  LYS75      -0.1977
     34  CA       -13.9820   -0.2590   93.5700 C.3    75  LYS75       0.1596
     35  C        -14.6970   -1.5810   93.8570 C.2    75  LYS75       0.2287
     36  O        -14.4110   -2.1440   94.8970 O.2    75  LYS75      -0.2864
     37  CB       -14.2820    0.6470   94.7710 C.3    75  LYS75       0.0298
     38  CG       -13.8410    2.0950   94.6820 C.3    75  LYS75       0.0038
     39  CD       -12.3440    2.3330   94.7890 C.3    75  LYS75       0.0206
     40  CE       -12.0480    3.7510   95.2810 C.3    75  LYS75       0.1093
     41  NZ       -11.2280    3.6980   96.5260 N.3    75  LYS75      -0.1314
     42  N         -3.0400   -7.5340   91.0430 N.3   102  TRP102     -0.1227
     43  CA        -2.6300   -6.2340   91.5750 C.3   102  TRP102      0.1737
     44  C         -1.6370   -5.4650   90.6890 C.2   102  TRP102      0.2595
     45  O         -0.5960   -5.9760   90.2390 O.2   102  TRP102     -0.2718
     46  CB        -2.0280   -6.4320   92.9660 C.3   102  TRP102      0.0564
     47  CG        -3.0770   -6.6380   94.0000 C.ar  102  TRP102      0.0003
     48  CD1       -3.7020   -7.8220   94.3360 C.ar  102  TRP102      0.0946
     49  CD2       -3.6460   -5.6300   94.8360 C.ar  102  TRP102      0.0152
     50  NE1       -4.6300   -7.5920   95.3210 N.ar  102  TRP102     -0.2442
     51  CE2       -4.6210   -6.2580   95.6440 C.ar  102  TRP102      0.0810
     52  CE3       -3.4340   -4.2630   94.9760 C.ar  102  TRP102      0.0012
     53  CZ2       -5.3900   -5.5540   96.5670 C.ar  102  TRP102      0.0191
     54  CZ3       -4.2040   -3.5680   95.8960 C.ar  102  TRP102      0.0001
     55  CH2       -5.1650   -4.2170   96.6790 C.ar  102  TRP102      0.0015
     56  N         -2.0110   -4.2260   90.4190 N.am  103  PHE103     -0.1963
     57  CA        -1.1350   -3.2400   89.7950 C.3   103  PHE103      0.1756
     58  C         -0.3130   -3.8090   88.6700 C.2   103  PHE103      0.2461
     59  O          0.9010   -3.9430   88.7470 O.2   103  PHE103     -0.2730
     60  CB        -0.2270   -2.6120   90.8440 C.3   103  PHE103      0.0574
     61  CG        -0.9860   -1.9920   91.9740 C.ar  103  PHE103     -0.0200
     62  CD1       -0.3440   -1.7780   93.1980 C.ar  103  PHE103     -0.0042
     63  CD2       -2.3350   -1.7100   91.8560 C.ar  103  PHE103     -0.0042
     64  CE1       -1.0220   -1.2390   94.2720 C.ar  103  PHE103     -0.0003
     65  CE2       -3.0130   -1.1710   92.9370 C.ar  103  PHE103     -0.0003
     66  CZ        -2.3490   -0.9360   94.1390 C.ar  103  PHE103     -0.0000
     67  N         -1.0000   -4.1600   87.5830 N.am  104  PRO104     -0.2716
     68  CA        -0.3300   -4.8430   86.4900 C.3   104  PRO104      0.1536
     69  C          0.8980   -4.1440   85.9900 C.2   104  PRO104      0.2598
     70  O          1.8560   -4.8050   85.6270 O.2   104  PRO104     -0.2715
     71  CB        -1.4000   -4.8990   85.4030 C.3   104  PRO104      0.0310
     72  CG        -2.6800   -4.8600   86.1660 C.3   104  PRO104      0.0237
     73  CD        -2.4490   -4.0260   87.3730 C.3   104  PRO104      0.0939
     74  N          0.8710   -2.8170   85.9610 N.am  105  GLN105     -0.1964
     75  CA         1.9530   -2.1110   85.3390 C.3   105  GLN105      0.1733
     76  C          3.1680   -2.1870   86.2510 C.2   105  GLN105      0.2616
     77  O          4.3120   -2.1210   85.7970 O.2   105  GLN105     -0.2715
     78  CB         1.5570   -0.6820   84.9940 C.3   105  GLN105      0.0408
     79  CG         1.5890    0.3410   86.1010 C.3   105  GLN105      0.0908
     80  CD         0.3490    0.2900   86.9270 C.2   105  GLN105      0.2608
     81  OE1       -0.6010   -0.4050   86.5900 O.2   105  GLN105     -0.2717
     82  NE2        0.3590    1.0010   88.0400 N.am  105  GLN105     -0.0878
     83  N          2.9320   -2.2630   87.5540 N.am  106  VAL106     -0.1977
     84  CA         4.1060   -2.3150   88.4650 C.3   106  VAL106      0.1596
     85  C          4.9700   -3.5560   88.1750 C.2   106  VAL106      0.2287
     86  O          6.1740   -3.5100   87.8890 O.2   106  VAL106     -0.2864
     87  CB         3.7230   -2.3210   89.9470 C.3   106  VAL106      0.0276
     88  CG1        4.9800   -2.5810   90.7380 C.3   106  VAL106      0.0022
     89  CG2        3.0880   -0.9850   90.3720 C.3   106  VAL106      0.0022
     90  N          5.4990    4.0980   87.3940 N.3   145  SER145     -0.1217
     91  CA         4.2000    3.4950   87.4240 C.3   145  SER145      0.1889
     92  C          3.1160    4.5160   87.0790 C.2   145  SER145      0.2288
     93  O          2.1270    4.1500   86.4600 O.2   145  SER145     -0.2866
     94  CB         4.0160    3.0550   88.8610 C.3   145  SER145      0.2089
     95  OG         2.7330    2.5840   89.1260 O.3   145  SER145     -0.2183
     96  N          0.5840    3.9580   83.8450 N.3   149  TYR149     -0.1241
     97  CA        -0.8370    3.8080   84.1480 C.3   149  TYR149      0.1605
     98  C         -1.6340    4.8740   83.4080 C.2   149  TYR149      0.2264
     99  O         -2.7560    4.6380   83.0660 O.2   149  TYR149     -0.2867
    100  CB        -1.0260    4.0420   85.6290 C.3   149  TYR149      0.0534
    101  CG        -2.3760    3.8810   86.1580 C.ar  149  TYR149     -0.0201
    102  CD1       -2.9190    2.6120   86.2230 C.ar  149  TYR149     -0.0009
    103  CD2       -3.0620    4.9450   86.7600 C.ar  149  TYR149     -0.0009
    104  CE1       -4.1310    2.3770   86.8310 C.ar  149  TYR149      0.0417
    105  CE2       -4.3120    4.7270   87.3580 C.ar  149  TYR149      0.0417
    106  CZ        -4.8490    3.4290   87.3700 C.ar  149  TYR149      0.1957
    107  OH        -6.0840    3.0590   87.9070 O.3   149  TYR149     -0.2866
    108  N         -4.6920    3.9740   81.0830 N.3   153  GLN153     -0.1245
    109  CA        -6.0090    4.4630   81.2920 C.3   153  GLN153      0.1566
    110  C         -6.5700    5.1360   80.0170 C.2   153  GLN153      0.2260
    111  O         -7.7590    4.9630   79.6710 O.2   153  GLN153     -0.2867
    112  CB        -5.9370    5.4120   82.4680 C.3   153  GLN153      0.0367
    113  CG        -7.2930    5.9150   82.8200 C.3   153  GLN153      0.0905
    114  CD        -7.3530    6.6960   84.1210 C.2   153  GLN153      0.2608
    115  OE1       -8.1820    7.6030   84.1800 O.2   153  GLN153     -0.2717
    116  NE2       -6.5030    6.3790   85.1230 N.am  153  GLN153     -0.0878
    117  N          2.2330   -8.7590   95.9990 N.3   189  TYR189     -0.1227
    118  CA         2.5910   -7.3530   95.8790 C.3   189  TYR189      0.1736
    119  C          3.2210   -6.8650   97.1860 C.2   189  TYR189      0.2595
    120  O          4.2850   -6.2920   97.1110 O.2   189  TYR189     -0.2718
    121  CB         1.3770   -6.5240   95.5020 C.3   189  TYR189      0.0548
    122  CG         1.6040   -5.0350   95.5700 C.ar  189  TYR189     -0.0200
    123  CD1        2.4540   -4.3970   94.6680 C.ar  189  TYR189     -0.0009
    124  CD2        0.8900   -4.2500   96.4700 C.ar  189  TYR189     -0.0009
    125  CE1        2.6780   -3.0310   94.7360 C.ar  189  TYR189      0.0417
    126  CE2        1.0660   -2.8840   96.5210 C.ar  189  TYR189      0.0417
    127  CZ         1.9710   -2.3020   95.6690 C.ar  189  TYR189      0.1957
    128  OH         2.1730   -0.9800   95.7820 O.3   189  TYR189     -0.2866
    129  N          2.6430   -7.1630   98.3530 N.am  190  LYS190     -0.1980
    130  CA         3.2120   -6.6720   99.6010 C.3   190  LYS190      0.1596
    131  C          4.6220   -7.1780   99.7240 C.2   190  LYS190      0.2287
    132  O          5.5060   -6.4040  100.0810 O.2   190  LYS190     -0.2864
    133  CB         2.3740   -6.9750  100.8490 C.3   190  LYS190      0.0298
    134  CG         1.0570   -6.2100  100.9490 C.3   190  LYS190      0.0038
    135  CD         1.2170   -4.7020  100.7800 C.3   190  LYS190      0.0206
    136  CE        -0.0140   -3.9050  101.2080 C.3   190  LYS190      0.1093
    137  NZ         0.0540   -2.4610  100.8120 N.3   190  LYS190     -0.1314
    138  N          4.7980    6.0570   92.2860 N.3   215  HIS215     -0.1241
    139  CA         3.4840    6.4060   91.8530 C.3   215  HIS215      0.1621
    140  C          2.8810    7.4870   92.7050 C.2   215  HIS215      0.2264
    141  O          2.1170    7.1840   93.6140 O.2   215  HIS215     -0.2867
    142  CB         2.5730    5.1760   91.8450 C.3   215  HIS215      0.0745
    143  CG         1.3620    5.3760   90.9990 C.ar  215  HIS215      0.0817
    144  ND1        1.0670    4.5910   89.9040 N.ar  215  HIS215     -0.2268
    145  CD2        0.4290    6.3590   91.0320 C.ar  215  HIS215      0.1154
    146  CE1       -0.0230    5.0560   89.3410 C.ar  215  HIS215      0.1986
    147  NE2       -0.4180    6.1280   89.9940 N.ar  215  HIS215     -0.2212
    148  N          1.4330    8.1150   96.1880 N.3   218  TYR218     -0.1227
    149  CA         1.4680    6.9540   97.0840 C.3   218  TYR218      0.1736
    150  C          2.8770    6.6270   97.5720 C.2   218  TYR218      0.2595
    151  O          3.8460    6.9300   96.9170 O.2   218  TYR218     -0.2718
    152  CB         0.8650    5.7250   96.4300 C.3   218  TYR218      0.0548
    153  CG        -0.5690    5.9600   95.9500 C.ar  218  TYR218     -0.0200
    154  CD1       -0.8380    6.3470   94.6150 C.ar  218  TYR218     -0.0009
    155  CD2       -1.6440    5.8290   96.8140 C.ar  218  TYR218     -0.0009
    156  CE1       -2.1390    6.5520   94.1640 C.ar  218  TYR218      0.0417
    157  CE2       -2.9450    6.0470   96.3760 C.ar  218  TYR218      0.0417
    158  CZ        -3.1670    6.3650   95.0510 C.ar  218  TYR218      0.1957
    159  OH        -4.4340    6.6070   94.6710 O.3   218  TYR218     -0.2866
    160  N          2.9960    5.9840   98.7140 N.am  219  LYS219     -0.1966
    161  CA         4.2830    5.5040   99.1580 C.3   219  LYS219      0.1728
    162  C          4.2230    3.9920   99.1120 C.2   219  LYS219      0.2616
    163  O          3.4000    3.4580   99.7650 O.2   219  LYS219     -0.2715
    164  CB         4.5050    5.9290  100.6220 C.3   219  LYS219      0.0311
    165  CG         4.3630    7.4040  100.9440 C.3   219  LYS219      0.0038
    166  CD         4.2220    7.5640  102.4610 C.3   219  LYS219      0.0206
    167  CE         3.1770    8.6090  102.8550 C.3   219  LYS219      0.1093
    168  NZ         3.7170    9.9900  102.6550 N.3   219  LYS219     -0.1314
    169  N          5.1280    3.2920   98.4380 N.am  220  ASN220     -0.1972
    170  CA         4.9280    1.9200   98.1290 C.3   220  ASN220      0.1688
    171  C          6.1180    1.1090   98.5500 C.2   220  ASN220      0.2292
    172  O          6.0050    0.3250   99.4830 O.2   220  ASN220     -0.2864
    173  CB         4.6550    1.6950   96.6340 C.3   220  ASN220      0.1181
    174  CG         3.3760    2.3750   96.1510 C.2   220  ASN220      0.2629
    175  OD1        2.2970    2.3190   96.7930 O.2   220  ASN220     -0.2716
    176  ND2        3.4860    2.9830   94.9500 N.am  220  ASN220     -0.0877
@<TRIPOS>BOND
     1   111   110    2
     2   110   109    1
     3   108   109    1
     4   109   112    1
     5   112   113    1
     6   113   114    1
     7    99    98    2
     8    98    97    1
     9    96    97    1
    10   114   115    2
    11   114   116   am
    12    97   100    1
    13    26    24   ar
    14    26    25   ar
    15    78    75    1
    16    78    79    1
    17    24    22   ar
    18    75    74    1
    19    75    76    1
    20    71    72    1
    21    71    68    1
    22    70    69    2
    23   100   101    1
    24    25    23   ar
    25    77    76    2
    26    74    69   am
    27    69    68    1
    28    79    80    1
    29   101   102   ar
    30   101   103   ar
    31    72    73    1
    32    15    14    2
    33    17    18    1
    34   102   104   ar
    35    76    83   am
    36    22    23   ar
    37    22    21    1
    38    93    92    2
    39    68    67    1
    40    81    80    2
    41   103   105   ar
    42   104   106   ar
    43    12    11    2
    44    80    82   am
    45    14    16   am
    46    14    13    1
    47    92    91    1
    48    21    18    1
    49   105   106   ar
    50   106   107    1
    51    73    67    1
    52    90    91    1
    53    91    94    1
    54    18    19    1
    55    13    10    1
    56    83    84    1
    57    67    58   am
    58    11    10    1
    59    86    85    2
    60    85    84    1
    61    84    87    1
    62    10     9    1
    63    19    27   am
    64    19    20    2
    65    58    59    2
    66    58    57    1
    67    94    95    1
    68    27    28    1
    69     9     3   am
    70   146   144   ar
    71   146   147   ar
    72    31    28    1
    73    31    32    1
    74     1     2    1
    75    57    56    1
    76    57    60    1
    77   144   143   ar
    78    28    29    1
    79    87    89    1
    80    87    88    1
    81   147   145   ar
    82    45    44    2
    83     3     2    1
    84     3     4    2
    85    56    44   am
    86    44    43    1
    87     2     5    1
    88    60    61    1
    89   143   145   ar
    90   143   142    1
    91    30    29    2
    92    42    43    1
    93    29    33   am
    94    43    46    1
    95   142   139    1
    96   139   138    1
    97   139   140    1
    98    63    61   ar
    99    63    65   ar
   100    61    62   ar
   101     5     6    1
   102    33    34    1
   103     8     6   ar
   104     6     7   ar
   105   140   141    2
   106    65    66   ar
   107    46    47    1
   108    62    64   ar
   109    34    35    1
   110    34    37    1
   111    35    36    2
   112    47    48   ar
   113    47    49   ar
   114    66    64   ar
   115   156   154   ar
   116   156   158   ar
   117    48    50   ar
   118   154   153   ar
   119   123   125   ar
   120   123   122   ar
   121   159   158    1
   122    38    37    1
   123    38    39    1
   124   125   127   ar
   125    39    40    1
   126    49    52   ar
   127    49    51   ar
   128   176   174   am
   129    52    54   ar
   130   158   157   ar
   131    40    41    1
   132    50    51   ar
   133   121   122    1
   134   121   118    1
   135   122   124   ar
   136    51    53   ar
   137   127   128    1
   138   127   126   ar
   139   118   117    1
   140   118   119    1
   141    54    55   ar
   142   153   152    1
   143   153   155   ar
   144   174   173    1
   145   174   175    2
   146   148   149    1
   147   157   155   ar
   148   152   149    1
   149   124   126   ar
   150    53    55   ar
   151   173   170    1
   152   151   150    2
   153   149   150    1
   154   120   119    2
   155   119   129   am
   156   150   160   am
   157   170   169    1
   158   170   171    1
   159   129   130    1
   160   169   162   am
   161   171   172    2
   162   160   161    1
   163   162   161    1
   164   162   163    2
   165   161   164    1
   166   130   131    1
   167   130   133    1
   168   131   132    2
   169   164   165    1
   170   135   134    1
   171   135   136    1
   172   137   136    1
   173   133   134    1
   174   165   166    1
   175   166   167    1
   176   168   167    1
