@<TRIPOS>MOLECULE
tmp/4nv1E00.pdb
 179 181 0 0 0
SMALL
GASTEIGER

@<TRIPOS>ATOM
      1  N         -5.6160   -2.3300    4.1960 N.3     9  ASP9       -0.1225
      2  CA        -6.5780   -2.4130    5.2720 C.3     9  ASP9        0.1805
      3  C         -7.9220   -1.8540    4.8950 C.2     9  ASP9        0.2597
      4  O         -8.6340   -1.4100    5.7800 O.2     9  ASP9       -0.2718
      5  CB        -6.0090   -1.6800    6.4650 C.3     9  ASP9        0.1424
      6  CG        -4.7350   -2.3320    6.9200 C.2     9  ASP9        0.3668
      7  OD1       -4.8460   -3.4100    7.5240 O.co2   9  ASP9       -0.2456
      8  OD2       -3.6610   -1.8050    6.5730 O.co2   9  ASP9       -0.2456
      9  N         -8.2630   -1.8960    3.6110 N.am   10  ASN10      -0.1974
     10  CA        -9.5280   -1.3410    3.1770 C.3    10  ASN10       0.1688
     11  C        -10.3180   -2.4690    2.5360 C.2    10  ASN10       0.2292
     12  O         -9.7700   -3.3000    1.8000 O.2    10  ASN10      -0.2864
     13  CB        -9.3530   -0.1200    2.2660 C.3    10  ASN10       0.1181
     14  CG       -10.6800    0.4840    1.8400 C.2    10  ASN10       0.2629
     15  OD1      -11.3660    0.0030    0.9140 O.2    10  ASN10      -0.2716
     16  ND2      -11.0470    1.5460    2.5150 N.am   10  ASN10      -0.0877
     17  N         -4.1290    1.7290    0.5080 N.3    73  HIS73      -0.1226
     18  CA        -4.9110    1.9720    1.7080 C.3    73  HIS73       0.1752
     19  C         -4.4460    1.0140    2.7940 C.2    73  HIS73       0.2597
     20  O         -5.2310    0.2070    3.3420 O.2    73  HIS73      -0.2718
     21  CB        -6.3930    1.8280    1.4170 C.3    73  HIS73       0.0759
     22  CG        -6.9600    2.9420    0.5950 C.ar   73  HIS73       0.0818
     23  ND1       -7.4810    4.0840    1.1610 N.ar   73  HIS73      -0.2268
     24  CD2       -7.0650    3.1020   -0.7440 C.ar   73  HIS73       0.1154
     25  CE1       -7.9250    4.8790    0.2090 C.ar   73  HIS73       0.1986
     26  NE2       -7.6740    4.3110   -0.9530 N.ar   73  HIS73      -0.2212
     27  N         -3.1530    1.1420    3.0810 N.am   74  SER74      -0.1938
     28  CA        -2.4750    0.2370    4.0010 C.3    74  SER74       0.2055
     29  C         -2.1070    0.9770    5.2460 C.2    74  SER74       0.2642
     30  O         -1.5650    2.0730    5.1820 O.2    74  SER74      -0.2714
     31  CB        -1.1660   -0.3060    3.4120 C.3    74  SER74       0.2130
     32  OG        -0.5100   -1.1330    4.3750 O.3    74  SER74      -0.2179
     33  N         -2.2650    0.3200    6.3830 N.am   75  LYS75      -0.1977
     34  CA        -1.8350    0.9400    7.6090 C.3    75  LYS75       0.1596
     35  C         -0.3100    0.9780    7.7240 C.2    75  LYS75       0.2287
     36  O          0.2320    1.6720    8.5940 O.2    75  LYS75      -0.2864
     37  CB        -2.5200    0.2790    8.7980 C.3    75  LYS75       0.0298
     38  CG        -3.7730    1.0340    9.2370 C.3    75  LYS75       0.0038
     39  CD        -5.0810    0.3740    8.8670 C.3    75  LYS75       0.0206
     40  CE        -5.8710   -0.1020   10.0670 C.3    75  LYS75       0.1093
     41  NZ        -6.5140    1.1100   10.6460 N.3    75  LYS75      -0.1314
     42  N         -2.4700    5.2140   -4.5050 N.3    92  HIS92      -0.1227
     43  CA        -2.4260    6.2780   -3.5120 C.3    92  HIS92       0.1737
     44  C         -3.6210    7.1400   -3.8090 C.2    92  HIS92       0.2438
     45  O         -3.8110    7.5230   -4.9650 O.2    92  HIS92      -0.2733
     46  CB        -1.1650    7.1180   -3.6820 C.3    92  HIS92       0.0758
     47  CG        -1.0850    8.2510   -2.7220 C.ar   92  HIS92       0.0818
     48  ND1       -1.0300    8.0560   -1.3590 N.ar   92  HIS92      -0.2268
     49  CD2       -1.1460    9.5900   -2.9100 C.ar   92  HIS92       0.1154
     50  CE1       -0.9940    9.2250   -0.7460 C.ar   92  HIS92       0.1986
     51  NE2       -1.0640   10.1730   -1.6660 N.ar   92  HIS92      -0.2212
     52  N         -4.4270    7.4210   -2.7860 N.am   93  PRO93      -0.2729
     53  CA        -5.5590    8.3050   -2.9670 C.3    93  PRO93       0.1401
     54  C         -5.1330    9.7750   -2.8580 C.2    93  PRO93       0.2269
     55  O         -5.4000   10.4070   -1.8540 O.2    93  PRO93      -0.2865
     56  CB        -6.4550    7.9050   -1.7900 C.3    93  PRO93       0.0296
     57  CG        -5.4890    7.5810   -0.6990 C.3    93  PRO93       0.0237
     58  CD        -4.2290    7.0900   -1.3650 C.3    93  PRO93       0.0939
     59  N          0.7480   13.1520    2.4480 N.3   101  GLY101     -0.1210
     60  CA         0.6110   13.0460    3.9000 C.3   101  GLY101      0.1956
     61  C         -0.8280   12.7230    4.2510 C.2   101  GLY101      0.2612
     62  O         -1.5060   12.0140    3.5160 O.2   101  GLY101     -0.2717
     63  N         -1.3090   13.2500    5.3660 N.am  102  TRP102     -0.1962
     64  CA        -2.6420   12.8680    5.8180 C.3   102  TRP102      0.1771
     65  C         -3.8230   13.4890    5.0450 C.2   102  TRP102      0.2620
     66  O         -3.8650   14.6910    4.7930 O.2   102  TRP102     -0.2715
     67  CB        -2.7710   13.1370    7.3140 C.3   102  TRP102      0.0590
     68  CG        -2.3310   11.9850    8.1320 C.ar  102  TRP102      0.0006
     69  CD1       -1.2700   11.9510    8.9810 C.ar  102  TRP102      0.0946
     70  CD2       -2.9220   10.6790    8.1680 C.ar  102  TRP102      0.0152
     71  NE1       -1.1740   10.7090    9.5600 N.ar  102  TRP102     -0.2442
     72  CE2       -2.1730    9.9080    9.0720 C.ar  102  TRP102      0.0810
     73  CE3       -4.0110   10.0890    7.5220 C.ar  102  TRP102      0.0012
     74  CZ2       -2.4810    8.5760    9.3550 C.ar  102  TRP102      0.0191
     75  CZ3       -4.3210    8.7560    7.8020 C.ar  102  TRP102      0.0001
     76  CH2       -3.5560    8.0190    8.7150 C.ar  102  TRP102      0.0015
     77  N         -4.7580   12.6190    4.6750 N.am  103  PHE103     -0.1960
     78  CA        -6.1030   12.9420    4.2360 C.3   103  PHE103      0.1756
     79  C         -6.0860   13.9570    3.0930 C.2   103  PHE103      0.2461
     80  O         -6.6220   15.0500    3.2260 O.2   103  PHE103     -0.2730
     81  CB        -6.9640   13.4950    5.3840 C.3   103  PHE103      0.0574
     82  CG        -7.2470   12.5450    6.5490 C.ar  103  PHE103     -0.0200
     83  CD1       -7.8700   13.0460    7.6880 C.ar  103  PHE103     -0.0042
     84  CD2       -6.9250   11.2050    6.5360 C.ar  103  PHE103     -0.0042
     85  CE1       -8.1520   12.2330    8.7710 C.ar  103  PHE103     -0.0003
     86  CE2       -7.1840   10.3920    7.6260 C.ar  103  PHE103     -0.0003
     87  CZ        -7.7990   10.9010    8.7480 C.ar  103  PHE103     -0.0000
     88  N         -5.4770   13.5880    1.9680 N.am  104  PRO104     -0.2716
     89  CA        -5.2820   14.5050    0.8550 C.3   104  PRO104      0.1536
     90  C         -6.5400   15.3170    0.4910 C.2   104  PRO104      0.2598
     91  O         -6.4280   16.5200    0.2380 O.2   104  PRO104     -0.2715
     92  CB        -4.8880   13.5860   -0.2970 C.3   104  PRO104      0.0310
     93  CG        -4.4180   12.3020    0.3150 C.3   104  PRO104      0.0237
     94  CD        -4.7790   12.3050    1.7700 C.3   104  PRO104      0.0939
     95  N         -7.6990   14.6710    0.4210 N.am  105  GLN105     -0.1964
     96  CA        -8.9320   15.3380   -0.0680 C.3   105  GLN105      0.1733
     97  C         -9.3850   16.3690    0.9400 C.2   105  GLN105      0.2616
     98  O         -9.9370   17.3890    0.5740 O.2   105  GLN105     -0.2715
     99  CB       -10.0620   14.3740   -0.4040 C.3   105  GLN105      0.0408
    100  CG       -10.8500   13.7890    0.7590 C.3   105  GLN105      0.0908
    101  CD       -10.1300   12.7000    1.5670 C.2   105  GLN105      0.2608
    102  OE1       -9.0410   12.2620    1.2280 O.2   105  GLN105     -0.2717
    103  NE2      -10.7270   12.3090    2.6990 N.am  105  GLN105     -0.0878
    104  N         -9.0920   16.1690    2.2200 N.am  106  VAL106     -0.1977
    105  CA        -9.4290   17.2040    3.1920 C.3   106  VAL106      0.1596
    106  C         -8.6670   18.5060    2.8810 C.2   106  VAL106      0.2287
    107  O         -9.2520   19.6320    2.8320 O.2   106  VAL106     -0.2864
    108  CB        -9.1130   16.7850    4.6380 C.3   106  VAL106      0.0276
    109  CG1       -9.5610   17.8470    5.6200 C.3   106  VAL106      0.0022
    110  CG2       -9.8630   15.5280    4.9950 C.3   106  VAL106      0.0022
    111  N        -15.7420   15.7260    2.3770 N.3   145  SER145     -0.1217
    112  CA       -14.6590   14.7570    2.3600 C.3   145  SER145      0.1889
    113  C        -15.0890   13.3740    1.9400 C.2   145  SER145      0.2288
    114  O        -14.4140   12.7180    1.2010 O.2   145  SER145     -0.2866
    115  CB       -14.1360   14.5890    3.7530 C.3   145  SER145      0.2089
    116  OG       -13.0100   13.7570    3.7440 O.3   145  SER145     -0.2183
    117  N        -13.3620   11.6630   -1.2710 N.3   149  TYR149     -0.1241
    118  CA       -12.7230   10.3770   -0.9750 C.3   149  TYR149      0.1605
    119  C        -13.2550    9.2560   -1.8420 C.2   149  TYR149      0.2264
    120  O        -12.5070    8.4900   -2.4300 O.2   149  TYR149     -0.2867
    121  CB       -12.9740    9.9900    0.4750 C.3   149  TYR149      0.0534
    122  CG       -12.3070    8.7160    0.9290 C.ar  149  TYR149     -0.0201
    123  CD1      -10.9410    8.6780    1.1670 C.ar  149  TYR149     -0.0009
    124  CD2      -13.0420    7.5610    1.1350 C.ar  149  TYR149     -0.0009
    125  CE1      -10.3030    7.5290    1.6060 C.ar  149  TYR149      0.0417
    126  CE2      -12.4300    6.3900    1.5810 C.ar  149  TYR149      0.0417
    127  CZ       -11.0560    6.3890    1.8120 C.ar  149  TYR149      0.1957
    128  OH       -10.4400    5.2420    2.2620 O.3   149  TYR149     -0.2866
    129  N         -2.9230   18.2610   10.5650 N.3   189  TYR189     -0.1241
    130  CA        -4.3130   17.8560   10.5180 C.3   189  TYR189      0.1605
    131  C         -5.0060   18.1000   11.8640 C.2   189  TYR189      0.2264
    132  O         -6.0840   18.7140   11.9100 O.2   189  TYR189     -0.2867
    133  CB        -4.4430   16.3970   10.1030 C.3   189  TYR189      0.0534
    134  CG        -5.8800   15.9700   10.1850 C.ar  189  TYR189     -0.0201
    135  CD1       -6.7980   16.4250    9.2370 C.ar  189  TYR189     -0.0009
    136  CD2       -6.3530   15.1510   11.2230 C.ar  189  TYR189     -0.0009
    137  CE1       -8.1360   16.0570    9.3060 C.ar  189  TYR189      0.0417
    138  CE2       -7.6870   14.7760   11.3020 C.ar  189  TYR189      0.0417
    139  CZ        -8.5700   15.2400   10.3410 C.ar  189  TYR189      0.1957
    140  OH        -9.9050   14.9250   10.3630 O.3   189  TYR189     -0.2866
    141  N        -17.1900   13.9260    7.1420 N.3   215  HIS215     -0.1241
    142  CA       -16.9830   12.6340    6.5670 C.3   215  HIS215      0.1621
    143  C        -17.5780   11.5550    7.5080 C.2   215  HIS215      0.2264
    144  O        -16.8880   10.9740    8.3750 O.2   215  HIS215     -0.2867
    145  CB       -15.4910   12.4860    6.3810 C.3   215  HIS215      0.0745
    146  CG       -15.1040   11.2710    5.5890 C.ar  215  HIS215      0.0817
    147  ND1      -14.1820   11.3050    4.5710 N.ar  215  HIS215     -0.2268
    148  CD2      -15.5100    9.9810    5.6770 C.ar  215  HIS215      0.1154
    149  CE1      -14.0710   10.0970    4.0380 C.ar  215  HIS215      0.1986
    150  NE2      -14.8390    9.2680    4.7210 N.ar  215  HIS215     -0.2212
    151  N        -17.0810    9.8210   11.0700 N.3   218  TYR218     -0.1227
    152  CA       -16.1180   10.4020   11.9440 C.3   218  TYR218      0.1736
    153  C        -16.5970   11.7220   12.4700 C.2   218  TYR218      0.2595
    154  O        -17.5250   12.3210   11.9700 O.2   218  TYR218     -0.2718
    155  CB       -14.7810   10.5170   11.2310 C.3   218  TYR218      0.0548
    156  CG       -14.3350    9.1680   10.7110 C.ar  218  TYR218     -0.0200
    157  CD1      -14.4030    8.8970    9.3530 C.ar  218  TYR218     -0.0009
    158  CD2      -13.9550    8.1430   11.5760 C.ar  218  TYR218     -0.0009
    159  CE1      -14.0350    7.6790    8.8540 C.ar  218  TYR218      0.0417
    160  CE2      -13.5560    6.9030   11.0970 C.ar  218  TYR218      0.0417
    161  CZ       -13.6180    6.6930    9.7310 C.ar  218  TYR218      0.1957
    162  OH       -13.3150    5.5210    9.1180 O.3   218  TYR218     -0.2866
    163  N        -15.9540   12.1520   13.5370 N.am  219  LYS219     -0.1966
    164  CA       -16.1800   13.4210   14.1590 C.3   219  LYS219      0.1728
    165  C        -14.8440   14.0900   14.2180 C.2   219  LYS219      0.2616
    166  O        -13.9620   13.5960   14.9140 O.2   219  LYS219     -0.2715
    167  CB       -16.5860   13.2160   15.6080 C.3   219  LYS219      0.0311
    168  CG       -17.7800   12.2980   15.7630 C.3   219  LYS219      0.0038
    169  CD       -18.4900   12.4970   17.0910 C.3   219  LYS219      0.0206
    170  CE       -19.9870   12.6380   16.8830 C.3   219  LYS219      0.1093
    171  NZ       -20.6630   11.3170   17.0030 N.3   219  LYS219     -0.1314
    172  N        -14.7370   15.2580   13.5910 N.am  220  ASN220     -0.1972
    173  CA       -13.4460   15.8770   13.3160 C.3   220  ASN220      0.1688
    174  C        -13.2900   17.2940   13.7500 C.2   220  ASN220      0.2292
    175  O        -12.3480   17.5810   14.4850 O.2   220  ASN220     -0.2864
    176  CB       -13.1370   15.8640   11.8090 C.3   220  ASN220      0.1181
    177  CG       -13.2060   14.4880   11.2040 C.2   220  ASN220      0.2629
    178  OD1      -12.5350   13.5720   11.6770 O.2   220  ASN220     -0.2716
    179  ND2      -13.9290   14.3560   10.0970 N.am  220  ASN220     -0.0877
@<TRIPOS>BOND
     1    45    44    2
     2    42    43    1
     3    44    43    1
     4    44    52   am
     5    46    43    1
     6    46    47    1
     7    53    54    1
     8    53    52    1
     9    53    56    1
    10    49    47   ar
    11    49    51   ar
    12    54    55    2
    13    52    58    1
    14    47    48   ar
    15   120   119    2
    16   119   118    1
    17    56    57    1
    18    51    50   ar
    19    58    57    1
    20    48    50   ar
    21   117   118    1
    22   118   121    1
    23    26    24   ar
    24    26    25   ar
    25    24    22   ar
    26    99    96    1
    27    99   100    1
    28    92    93    1
    29    92    89    1
    30    96    95    1
    31    96    97    1
    32    25    23   ar
    33    91    90    2
    34    93    94    1
    35    95    90   am
    36   121   122    1
    37    90    89    1
    38    17    18    1
    39    98    97    2
    40    22    23   ar
    41    22    21    1
    42   100   101    1
    43    89    88    1
    44    15    14    2
    45   122   124   ar
    46   122   123   ar
    47    97   104   am
    48   124   126   ar
    49   123   125   ar
    50   114   113    2
    51   102   101    2
    52    21    18    1
    53   101   103   am
    54   126   127   ar
    55   125   127   ar
    56    18    19    1
    57    94    88    1
    58    12    11    2
    59   127   128    1
    60    14    13    1
    61    14    16   am
    62   113   112    1
    63    88    79   am
    64   104   105    1
    65    13    10    1
    66   112   111    1
    67   112   115    1
    68    59    60    1
    69    11    10    1
    70    19    27   am
    71    19    20    2
    72   107   106    2
    73   106   105    1
    74    27    28    1
    75    79    80    2
    76    79    78    1
    77    10     9    1
    78   105   108    1
    79    31    28    1
    80    31    32    1
    81    62    61    2
    82     9     3   am
    83   116   115    1
    84    60    61    1
    85    28    29    1
    86   149   147   ar
    87   149   150   ar
    88     1     2    1
    89    78    77    1
    90    78    81    1
    91    61    63   am
    92   147   146   ar
    93   108   110    1
    94   108   109    1
    95    77    65   am
    96   150   148   ar
    97    66    65    2
    98     3     2    1
    99     3     4    2
   100    65    64    1
   101    30    29    2
   102    29    33   am
   103     2     5    1
   104    63    64    1
   105    81    82    1
   106   146   148   ar
   107   146   145    1
   108    64    67    1
   109   145   142    1
   110    33    34    1
   111     5     6    1
   112    84    82   ar
   113    84    86   ar
   114    82    83   ar
   115   142   141    1
   116   142   143    1
   117     8     6   ar
   118     6     7   ar
   119    67    68    1
   120   143   144    2
   121    73    75   ar
   122    73    70   ar
   123    34    35    1
   124    34    37    1
   125    86    87   ar
   126    83    85   ar
   127    35    36    2
   128    75    76   ar
   129    68    70   ar
   130    68    69   ar
   131    70    72   ar
   132    76    74   ar
   133    87    85   ar
   134    37    38    1
   135   159   157   ar
   136   159   161   ar
   137    39    38    1
   138    39    40    1
   139    69    71   ar
   140    72    74   ar
   141    72    71   ar
   142   162   161    1
   143   135   137   ar
   144   135   134   ar
   145   137   139   ar
   146   157   156   ar
   147   161   160   ar
   148    40    41    1
   149   179   177   am
   150   133   134    1
   151   133   130    1
   152   134   136   ar
   153   139   140    1
   154   139   138   ar
   155   130   129    1
   156   130   131    1
   157   156   155    1
   158   156   158   ar
   159   151   152    1
   160   160   158   ar
   161   177   178    2
   162   177   176    1
   163   136   138   ar
   164   155   152    1
   165   176   173    1
   166   131   132    2
   167   152   153    1
   168   154   153    2
   169   153   163   am
   170   173   172    1
   171   173   174    1
   172   163   164    1
   173   172   165   am
   174   174   175    2
   175   164   165    1
   176   164   167    1
   177   165   166    2
   178   167   168    1
   179   168   169    1
   180   170   171    1
   181   170   169    1
