@<TRIPOS>MOLECULE
tmp/4nv3B00.pdb
 92 85 0 0 0
SMALL
GASTEIGER

@<TRIPOS>ATOM
      1  N        -24.6460   -0.1430  -52.1900 N.3    18  LEU18      -0.1245
      2  CA       -23.8940   -1.3220  -52.6030 C.3    18  LEU18       0.1561
      3  C        -24.8190   -2.4230  -53.1340 C.2    18  LEU18       0.2260
      4  O        -24.5170   -3.0650  -54.1420 O.2    18  LEU18      -0.2867
      5  CB       -23.0630   -1.8490  -51.4290 C.3    18  LEU18       0.0270
      6  CG       -22.0010   -0.8660  -50.9160 C.3    18  LEU18       0.0019
      7  CD1      -21.5170   -1.2300  -49.5100 C.3    18  LEU18       0.0001
      8  CD2      -20.8340   -0.7870  -51.8810 C.3    18  LEU18       0.0001
      9  N        -25.3110   -8.6630  -48.2520 N.3    78  THR78      -0.1203
     10  CA       -24.3920   -7.6980  -48.8370 C.3    78  THR78       0.1994
     11  C        -23.0970   -7.5540  -48.0210 C.2    78  THR78       0.2618
     12  O        -21.9990   -7.6270  -48.5660 O.2    78  THR78      -0.2717
     13  CB       -25.0830   -6.3390  -49.0110 C.3    78  THR78       0.1784
     14  OG1      -26.1950   -6.4840  -49.9040 O.3    78  THR78      -0.2211
     15  CG2      -24.1030   -5.2850  -49.5320 C.3    78  THR78       0.0376
     16  N        -23.2200   -7.3240  -46.7170 N.am   79  LEU79      -0.1965
     17  CA       -22.0580   -6.9940  -45.8940 C.3    79  LEU79       0.1728
     18  C        -21.5360   -8.1640  -45.0930 C.2    79  LEU79       0.2616
     19  O        -22.3070   -8.9350  -44.5130 O.2    79  LEU79      -0.2715
     20  CB       -22.4060   -5.8860  -44.9080 C.3    79  LEU79       0.0311
     21  CG       -22.8010   -4.5440  -45.5230 C.3    79  LEU79       0.0022
     22  CD1      -23.1480   -3.5900  -44.3900 C.3    79  LEU79       0.0001
     23  CD2      -21.6750   -3.9640  -46.3650 C.3    79  LEU79       0.0001
     24  N        -20.2140   -8.2350  -44.9690 N.am   80  SER80      -0.1950
     25  CA       -19.6050   -9.1610  -44.0200 C.3    80  SER80       0.1924
     26  C        -20.1240   -8.9510  -42.5970 C.2    80  SER80       0.2314
     27  O        -20.3440   -9.9200  -41.8730 O.2    80  SER80      -0.2863
     28  CB       -18.0840   -9.0460  -44.0250 C.3    80  SER80       0.2116
     29  OG       -17.5250   -9.4910  -45.2440 O.3    80  SER80      -0.2180
     30  N        -20.3270  -10.9070  -51.9990 N.3   101  SER101     -0.1217
     31  CA       -19.6360   -9.6420  -51.7530 C.3   101  SER101      0.1889
     32  C        -19.0650   -9.5710  -50.3570 C.2   101  SER101      0.2288
     33  O        -18.8550   -8.4770  -49.8370 O.2   101  SER101     -0.2866
     34  CB       -20.6260   -8.4800  -51.8940 C.3   101  SER101      0.2089
     35  OG       -21.7580   -8.6720  -51.0450 O.3   101  SER101     -0.2183
     36  N        -16.1070  -10.0460  -48.1310 N.3   103  THR103     -0.1218
     37  CA       -14.6790  -10.2020  -48.3690 C.3   103  THR103      0.1862
     38  C        -13.8310  -10.1540  -47.1000 C.2   103  THR103      0.2287
     39  O        -12.6060  -10.2500  -47.1690 O.2   103  THR103     -0.2866
     40  CB       -14.1880   -9.1790  -49.4070 C.3   103  THR103      0.1770
     41  OG1      -14.3980   -7.8550  -48.9040 O.3   103  THR103     -0.2211
     42  CG2      -14.9510   -9.3460  -50.7100 C.3   103  THR103      0.0375
     43  N        -17.5170   -1.4690  -38.7180 N.3   150  ASP150     -0.1239
     44  CA       -17.8600   -2.3850  -39.7990 C.3   150  ASP150      0.1674
     45  C        -16.8220   -3.5010  -39.9140 C.2   150  ASP150      0.2266
     46  O        -15.6180   -3.2340  -40.0460 O.2   150  ASP150     -0.2867
     47  CB       -17.9870   -1.6220  -41.1140 C.3   150  ASP150      0.1410
     48  CG       -18.2460   -2.5470  -42.2790 C.2   150  ASP150      0.3668
     49  OD1      -19.3820   -3.0680  -42.3910 O.co2 150  ASP150     -0.2456
     50  OD2      -17.3010   -2.7820  -43.0680 O.co2 150  ASP150     -0.2456
     51  N        -16.0060   -5.7840  -42.2260 N.3   152  PHE152     -0.1241
     52  CA       -15.1750   -5.8020  -43.4160 C.3   152  PHE152      0.1605
     53  C        -14.1390   -4.6780  -43.4110 C.2   152  PHE152      0.2264
     54  O        -12.9880   -4.9010  -43.7920 O.2   152  PHE152     -0.2867
     55  CB       -16.0350   -5.7600  -44.6820 C.3   152  PHE152      0.0534
     56  CG       -15.4380   -4.9470  -45.7910 C.ar  152  PHE152     -0.0203
     57  CD1      -14.4900   -5.4820  -46.6480 C.ar  152  PHE152     -0.0042
     58  CD2      -15.8150   -3.6280  -45.9570 C.ar  152  PHE152     -0.0042
     59  CE1      -13.9310   -4.7190  -47.6530 C.ar  152  PHE152     -0.0003
     60  CE2      -15.2630   -2.8600  -46.9510 C.ar  152  PHE152     -0.0003
     61  CZ       -14.3170   -3.4080  -47.8040 C.ar  152  PHE152     -0.0000
     62  N        -17.7030    2.1520  -46.2140 N.3   204  LEU204     -0.1245
     63  CA       -18.7060    1.8400  -47.2210 C.3   204  LEU204      0.1561
     64  C        -18.8850    3.0440  -48.1580 C.2   204  LEU204      0.2260
     65  O        -17.9970    3.8910  -48.2530 O.2   204  LEU204     -0.2867
     66  CB       -19.9940    1.3080  -46.5700 C.3   204  LEU204      0.0270
     67  CG       -19.7550    0.1100  -45.6250 C.3   204  LEU204      0.0019
     68  CD1      -21.0620   -0.3490  -45.0190 C.3   204  LEU204      0.0001
     69  CD2      -19.0380   -1.0600  -46.3080 C.3   204  LEU204      0.0001
     70  N        -13.1320   -1.8090  -51.0490 N.3   228  ASP228     -0.1225
     71  CA       -14.2590   -2.4200  -51.7510 C.3   228  ASP228      0.1805
     72  C        -15.5740   -1.6930  -51.4710 C.2   228  ASP228      0.2598
     73  O        -16.4880   -1.7280  -52.2900 O.2   228  ASP228     -0.2718
     74  CB       -14.3860   -3.8910  -51.3620 C.3   228  ASP228      0.1424
     75  CG       -15.0890   -4.7380  -52.4190 C.2   228  ASP228      0.3668
     76  OD1      -14.7490   -4.6250  -53.6220 O.co2 228  ASP228     -0.2456
     77  OD2      -15.9510   -5.5640  -52.0210 O.co2 228  ASP228     -0.2456
     78  N        -15.6760   -1.0410  -50.3140 N.am  229  GLY229     -0.1957
     79  CA       -16.8990   -0.3460  -49.9650 C.3   229  GLY229      0.1869
     80  C        -17.1720    0.8950  -50.7850 C.2   229  GLY229      0.2309
     81  O        -18.2970    1.3750  -50.7990 O.2   229  GLY229     -0.2863
     82  N        -19.8000   -5.6050  -58.3930 N.3   279  PHE279     -0.1241
     83  CA       -20.8240   -6.2040  -57.5450 C.3   279  PHE279      0.1605
     84  C        -21.9190   -6.8760  -58.3600 C.2   279  PHE279      0.2264
     85  O        -22.4920   -7.8760  -57.9180 O.2   279  PHE279     -0.2867
     86  CB       -21.4120   -5.1800  -56.5770 C.3   279  PHE279      0.0534
     87  CG       -20.4590   -4.7710  -55.4900 C.ar  279  PHE279     -0.0203
     88  CD1      -19.7770   -5.7310  -54.7440 C.ar  279  PHE279     -0.0042
     89  CD2      -20.2230   -3.4380  -55.2170 C.ar  279  PHE279     -0.0042
     90  CE1      -18.8860   -5.3600  -53.7420 C.ar  279  PHE279     -0.0003
     91  CE2      -19.3240   -3.0670  -54.2150 C.ar  279  PHE279     -0.0003
     92  CZ       -18.6620   -4.0340  -53.4880 C.ar  279  PHE279     -0.0000
@<TRIPOS>BOND
     1    82    83    1
     2    84    85    2
     3    84    83    1
     4    83    86    1
     5    86    87    1
     6    87    89   ar
     7    87    88   ar
     8    89    91   ar
     9    88    90   ar
    10    91    92   ar
    11     4     3    2
    12    90    92   ar
    13    76    75   ar
    14     3     2    1
    15     2     1    1
    16     2     5    1
    17    75    77   ar
    18    75    74    1
    19    73    72    2
    20    30    31    1
    21    34    31    1
    22    34    35    1
    23     8     6    1
    24    31    32    1
    25    71    72    1
    26    71    74    1
    27    71    70    1
    28    72    78   am
    29     5     6    1
    30     6     7    1
    31    81    80    2
    32    80    79    1
    33    42    40    1
    34    32    33    2
    35    78    79    1
    36    14    13    1
    37    15    13    1
    38    40    41    1
    39    40    37    1
    40    13    10    1
    41    10     9    1
    42    10    11    1
    43    12    11    2
    44    37    36    1
    45    37    38    1
    46    65    64    2
    47    64    63    1
    48    11    16   am
    49    61    59   ar
    50    61    60   ar
    51    59    57   ar
    52    63    66    1
    53    63    62    1
    54    39    38    2
    55    60    58   ar
    56    16    17    1
    57    57    56   ar
    58    66    67    1
    59    23    21    1
    60    69    67    1
    61    58    56   ar
    62    17    18    1
    63    17    20    1
    64    56    55    1
    65    67    68    1
    66    21    20    1
    67    21    22    1
    68    29    28    1
    69    18    24   am
    70    18    19    2
    71    24    25    1
    72    55    52    1
    73    28    25    1
    74    25    26    1
    75    54    53    2
    76    52    53    1
    77    52    51    1
    78    50    48   ar
    79    26    27    2
    80    49    48   ar
    81    48    47    1
    82    47    44    1
    83    46    45    2
    84    45    44    1
    85    44    43    1
