@<TRIPOS>MOLECULE
tmp/4nv4A00.pdb
 87 86 0 0 0
SMALL
GASTEIGER

@<TRIPOS>ATOM
      1  N         42.9470   56.1500   19.0030 N.3    66  GLY66      -0.1225
      2  CA        43.1860   56.9510   20.1930 C.3    66  GLY66       0.1811
      3  C         42.1520   56.6900   21.2580 C.2    66  GLY66       0.2280
      4  O         40.9750   56.4220   20.9470 O.2    66  GLY66      -0.2866
      5  N         39.3340   57.2630   24.0000 N.3    68  PHE68      -0.1241
      6  CA        38.2890   58.2300   24.2780 C.3    68  PHE68       0.1605
      7  C         37.1040   57.5620   24.9100 C.2    68  PHE68       0.2264
      8  O         36.8800   56.4090   24.7150 O.2    68  PHE68      -0.2867
      9  CB        37.8250   58.9780   23.0200 C.3    68  PHE68       0.0534
     10  CG        37.0510   58.1160   22.0230 C.ar   68  PHE68      -0.0203
     11  CD1       37.7170   57.4170   21.0420 C.ar   68  PHE68      -0.0042
     12  CD2       35.6760   58.0190   22.0830 C.ar   68  PHE68      -0.0042
     13  CE1       37.0450   56.6840   20.1000 C.ar   68  PHE68      -0.0003
     14  CE2       34.9840   57.2330   21.1540 C.ar   68  PHE68      -0.0003
     15  CZ        35.6690   56.5670   20.1700 C.ar   68  PHE68      -0.0000
     16  N         34.0340   63.1510   23.5170 N.3    73  LEU73      -0.1245
     17  CA        34.0310   63.6290   22.1400 C.3    73  LEU73       0.1561
     18  C         32.7190   64.2550   21.7560 C.2    73  LEU73       0.2260
     19  O         32.7160   65.2550   21.0590 O.2    73  LEU73      -0.2867
     20  CB        34.3710   62.5310   21.1340 C.3    73  LEU73       0.0270
     21  CG        35.7180   61.8670   21.2850 C.3    73  LEU73       0.0019
     22  CD1       35.8790   60.8280   20.1890 C.3    73  LEU73       0.0001
     23  CD2       36.8400   62.8950   21.2390 C.3    73  LEU73       0.0001
     24  N         41.7400   53.7800   10.8730 N.3    91  ARG91      -0.1231
     25  CA        41.5710   54.7150   11.9820 C.3    91  ARG91       0.1694
     26  C         42.4080   55.9650   11.9670 C.2    91  ARG91       0.2592
     27  O         41.9040   57.0400   12.2770 O.2    91  ARG91      -0.2718
     28  CB        41.7500   53.9890   13.3210 C.3    91  ARG91       0.0321
     29  CG        40.7960   52.8060   13.5610 C.3    91  ARG91       0.0489
     30  CD        39.4180   53.2670   13.8250 C.3    91  ARG91       0.2205
     31  NE        38.3820   52.2120   13.7140 N.pl3  91  ARG91      -0.0865
     32  CZ        37.8690   51.5210   14.7340 C.cat  91  ARG91       0.5346
     33  NH1       38.3700   51.6530   15.9510 N.pl3  91  ARG91       0.1354
     34  NH2       36.8440   50.6500   14.5270 N.pl3  91  ARG91       0.1354
     35  N         43.6710   55.8460   11.6580 N.am   92  LEU92      -0.1966
     36  CA        44.5560   57.0280   11.6930 C.3    92  LEU92       0.1728
     37  C         44.3570   57.9760   10.4990 C.2    92  LEU92       0.2617
     38  O         44.8440   59.0800   10.5220 O.2    92  LEU92      -0.2715
     39  CB        46.0040   56.6020   11.8130 C.3    92  LEU92       0.0311
     40  CG        46.3730   55.9200   13.1390 C.3    92  LEU92       0.0022
     41  CD1       47.7360   55.2650   13.0580 C.3    92  LEU92       0.0001
     42  CD2       46.3340   56.9020   14.3080 C.3    92  LEU92       0.0001
     43  N         43.6420   57.5390    9.4770 N.am   93  GLY93      -0.1940
     44  CA        43.4030   58.3320    8.2680 C.3    93  GLY93       0.2014
     45  C         41.9350   58.5600    7.9720 C.2    93  GLY93       0.2640
     46  O         41.5670   58.9310    6.8570 O.2    93  GLY93      -0.2714
     47  N         41.0800   58.3610    8.9700 N.am   94  SER94      -0.1935
     48  CA        39.6490   58.4700    8.7720 C.3    94  SER94       0.2055
     49  C         39.0170   59.6170    9.5090 C.2    94  SER94       0.2643
     50  O         39.1770   59.7320   10.7330 O.2    94  SER94      -0.2714
     51  CB        39.0220   57.1740    9.3180 C.3    94  SER94       0.2130
     52  OG        37.5720   57.1820    9.4080 O.3    94  SER94      -0.2179
     53  N         38.2360   60.4050    8.7880 N.am   95  TRP95      -0.1973
     54  CA        37.3720   61.3950    9.3940 C.3    95  TRP95       0.1640
     55  C         36.0800   60.6510    9.6480 C.2    95  TRP95       0.2290
     56  O         35.5120   60.0620    8.7260 O.2    95  TRP95      -0.2864
     57  CB        37.0930   62.5520    8.4400 C.3    95  TRP95       0.0576
     58  CG        38.2570   63.3600    8.1840 C.ar   95  TRP95       0.0006
     59  CD1       39.0530   63.3330    7.0800 C.ar   95  TRP95       0.0946
     60  CD2       38.7780   64.3710    9.0380 C.ar   95  TRP95       0.0152
     61  NE1       40.0600   64.2640    7.1990 N.ar   95  TRP95      -0.2442
     62  CE2       39.9150   64.9140    8.3970 C.ar   95  TRP95       0.0810
     63  CE3       38.4070   64.8650   10.2940 C.ar   95  TRP95       0.0012
     64  CZ2       40.6750   65.9250    8.9660 C.ar   95  TRP95       0.0191
     65  CZ3       39.1670   65.8750   10.8600 C.ar   95  TRP95       0.0001
     66  CH2       40.2850   66.3970   10.1950 C.ar   95  TRP95       0.0015
     67  N         34.1190   60.3460   15.4250 N.3    98  ARG98      -0.1231
     68  CA        35.0230   60.8630   16.4290 C.3    98  ARG98       0.1694
     69  C         35.2900   62.3310   16.2070 C.2    98  ARG98       0.2592
     70  O         35.7140   63.0390   17.1320 O.2    98  ARG98      -0.2718
     71  CB        36.3330   60.1100   16.4050 C.3    98  ARG98       0.0321
     72  CG        36.1970   58.6660   16.7910 C.3    98  ARG98       0.0489
     73  CD        37.5400   57.9630   16.6290 C.3    98  ARG98       0.2205
     74  NE        37.9150   57.8710   15.2230 N.pl3  98  ARG98      -0.0865
     75  CZ        39.1300   57.5390   14.7710 C.cat  98  ARG98       0.5346
     76  NH1       40.1590   57.3390   15.6010 N.pl3  98  ARG98       0.1354
     77  NH2       39.3330   57.4630   13.4680 N.pl3  98  ARG98       0.1354
     78  N         35.0640   62.7830   14.9720 N.am   99  HIS99      -0.1976
     79  CA        35.3400   64.1400   14.6040 C.3    99  HIS99       0.1656
     80  C         34.0830   64.9600   14.3360 C.2    99  HIS99       0.2291
     81  O         34.0540   66.1570   14.6840 O.2    99  HIS99      -0.2864
     82  CB        36.2290   64.1580   13.3610 C.3    99  HIS99       0.0771
     83  CG        37.3760   63.2210   13.4590 C.ar   99  HIS99       0.0820
     84  ND1       37.3190   61.9360   12.9730 N.ar   99  HIS99      -0.2267
     85  CD2       38.5810   63.3470   14.0570 C.ar   99  HIS99       0.1154
     86  CE1       38.4500   61.3110   13.2420 C.ar   99  HIS99       0.1986
     87  NE2       39.2320   62.1400   13.9120 N.ar   99  HIS99      -0.2212
@<TRIPOS>BOND
     1    46    45    2
     2    59    61   ar
     3    59    58   ar
     4    61    62   ar
     5    45    44    1
     6    45    47   am
     7    58    57    1
     8    58    60   ar
     9    44    43    1
    10    62    64   ar
    11    62    60   ar
    12    57    54    1
    13    56    55    2
    14    48    47    1
    15    48    51    1
    16    48    49    1
    17    53    54    1
    18    53    49   am
    19    64    66   ar
    20    60    63   ar
    21    51    52    1
    22    54    55    1
    23    43    37   am
    24    49    50    2
    25    66    65   ar
    26    63    65   ar
    27    37    38    2
    28    37    36    1
    29    24    25    1
    30    35    36    1
    31    35    26   am
    32    36    39    1
    33    39    40    1
    34    26    25    1
    35    26    27    2
    36    25    28    1
    37    84    86   ar
    38    84    83   ar
    39    41    40    1
    40    40    42    1
    41    86    87   ar
    42    28    29    1
    43    82    83    1
    44    82    79    1
    45    83    85   ar
    46    77    75    1
    47    29    30    1
    48    31    30    1
    49    31    32    2
    50    87    85   ar
    51    80    79    1
    52    80    81    2
    53    34    32    1
    54    79    78    1
    55    32    33    1
    56    75    74    2
    57    75    76    1
    58    78    69   am
    59    74    73    1
    60    67    68    1
    61    69    68    1
    62    69    70    2
    63    71    68    1
    64    71    72    1
    65    73    72    1
    66     1     2    1
    67    13    15   ar
    68    13    11   ar
    69    15    14   ar
    70    22    21    1
    71     2     3    1
    72     4     3    2
    73    11    10   ar
    74    19    18    2
    75    20    21    1
    76    20    17    1
    77    14    12   ar
    78    23    21    1
    79    18    17    1
    80    10    12   ar
    81    10     9    1
    82    17    16    1
    83     9     6    1
    84     5     6    1
    85     6     7    1
    86     8     7    2
