@<TRIPOS>MOLECULE
tmp/4nvgA01.pdb
 136 133 0 0 0
SMALL
GASTEIGER

@<TRIPOS>ATOM
      1  N         16.2080    6.2050    0.6280 N.3   172  HIS172     -0.1226
      2  CA        16.8180    5.0560   -0.0360 C.3   172  HIS172      0.1752
      3  C         18.2070    5.4060   -0.5700 C.2   172  HIS172      0.2596
      4  O         18.8590    4.5650   -1.1300 O.2   172  HIS172     -0.2718
      5  CB        15.9300    4.4620   -1.1300 C.3   172  HIS172      0.0759
      6  CG        14.8510    3.5610   -0.6210 C.ar  172  HIS172      0.0818
      7  ND1       13.9160    3.0060   -1.4550 N.ar  172  HIS172     -0.2268
      8  CD2       14.5570    3.1220    0.6250 C.ar  172  HIS172      0.1154
      9  CE1       13.0860    2.2700   -0.7470 C.ar  172  HIS172      0.1986
     10  NE2       13.4610    2.3020    0.5200 N.ar  172  HIS172     -0.2212
     11  N         18.6990    6.6280   -0.3890 N.am  173  ALA173     -0.1966
     12  CA        20.1530    6.8060   -0.4700 C.3   173  ALA173      0.1728
     13  C         20.9200    6.0540    0.6210 C.2   173  ALA173      0.2616
     14  O         22.1340    5.8890    0.4910 O.2   173  ALA173     -0.2715
     15  CB        20.5340    8.3040   -0.3740 C.3   173  ALA173      0.0334
     16  N         20.2620    5.6840    1.7170 N.am  174  LEU174     -0.1963
     17  CA        20.9310    5.0590    2.8720 C.3   174  LEU174      0.1728
     18  C         20.9700    3.5330    2.7560 C.2   174  LEU174      0.2617
     19  O         20.0210    2.9370    2.2860 O.2   174  LEU174     -0.2715
     20  CB        20.1660    5.4120    4.1740 C.3   174  LEU174      0.0311
     21  CG        19.9950    6.9180    4.4440 C.3   174  LEU174      0.0022
     22  CD1       18.9520    7.1770    5.5620 C.3   174  LEU174      0.0001
     23  CD2       21.3350    7.5230    4.7850 C.3   174  LEU174      0.0001
     24  N         22.0430    2.9170    3.2470 N.am  175  GLY175     -0.1940
     25  CA        22.0180    1.4440    3.4670 C.3   175  GLY175      0.2014
     26  C         21.9380    0.6480    2.1800 C.2   175  GLY175      0.2639
     27  O         22.4320    1.0770    1.1490 O.2   175  GLY175     -0.2714
     28  N         21.3310   -0.5330    2.2450 N.am  176  LYS176     -0.1963
     29  CA        21.2860   -1.4220    1.0980 C.3   176  LYS176      0.1728
     30  C         20.1850   -2.4490    1.2570 C.2   176  LYS176      0.2616
     31  O         19.6060   -2.5930    2.3380 O.2   176  LYS176     -0.2715
     32  CB        22.6490   -2.1240    0.9250 C.3   176  LYS176      0.0311
     33  CG        23.1270   -2.9320    2.1310 C.3   176  LYS176      0.0038
     34  CD        24.4460   -3.6970    1.8300 C.3   176  LYS176      0.0206
     35  CE        24.9600   -4.4360    3.0660 C.3   176  LYS176      0.1093
     36  NZ        26.4220   -4.8610    3.0250 N.3   176  LYS176     -0.1314
     37  N         19.8970   -3.1560    0.1630 N.am  177  THR177     -0.1951
     38  CA        18.9850   -4.2800    0.1760 C.3   177  THR177      0.1897
     39  C         19.8290   -5.5320    0.4840 C.2   177  THR177      0.2313
     40  O         21.0240   -5.5730    0.1890 O.2   177  THR177     -0.2863
     41  CB        18.2160   -4.4360   -1.1930 C.3   177  THR177      0.1794
     42  OG1       19.1510   -4.5560   -2.2710 O.3   177  THR177     -0.2208
     43  CG2       17.3100   -3.2040   -1.4970 C.3   177  THR177      0.0378
     44  N         23.2860   -3.0500   -3.7840 N.3   187  GLY187     -0.1210
     45  CA        24.2390   -2.3650   -4.6020 C.3   187  GLY187      0.1956
     46  C         25.0700   -1.4470   -3.7150 C.2   187  GLY187      0.2612
     47  O         25.1180   -1.6590   -2.4920 O.2   187  GLY187     -0.2717
     48  N         25.7700   -0.5050   -4.3370 N.am  188  GLY188     -0.1942
     49  CA        26.5520    0.4820   -3.6210 C.3   188  GLY188      0.2014
     50  C         25.7260    1.1270   -2.5450 C.2   188  GLY188      0.2639
     51  O         24.5580    1.4450   -2.7730 O.2   188  GLY188     -0.2714
     52  N         26.3400    1.3890   -1.4080 N.am  189  ALA189     -0.1963
     53  CA        25.6460    1.8260   -0.1950 C.3   189  ALA189      0.1728
     54  C         26.4420    2.9250    0.4890 C.2   189  ALA189      0.2616
     55  O         27.6540    2.9350    0.4560 O.2   189  ALA189     -0.2715
     56  CB        25.4570    0.6600    0.7590 C.3   189  ALA189      0.0334
     57  N         25.7320    3.8100    1.1460 N.am  190  ASN190     -0.1972
     58  CA        26.2940    4.8950    1.9090 C.3   190  ASN190      0.1688
     59  C         25.5460    5.0610    3.2190 C.2   190  ASN190      0.2292
     60  O         24.4300    4.5570    3.4080 O.2   190  ASN190     -0.2864
     61  CB        26.2960    6.2060    1.1280 C.3   190  ASN190      0.1181
     62  CG        27.4030    7.1850    1.6030 C.2   190  ASN190      0.2629
     63  OD1       28.3670    6.8610    2.4070 O.2   190  ASN190     -0.2716
     64  ND2       27.3060    8.3900    1.0820 N.am  190  ASN190     -0.0877
     65  N         21.5160   11.9990   -2.9350 N.3   196  GLU196     -0.1231
     66  CA        22.0860   11.2190   -4.0240 C.3   196  GLU196      0.1699
     67  C         21.1170   10.1500   -4.5750 C.2   196  GLU196      0.2592
     68  O         21.3000    9.6870   -5.6850 O.2   196  GLU196     -0.2718
     69  CB        23.4530   10.6450   -3.6290 C.3   196  GLU196      0.0402
     70  CG        24.5350   11.7520   -3.6720 C.3   196  GLU196      0.1161
     71  CD        25.8770   11.3420   -3.0690 C.2   196  GLU196      0.3649
     72  OE1       26.4750   12.1610   -2.3360 O.co2 196  GLU196     -0.2457
     73  OE2       26.3210   10.1950   -3.3150 O.co2 196  GLU196     -0.2457
     74  N         20.0370    9.8500   -3.8650 N.am  197  PHE197     -0.1976
     75  CA        18.9870    8.9880   -4.4260 C.3   197  PHE197      0.1639
     76  C         18.4870    9.5800   -5.7400 C.2   197  PHE197      0.2290
     77  O         18.4420    8.9380   -6.7670 O.2   197  PHE197     -0.2864
     78  CB        17.8620    8.7870   -3.4230 C.3   197  PHE197      0.0560
     79  CG        16.6840    8.0270   -3.9500 C.ar  197  PHE197     -0.0200
     80  CD1       16.7010    6.6670   -4.0140 C.ar  197  PHE197     -0.0042
     81  CD2       15.5170    8.6680   -4.2720 C.ar  197  PHE197     -0.0042
     82  CE1       15.6340    5.9970   -4.4780 C.ar  197  PHE197     -0.0003
     83  CE2       14.4320    8.0320   -4.7350 C.ar  197  PHE197     -0.0003
     84  CZ        14.4790    6.6140   -4.8100 C.ar  197  PHE197     -0.0000
     85  N         21.2510    9.8310   -8.5650 N.3   200  ASN200     -0.1240
     86  CA        21.4710    8.4890   -9.1060 C.3   200  ASN200      0.1653
     87  C         20.3400    8.0660  -10.0440 C.2   200  ASN200      0.2266
     88  O         20.5910    7.5710  -11.1620 O.2   200  ASN200     -0.2867
     89  CB        21.6580    7.4210   -8.0160 C.3   200  ASN200      0.1155
     90  CG        23.0140    7.5210   -7.3060 C.2   200  ASN200      0.2627
     91  OD1       23.8760    8.3210   -7.6820 O.2   200  ASN200     -0.2716
     92  ND2       23.1830    6.7310   -6.2500 N.am  200  ASN200     -0.0877
     93  N         25.0070    0.5500   -8.5570 N.3   224  TYR224     -0.1227
     94  CA        23.8740    0.9930   -7.7350 C.3   224  TYR224      0.1736
     95  C         22.6720    0.1900   -8.1760 C.2   224  TYR224      0.2595
     96  O         22.6970   -0.3630   -9.2630 O.2   224  TYR224     -0.2718
     97  CB        23.5690    2.4750   -7.9490 C.3   224  TYR224      0.0548
     98  CG        24.6670    3.3870   -7.4820 C.ar  224  TYR224     -0.0200
     99  CD1       25.2860    4.2610   -8.3660 C.ar  224  TYR224     -0.0009
    100  CD2       25.0920    3.3800   -6.1570 C.ar  224  TYR224     -0.0009
    101  CE1       26.3100    5.1040   -7.9480 C.ar  224  TYR224      0.0417
    102  CE2       26.1170    4.2220   -5.7300 C.ar  224  TYR224      0.0417
    103  CZ        26.7140    5.0780   -6.6320 C.ar  224  TYR224      0.1957
    104  OH        27.7290    5.9200   -6.2420 O.3   224  TYR224     -0.2866
    105  N         21.6300    0.1530   -7.3500 N.am  225  MET225     -0.1965
    106  CA        20.3890   -0.5170   -7.7000 C.3   225  MET225      0.1736
    107  C         19.2360    0.3310   -7.2910 C.2   225  MET225      0.2616
    108  O         19.3720    1.1590   -6.3950 O.2   225  MET225     -0.2715
    109  CB        20.2330   -1.8970   -7.0580 C.3   225  MET225      0.0427
    110  CG        20.0280   -1.9350   -5.5480 C.3   225  MET225      0.0599
    111  SD        18.3210   -1.7250   -5.0410 S.3   225  MET225     -0.1393
    112  CE        17.5540   -3.2720   -5.5190 C.3   225  MET225      0.0692
    113  N         18.0910    0.0710   -7.9060 N.am  226  MET226     -0.1963
    114  CA        16.8510    0.7450   -7.5660 C.3   226  MET226      0.1736
    115  C         15.7880   -0.2990   -7.6160 C.2   226  MET226      0.2616
    116  O         15.7640   -1.0690   -8.5500 O.2   226  MET226     -0.2715
    117  CB        16.5090    1.7910   -8.5780 C.3   226  MET226      0.0427
    118  CG        17.3970    3.0290   -8.5300 C.3   226  MET226      0.0599
    119  SD        16.9820    4.0460   -7.1030 S.3   226  MET226     -0.1393
    120  CE        18.3590    5.2280   -7.1000 C.3   226  MET226      0.0692
    121  N         14.8900   -0.2710   -6.6300 N.am  227  LEU227     -0.1977
    122  CA        13.6590   -1.0750   -6.6340 C.3   227  LEU227      0.1596
    123  C         12.7230   -0.6290   -7.7440 C.2   227  LEU227      0.2287
    124  O         12.7640    0.5580   -8.1570 O.2   227  LEU227     -0.2864
    125  CB        12.9200   -0.9490   -5.2930 C.3   227  LEU227      0.0297
    126  CG        13.7410   -1.2760   -4.0490 C.3   227  LEU227      0.0022
    127  CD1       13.1050   -0.9100   -2.7100 C.3   227  LEU227      0.0001
    128  CD2       14.1420   -2.7920   -4.0550 C.3   227  LEU227      0.0001
    129  N         11.1660    2.3930   -6.5710 N.3   230  ASP230     -0.1239
    130  CA        12.0950    3.5290   -6.6690 C.3   230  ASP230      0.1674
    131  C         12.0770    4.1520   -8.0810 C.2   230  ASP230      0.2266
    132  O         11.9230    5.3870   -8.3050 O.2   230  ASP230     -0.2867
    133  CB        13.5390    3.0700   -6.3940 C.3   230  ASP230      0.1410
    134  CG        13.8080    2.7110   -4.9440 C.2   230  ASP230      0.3668
    135  OD1       13.1400    3.1870   -4.0120 O.co2 230  ASP230     -0.2456
    136  OD2       14.7880    1.9690   -4.7320 O.co2 230  ASP230     -0.2456
@<TRIPOS>BOND
     1    88    87    2
     2    87    86    1
     3    96    95    2
     4    86    85    1
     5    86    89    1
     6   117   118    1
     7   117   114    1
     8    93    94    1
     9   116   115    2
    10   118   119    1
    11    99   101   ar
    12    99    98   ar
    13   132   131    2
    14    95    94    1
    15    95   105   am
    16   124   123    2
    17   131   130    1
    18    89    90    1
    19    97    94    1
    20    97    98    1
    21   101   103   ar
    22   113   114    1
    23   113   107   am
    24   123   122    1
    25   106   105    1
    26   106   107    1
    27   106   109    1
    28    91    90    2
    29   115   114    1
    30   115   121   am
    31    98   100   ar
    32    90    92   am
    33   107   108    2
    34   119   120    1
    35   109   110    1
    36    77    76    2
    37   130   129    1
    38   130   133    1
    39   122   121    1
    40   122   125    1
    41   103   104    1
    42   103   102   ar
    43   133   134    1
    44   100   102   ar
    45    76    75    1
    46    68    67    2
    47   110   111    1
    48   112   111    1
    49   125   126    1
    50   134   136   ar
    51   134   135   ar
    52    84    83   ar
    53    84    82   ar
    54    83    81   ar
    55    45    44    1
    56    45    46    1
    57    67    66    1
    58    67    74   am
    59    82    80   ar
    60    75    74    1
    61    75    78    1
    62    48    46   am
    63    48    49    1
    64    81    79   ar
    65   128   126    1
    66   126   127    1
    67    66    69    1
    68    66    65    1
    69    80    79   ar
    70    79    78    1
    71    46    47    2
    72    70    69    1
    73    70    71    1
    74    49    50    1
    75    73    71   ar
    76    71    72   ar
    77    51    50    2
    78    50    52   am
    79    42    41    1
    80    43    41    1
    81     7     9   ar
    82     7     6   ar
    83    52    53    1
    84    41    38    1
    85     5     6    1
    86     5     2    1
    87     4     3    2
    88     9    10   ar
    89     6     8   ar
    90     3    11   am
    91     3     2    1
    92    12    11    1
    93    12    15    1
    94    12    13    1
    95    53    54    1
    96    53    56    1
    97     2     1    1
    98    37    38    1
    99    37    30   am
   100    38    39    1
   101    40    39    2
   102    55    54    2
   103    54    57   am
   104    14    13    2
   105    10     8   ar
   106    13    16   am
   107    32    29    1
   108    32    33    1
   109    64    62   am
   110    29    30    1
   111    29    28    1
   112    61    62    1
   113    61    58    1
   114    57    58    1
   115    27    26    2
   116    30    31    2
   117    62    63    2
   118    16    17    1
   119    34    33    1
   120    34    35    1
   121    58    59    1
   122    26    28   am
   123    26    25    1
   124    19    18    2
   125    18    17    1
   126    18    24   am
   127    17    20    1
   128    36    35    1
   129    59    60    2
   130    24    25    1
   131    20    21    1
   132    21    23    1
   133    21    22    1
