@<TRIPOS>MOLECULE
tmp/4nvhA01.pdb
 119 116 0 0 0
SMALL
GASTEIGER

@<TRIPOS>ATOM
      1  N        -15.1060    7.4330    1.5360 N.3   172  HIS172     -0.1226
      2  CA       -15.7210    6.4570    2.4190 C.3   172  HIS172      0.1752
      3  C        -17.1100    6.8440    2.8540 C.2   172  HIS172      0.2596
      4  O        -17.7340    6.1510    3.6730 O.2   172  HIS172     -0.2718
      5  CB       -14.8190    6.1440    3.6100 C.3   172  HIS172      0.0759
      6  CG       -13.7740    5.0930    3.3120 C.ar  172  HIS172      0.0818
      7  ND1      -12.8550    4.7080    4.2110 N.ar  172  HIS172     -0.2268
      8  CD2      -13.5290    4.3520    2.1620 C.ar  172  HIS172      0.1154
      9  CE1      -12.0630    3.7700    3.6680 C.ar  172  HIS172      0.1986
     10  NE2      -12.4790    3.5490    2.4150 N.ar  172  HIS172     -0.2212
     11  N        -17.6360    7.9250    2.2970 N.am  173  ALA173     -0.1966
     12  CA       -19.0620    8.2100    2.4140 C.3   173  ALA173      0.1728
     13  C        -19.8410    7.2430    1.5180 C.2   173  ALA173      0.2616
     14  O        -21.0410    7.0440    1.6910 O.2   173  ALA173     -0.2715
     15  CB       -19.3530    9.6450    2.0060 C.3   173  ALA173      0.0334
     16  N        -19.1430    6.6490    0.5560 N.am  174  LEU174     -0.1963
     17  CA       -19.7830    5.8260   -0.4870 C.3   174  LEU174      0.1728
     18  C        -19.7820    4.3670   -0.0990 C.2   174  LEU174      0.2617
     19  O        -18.7950    3.8110    0.4220 O.2   174  LEU174     -0.2715
     20  CB       -18.9810    5.9310   -1.7680 C.3   174  LEU174      0.0311
     21  CG       -18.8660    7.3090   -2.3830 C.3   174  LEU174      0.0022
     22  CD1      -17.8140    7.2190   -3.4930 C.3   174  LEU174      0.0001
     23  CD2      -20.2220    7.8690   -2.8510 C.3   174  LEU174      0.0001
     24  N        -20.8840    3.6600   -0.4090 N.am  175  GLY175     -0.1940
     25  CA       -20.8570    2.2140   -0.3450 C.3   175  GLY175      0.2014
     26  C        -20.6850    1.7010    1.0810 C.2   175  GLY175      0.2639
     27  O        -21.0930    2.3250    2.0730 O.2   175  GLY175     -0.2714
     28  N        -20.1000    0.5110    1.1870 N.am  176  LYS176     -0.1963
     29  CA       -20.0490   -0.1620    2.4810 C.3   176  LYS176      0.1728
     30  C        -18.9620   -1.1950    2.4930 C.2   176  LYS176      0.2616
     31  O        -18.3920   -1.5530    1.4600 O.2   176  LYS176     -0.2715
     32  CB       -21.3860   -0.8570    2.8050 C.3   176  LYS176      0.0311
     33  CG       -21.7150   -1.9900    1.8680 C.3   176  LYS176      0.0038
     34  CD       -23.1080   -2.6080    2.1650 C.3   176  LYS176      0.0206
     35  CE       -23.1090   -3.3720    3.4990 C.3   176  LYS176      0.1093
     36  NZ       -22.4880   -4.7860    3.5500 N.3   176  LYS176     -0.1314
     37  N        -18.6740   -1.6700    3.6990 N.am  177  THR177     -0.1951
     38  CA       -17.8300   -2.8200    3.8680 C.3   177  THR177      0.1897
     39  C        -18.6460   -4.0960    3.8230 C.2   177  THR177      0.2313
     40  O        -19.8330   -4.0720    4.1520 O.2   177  THR177     -0.2863
     41  CB       -16.9970   -2.7410    5.1880 C.3   177  THR177      0.1794
     42  OG1      -17.8760   -2.8350    6.3030 O.3   177  THR177     -0.2208
     43  CG2      -16.2390   -1.4300    5.3120 C.3   177  THR177      0.0378
     44  N        -22.3960   -0.8400    7.5000 N.3   187  GLY187     -0.1210
     45  CA       -23.3570   -0.0090    8.1580 C.3   187  GLY187      0.1956
     46  C        -24.1700    0.7260    7.1020 C.2   187  GLY187      0.2612
     47  O        -24.2030    0.2850    5.9410 O.2   187  GLY187     -0.2717
     48  N        -24.8730    1.7720    7.5220 N.am  188  GLY188     -0.1942
     49  CA       -25.6400    2.6070    6.6210 C.3   188  GLY188      0.2014
     50  C        -24.7960    3.0330    5.4540 C.2   188  GLY188      0.2638
     51  O        -23.6290    3.3850    5.6340 O.2   188  GLY188     -0.2714
     52  N        -25.3920    3.0760    4.2790 N.am  189  ALA189     -0.1977
     53  CA       -24.6810    3.2720    3.0160 C.3   189  ALA189      0.1597
     54  C        -25.4620    4.2230    2.1240 C.2   189  ALA189      0.2287
     55  O        -26.6730    4.2430    2.1380 O.2   189  ALA189     -0.2864
     56  CB       -24.4850    1.9450    2.3030 C.3   189  ALA189      0.0319
     57  N        -18.9970   11.9040    5.1840 N.3   197  PHE197     -0.1241
     58  CA       -18.0550   11.1250    5.9910 C.3   197  PHE197      0.1605
     59  C        -17.5320   11.9440    7.1590 C.2   197  PHE197      0.2264
     60  O        -17.4210   11.4910    8.2870 O.2   197  PHE197     -0.2867
     61  CB       -16.8940   10.7130    5.0690 C.3   197  PHE197      0.0534
     62  CG       -15.7500   10.0370    5.7580 C.ar  197  PHE197     -0.0203
     63  CD1      -15.7950    8.6810    6.1230 C.ar  197  PHE197     -0.0042
     64  CD2      -14.5780   10.7410    5.9450 C.ar  197  PHE197     -0.0042
     65  CE1      -14.6780    8.0370    6.6650 C.ar  197  PHE197     -0.0003
     66  CE2      -13.4380   10.0730    6.4830 C.ar  197  PHE197     -0.0003
     67  CZ       -13.5220    8.7290    6.8570 C.ar  197  PHE197     -0.0000
     68  N        -20.2870   12.7770    9.7430 N.3   200  ASN200     -0.1240
     69  CA       -20.5870   11.5910   10.5440 C.3   200  ASN200      0.1653
     70  C        -19.4680   11.3370   11.5620 C.2   200  ASN200      0.2266
     71  O        -19.7120   11.0730   12.7290 O.2   200  ASN200     -0.2867
     72  CB       -20.8110   10.4000    9.6910 C.3   200  ASN200      0.1155
     73  CG       -22.1360   10.5090    8.9260 C.2   200  ASN200      0.2627
     74  OD1      -23.0300   11.2080    9.3470 O.2   200  ASN200     -0.2716
     75  ND2      -22.2250    9.8410    7.8460 N.am  200  ASN200     -0.0877
     76  N        -24.1800    3.7330   11.0660 N.3   224  TYR224     -0.1227
     77  CA       -22.9190    3.9820   10.3290 C.3   224  TYR224      0.1736
     78  C        -21.8190    3.1600   10.9780 C.2   224  TYR224      0.2595
     79  O        -21.9440    2.6940   12.1090 O.2   224  TYR224     -0.2718
     80  CB       -22.5600    5.4620   10.3490 C.3   224  TYR224      0.0548
     81  CG       -23.5650    6.3290    9.6570 C.ar  224  TYR224     -0.0200
     82  CD1      -24.4720    7.1120   10.3880 C.ar  224  TYR224     -0.0009
     83  CD2      -23.5840    6.4310    8.2460 C.ar  224  TYR224     -0.0009
     84  CE1      -25.4320    7.9190    9.7340 C.ar  224  TYR224      0.0417
     85  CE2      -24.5040    7.2350    7.5750 C.ar  224  TYR224      0.0417
     86  CZ       -25.4200    7.9870    8.3170 C.ar  224  TYR224      0.1957
     87  OH       -26.3330    8.7390    7.6310 O.3   224  TYR224     -0.2866
     88  N        -20.7130    3.0310   10.2620 N.am  225  MET225     -0.1965
     89  CA       -19.5140    2.4410   10.8230 C.3   225  MET225      0.1736
     90  C        -18.3030    3.2260   10.3430 C.2   225  MET225      0.2616
     91  O        -18.3530    3.9050    9.3230 O.2   225  MET225     -0.2715
     92  CB       -19.3890    0.9630   10.4390 C.3   225  MET225      0.0427
     93  CG       -19.2230    0.7010    8.9490 C.3   225  MET225      0.0599
     94  SD       -17.5230    0.8770    8.3690 S.3   225  MET225     -0.1393
     95  CE       -16.7310   -0.5080    9.1800 C.3   225  MET225      0.0692
     96  N        -17.2280    3.1390   11.1090 N.am  226  MET226     -0.1963
     97  CA       -15.9160    3.6560   10.7130 C.3   226  MET226      0.1736
     98  C        -14.8900    2.5780   10.9160 C.2   226  MET226      0.2616
     99  O        -14.8730    1.9150   11.9720 O.2   226  MET226     -0.2715
    100  CB       -15.5560    4.9210   11.5410 C.3   226  MET226      0.0427
    101  CG       -16.4680    6.1030   11.2670 C.3   226  MET226      0.0599
    102  SD       -16.0740    6.8710    9.6700 S.3   226  MET226     -0.1393
    103  CE       -17.4670    7.9690    9.5310 C.3   226  MET226      0.0692
    104  N        -13.9850    2.4050    9.9580 N.am  227  LEU227     -0.1977
    105  CA       -12.8370    1.5680   10.1460 C.3   227  LEU227      0.1596
    106  C        -11.9350    2.2120   11.1810 C.2   227  LEU227      0.2287
    107  O        -11.9500    3.4350   11.3740 O.2   227  LEU227     -0.2864
    108  CB       -12.0420    1.4500    8.8420 C.3   227  LEU227      0.0297
    109  CG       -12.8500    0.8320    7.6860 C.3   227  LEU227      0.0022
    110  CD1      -12.0720    1.1260    6.3750 C.3   227  LEU227      0.0001
    111  CD2      -13.0200   -0.6490    7.8920 C.3   227  LEU227      0.0001
    112  N        -10.3270    5.0220    9.4840 N.3   230  ASP230     -0.1239
    113  CA       -11.2130    6.2090    9.3500 C.3   230  ASP230      0.1674
    114  C        -11.2410    7.0000   10.6480 C.2   230  ASP230      0.2266
    115  O        -11.1030    8.2240   10.6520 O.2   230  ASP230     -0.2867
    116  CB       -12.6450    5.7050    9.0890 C.3   230  ASP230      0.1410
    117  CG       -12.8930    5.0880    7.7640 C.2   230  ASP230      0.3668
    118  OD1      -12.2040    5.4250    6.7740 O.co2 230  ASP230     -0.2456
    119  OD2      -13.8600    4.2490    7.7130 O.co2 230  ASP230     -0.2456
@<TRIPOS>BOND
     1    22    21    1
     2    23    21    1
     3    21    20    1
     4    20    17    1
     5    17    18    1
     6    17    16    1
     7    24    25    1
     8    24    18   am
     9    25    26    1
    10    18    19    2
    11    16    13   am
    12    26    28   am
    13    26    27    2
    14    28    29    1
    15    31    30    2
    16    13    14    2
    17    13    12    1
    18     1     2    1
    19    33    34    1
    20    33    32    1
    21    15    12    1
    22    54    55    2
    23    54    53    1
    24     8    10   ar
    25     8     6   ar
    26    34    35    1
    27    11    12    1
    28    11     3   am
    29    56    53    1
    30    10     9   ar
    31     2     3    1
    32     2     5    1
    33    29    30    1
    34    29    32    1
    35    30    37   am
    36     3     4    2
    37    53    52    1
    38     6     5    1
    39     6     7   ar
    40    35    36    1
    41     9     7   ar
    42    37    38    1
    43    39    38    1
    44    39    40    2
    45    38    41    1
    46    52    50   am
    47    61    62    1
    48    61    58    1
    49    57    58    1
    50    41    43    1
    51    41    42    1
    52    50    51    2
    53    50    49    1
    54    62    64   ar
    55    62    63   ar
    56    47    46    2
    57    64    66   ar
    58    58    59    1
    59    63    65   ar
    60   110   109    1
    61    66    67   ar
    62    49    48    1
    63    65    67   ar
    64   118   117   ar
    65    46    48   am
    66    46    45    1
    67    59    60    2
    68    44    45    1
    69    85    83   ar
    70    85    86   ar
    71    87    86    1
    72   109   111    1
    73   109   108    1
    74   119   117   ar
    75   117   116    1
    76    75    73   am
    77    83    81   ar
    78    86    84   ar
    79    94    93    1
    80    94    95    1
    81   108   105    1
    82    73    74    2
    83    73    72    1
    84    93    92    1
    85   116   113    1
    86    91    90    2
    87   113   112    1
    88   113   114    1
    89   103   102    1
    90    81    80    1
    91    81    82   ar
    92   102   101    1
    93    72    69    1
    94    84    82   ar
    95    68    69    1
    96   104   105    1
    97   104    98   am
    98   105   106    1
    99    88    89    1
   100    88    78   am
   101    77    80    1
   102    77    78    1
   103    77    76    1
   104    90    89    1
   105    90    96   am
   106    92    89    1
   107    69    70    1
   108   114   115    2
   109    97    98    1
   110    97    96    1
   111    97   100    1
   112    98    99    2
   113    78    79    2
   114   106   107    2
   115   101   100    1
   116    70    71    2
