@<TRIPOS>MOLECULE
tmp/4nviA01.pdb
 115 112 0 0 0
SMALL
GASTEIGER

@<TRIPOS>ATOM
      1  N         15.8710    7.0420   -0.3850 N.3   172  HIS172     -0.1226
      2  CA        16.4750    5.9620   -1.1350 C.3   172  HIS172      0.1752
      3  C         17.8600    6.3120   -1.5810 C.2   172  HIS172      0.2596
      4  O         18.4930    5.5620   -2.3460 O.2   172  HIS172     -0.2718
      5  CB        15.6060    5.5500   -2.3140 C.3   172  HIS172      0.0759
      6  CG        14.5300    4.5600   -1.9470 C.ar  172  HIS172      0.0818
      7  ND1       13.6030    4.1380   -2.8230 N.ar  172  HIS172     -0.2268
      8  CD2       14.2600    3.9110   -0.7470 C.ar  172  HIS172      0.1154
      9  CE1       12.7820    3.2650   -2.2170 C.ar  172  HIS172      0.1986
     10  NE2       13.1860    3.1280   -0.9470 N.ar  172  HIS172     -0.2212
     11  N         18.3630    7.4400   -1.1010 N.am  173  ALA173     -0.1966
     12  CA        19.7690    7.7520   -1.2650 C.3   173  ALA173      0.1728
     13  C         20.5470    6.8800   -0.2920 C.2   173  ALA173      0.2616
     14  O         21.7570    6.7310   -0.4140 O.2   173  ALA173     -0.2715
     15  CB        20.0350    9.2170   -0.9780 C.3   173  ALA173      0.0334
     16  N         19.8330    6.3070    0.6720 N.am  174  LEU174     -0.1963
     17  CA        20.4570    5.5830    1.7750 C.3   174  LEU174      0.1728
     18  C         20.4720    4.1150    1.5320 C.2   174  LEU174      0.2617
     19  O         19.4790    3.5470    1.1220 O.2   174  LEU174     -0.2715
     20  CB        19.7040    5.8150    3.0710 C.3   174  LEU174      0.0311
     21  CG        19.5670    7.2580    3.5250 C.3   174  LEU174      0.0022
     22  CD1       18.4990    7.3460    4.6800 C.3   174  LEU174      0.0001
     23  CD2       20.9180    7.8440    3.8960 C.3   174  LEU174      0.0001
     24  N         21.5740    3.4450    1.8660 N.am  175  GLY175     -0.1940
     25  CA        21.4990    2.0140    1.8770 C.3   175  GLY175      0.2014
     26  C         21.3260    1.4000    0.4920 C.2   175  GLY175      0.2639
     27  O         21.7040    1.9670   -0.5560 O.2   175  GLY175     -0.2714
     28  N         20.7170    0.2160    0.4970 N.am  176  LYS176     -0.1963
     29  CA        20.6740   -0.6440   -0.6850 C.3   176  LYS176      0.1728
     30  C         19.5250   -1.6200   -0.6080 C.2   176  LYS176      0.2616
     31  O         18.9290   -1.8350    0.4510 O.2   176  LYS176     -0.2715
     32  CB        22.0010   -1.4120   -0.8220 C.3   176  LYS176      0.0311
     33  CG        22.1500   -2.5470    0.1460 C.3   176  LYS176      0.0038
     34  CD        23.4630   -3.2810   -0.0290 C.3   176  LYS176      0.0206
     35  CE        23.6500   -3.8490   -1.4330 C.3   176  LYS176      0.1093
     36  NZ        22.8960   -5.1140   -1.7360 N.3   176  LYS176     -0.1314
     37  N         19.2500   -2.2380   -1.7560 N.am  177  THR177     -0.1951
     38  CA        18.3960   -3.3940   -1.8120 C.3   177  THR177      0.1897
     39  C         19.3040   -4.6440   -1.6710 C.2   177  THR177      0.2313
     40  O         20.5100   -4.5960   -1.9440 O.2   177  THR177     -0.2863
     41  CB        17.5670   -3.4510   -3.1250 C.3   177  THR177      0.1794
     42  OG1       18.4300   -3.6470   -4.2290 O.3   177  THR177     -0.2208
     43  CG2       16.8060   -2.1430   -3.3250 C.3   177  THR177      0.0378
     44  N         25.3920    0.6700   -6.0100 N.3   188  GLY188     -0.1210
     45  CA        26.1760    1.5820   -5.2040 C.3   188  GLY188      0.1956
     46  C         25.3510    2.1270   -4.0730 C.2   188  GLY188      0.2611
     47  O         24.1840    2.4680   -4.2720 O.2   188  GLY188     -0.2717
     48  N         25.9620    2.2790   -2.9160 N.am  189  ALA189     -0.1979
     49  CA        25.2690    2.6030   -1.6680 C.3   189  ALA189      0.1597
     50  C         26.0670    3.6300   -0.8830 C.2   189  ALA189      0.2287
     51  O         27.2790    3.6390   -0.9140 O.2   189  ALA189     -0.2864
     52  CB        25.0740    1.3520   -0.8280 C.3   189  ALA189      0.0319
     53  N         19.7420   10.9290   -4.5130 N.3   197  PHE197     -0.1241
     54  CA        18.7260   10.1190   -5.1770 C.3   197  PHE197      0.1605
     55  C         18.2090   10.8230   -6.4340 C.2   197  PHE197      0.2264
     56  O         18.0820   10.2010   -7.4840 O.2   197  PHE197     -0.2867
     57  CB        17.5770    9.8250   -4.2040 C.3   197  PHE197      0.0534
     58  CG        16.4060    9.1010   -4.8150 C.ar  197  PHE197     -0.0203
     59  CD1       16.4600    7.7420   -5.0650 C.ar  197  PHE197     -0.0042
     60  CD2       15.2350    9.7780   -5.0890 C.ar  197  PHE197     -0.0042
     61  CE1       15.3720    7.0790   -5.5990 C.ar  197  PHE197     -0.0003
     62  CE2       14.1430    9.1220   -5.6200 C.ar  197  PHE197     -0.0003
     63  CZ        14.2110    7.7710   -5.8750 C.ar  197  PHE197     -0.0000
     64  N         20.9310   11.2330   -9.1500 N.3   200  ASN200     -0.1240
     65  CA        21.1510    9.9570   -9.8060 C.3   200  ASN200      0.1653
     66  C         20.0590    9.6690  -10.8460 C.2   200  ASN200      0.2266
     67  O         20.3220    9.2620  -11.9890 O.2   200  ASN200     -0.2867
     68  CB        21.2280    8.8050   -8.8430 C.3   200  ASN200      0.1155
     69  CG        22.3970    8.8360   -7.9370 C.2   200  ASN200      0.2627
     70  OD1       23.4530    9.4350   -8.2270 O.2   200  ASN200     -0.2716
     71  ND2       22.2510    8.0960   -6.8450 N.am  200  ASN200     -0.0877
     72  N         24.6430    2.0230  -10.2770 N.3   224  TYR224     -0.1227
     73  CA        23.5060    2.3230   -9.3880 C.3   224  TYR224      0.1736
     74  C         22.2970    1.5420   -9.8750 C.2   224  TYR224      0.2595
     75  O         22.2970    0.9660  -10.9840 O.2   224  TYR224     -0.2718
     76  CB        23.1520    3.8100   -9.3780 C.3   224  TYR224      0.0548
     77  CG        24.2220    4.7390   -8.8520 C.ar  224  TYR224     -0.0200
     78  CD1       24.9860    5.4840   -9.7240 C.ar  224  TYR224     -0.0009
     79  CD2       24.4110    4.8990   -7.4860 C.ar  224  TYR224     -0.0009
     80  CE1       25.9800    6.3470   -9.2660 C.ar  224  TYR224      0.0417
     81  CE2       25.3970    5.7590   -7.0000 C.ar  224  TYR224      0.0417
     82  CZ        26.1740    6.4780   -7.9040 C.ar  224  TYR224      0.1957
     83  OH        27.1610    7.3380   -7.4660 O.3   224  TYR224     -0.2866
     84  N         21.2620    1.5140   -9.0520 N.am  225  MET225     -0.1965
     85  CA        19.9950    0.9220   -9.4650 C.3   225  MET225      0.1736
     86  C         18.8590    1.8210   -9.0480 C.2   225  MET225      0.2616
     87  O         18.9920    2.6020   -8.1250 O.2   225  MET225     -0.2715
     88  CB        19.7640   -0.5120   -8.9060 C.3   225  MET225      0.0427
     89  CG        19.6950   -0.6430   -7.4010 C.3   225  MET225      0.0599
     90  SD        18.1170   -0.2320   -6.6530 S.3   225  MET225     -0.1393
     91  CE        17.2190   -1.7280   -7.0810 C.3   225  MET225      0.0692
     92  N         17.7300    1.6610   -9.7120 N.am  226  MET226     -0.1963
     93  CA        16.4420    2.2160   -9.2810 C.3   226  MET226      0.1736
     94  C         15.3960    1.1280   -9.3370 C.2   226  MET226      0.2616
     95  O         15.3130    0.3850  -10.3040 O.2   226  MET226     -0.2715
     96  CB        16.0070    3.3860  -10.1750 C.3   226  MET226      0.0427
     97  CG        16.9510    4.6040  -10.0600 C.3   226  MET226      0.0599
     98  SD        16.6040    5.5340   -8.5350 S.3   226  MET226     -0.1393
     99  CE        18.0800    6.5680   -8.4530 C.3   226  MET226      0.0692
    100  N         14.5320    1.0820   -8.3580 N.am  227  LEU227     -0.1977
    101  CA        13.2760    0.2810   -8.4050 C.3   227  LEU227      0.1596
    102  C         12.3730    0.8710   -9.4710 C.2   227  LEU227      0.2287
    103  O         12.4150    2.0760   -9.7870 O.2   227  LEU227     -0.2864
    104  CB        12.5300    0.3750   -7.0540 C.3   227  LEU227      0.0297
    105  CG        13.3510   -0.1370   -5.8940 C.3   227  LEU227      0.0022
    106  CD1       12.6300    0.2410   -4.6050 C.3   227  LEU227      0.0001
    107  CD2       13.5060   -1.6540   -5.9640 C.3   227  LEU227      0.0001
    108  N         10.8470    3.8250   -7.9910 N.3   230  ASP230     -0.1239
    109  CA        11.7430    4.9930   -7.9850 C.3   230  ASP230      0.1674
    110  C         11.7450    5.7200   -9.3580 C.2   230  ASP230      0.2266
    111  O         11.6400    6.9610   -9.5060 O.2   230  ASP230     -0.2867
    112  CB        13.1990    4.5890   -7.7100 C.3   230  ASP230      0.1410
    113  CG        13.4560    4.0010   -6.3700 C.2   230  ASP230      0.3668
    114  OD1       12.8590    4.4330   -5.3930 O.co2 230  ASP230     -0.2456
    115  OD2       14.3830    3.1300   -6.2740 O.co2 230  ASP230     -0.2456
@<TRIPOS>BOND
     1    67    66    2
     2    75    74    2
     3    66    65    1
     4    95    94    2
     5    72    73    1
     6    96    97    1
     7    96    93    1
     8    97    98    1
     9    74    73    1
    10    74    84   am
    11    65    64    1
    12    65    68    1
    13   103   102    2
    14    78    80   ar
    15    78    77   ar
    16    92    93    1
    17    92    86   am
    18   111   110    2
    19   102   101    1
    20    85    84    1
    21    85    86    1
    22    85    88    1
    23    73    76    1
    24    76    77    1
    25   110   109    1
    26    94    93    1
    27    94   100   am
    28    80    82   ar
    29    86    87    2
    30    88    89    1
    31    77    79   ar
    32    68    69    1
    33    98    99    1
    34   101   100    1
    35   101   104    1
    36    70    69    2
    37   108   109    1
    38   109   112    1
    39    69    71   am
    40    82    83    1
    41    82    81   ar
    42   112   113    1
    43    79    81   ar
    44    56    55    2
    45    89    90    1
    46    91    90    1
    47   104   105    1
    48    55    54    1
    49   113   115   ar
    50   113   114   ar
    51    44    45    1
    52   107   105    1
    53   105   106    1
    54    63    62   ar
    55    63    61   ar
    56    62    60   ar
    57    61    59   ar
    58    45    46    1
    59    54    53    1
    60    54    57    1
    61    60    58   ar
    62    59    58   ar
    63    58    57    1
    64    47    46    2
    65    42    41    1
    66    46    48   am
    67    43    41    1
    68    41    38    1
    69    48    49    1
    70     7     9   ar
    71     7     6   ar
    72     4     3    2
    73     5     6    1
    74     5     2    1
    75     9    10   ar
    76     6     8   ar
    77    40    39    2
    78    38    37    1
    79    38    39    1
    80    37    30   am
    81    36    35    1
    82    49    50    1
    83    49    52    1
    84     3     2    1
    85     3    11   am
    86    35    34    1
    87    12    11    1
    88    12    15    1
    89    12    13    1
    90     2     1    1
    91    10     8   ar
    92    51    50    2
    93    32    29    1
    94    32    33    1
    95    29    30    1
    96    29    28    1
    97    30    31    2
    98    27    26    2
    99    14    13    2
   100    13    16   am
   101    34    33    1
   102    26    28   am
   103    26    25    1
   104    16    17    1
   105    19    18    2
   106    18    17    1
   107    18    24   am
   108    17    20    1
   109    24    25    1
   110    20    21    1
   111    21    23    1
   112    21    22    1
