@<TRIPOS>MOLECULE
tmp/4nvjA01.pdb
 150 148 0 0 0
SMALL
GASTEIGER

@<TRIPOS>ATOM
      1  N         16.1850    6.7000    0.0500 N.3   172  HIS172     -0.1226
      2  CA        16.7620    5.5410   -0.6820 C.3   172  HIS172      0.1752
      3  C         18.1740    5.8140   -1.2000 C.2   172  HIS172      0.2596
      4  O         18.7800    4.9400   -1.8100 O.2   172  HIS172     -0.2718
      5  CB        15.8220    5.0280   -1.8100 C.3   172  HIS172      0.0759
      6  CG        14.7630    4.1220   -1.2800 C.ar  172  HIS172      0.0818
      7  ND1       13.7870    3.5550   -2.0610 N.ar  172  HIS172     -0.2268
      8  CD2       14.5770    3.6360   -0.0330 C.ar  172  HIS172      0.1154
      9  CE1       13.0280    2.7740   -1.3140 C.ar  172  HIS172      0.1986
     10  NE2       13.4830    2.8080   -0.0770 N.ar  172  HIS172     -0.2212
     11  N         18.7080    6.9910   -0.9100 N.am  173  ALA173     -0.1966
     12  CA        20.1530    7.2390   -1.0470 C.3   173  ALA173      0.1728
     13  C         20.9370    6.5060    0.0420 C.2   173  ALA173      0.2616
     14  O         22.1750    6.3570   -0.0710 O.2   173  ALA173     -0.2715
     15  CB        20.4530    8.7380   -0.9570 C.3   173  ALA173      0.0334
     16  N         20.2450    6.0950    1.0970 N.am  174  LEU174     -0.1963
     17  CA        20.9150    5.4460    2.2390 C.3   174  LEU174      0.1728
     18  C         20.9440    3.9190    2.1510 C.2   174  LEU174      0.2617
     19  O         19.9870    3.2960    1.7010 O.2   174  LEU174     -0.2715
     20  CB        20.2150    5.8270    3.5700 C.3   174  LEU174      0.0311
     21  CG        20.1100    7.3290    3.8270 C.3   174  LEU174      0.0022
     22  CD1       19.1080    7.5820    4.9960 C.3   174  LEU174      0.0001
     23  CD2       21.4990    7.9380    4.0860 C.3   174  LEU174      0.0001
     24  N         21.9970    3.3050    2.6710 N.am  175  GLY175     -0.1940
     25  CA        21.9940    1.8370    2.8780 C.3   175  GLY175      0.2014
     26  C         22.0260    1.0390    1.5670 C.2   175  GLY175      0.2639
     27  O         22.5730    1.4850    0.5350 O.2   175  GLY175     -0.2714
     28  N         21.4290   -0.1440    1.5820 N.am  176  LYS176     -0.1963
     29  CA        21.4250   -0.9800    0.3900 C.3   176  LYS176      0.1728
     30  C         20.3610   -2.0580    0.4710 C.2   176  LYS176      0.2616
     31  O         19.7600   -2.2630    1.5190 O.2   176  LYS176     -0.2715
     32  CB        22.7930   -1.6300    0.2040 C.3   176  LYS176      0.0311
     33  CG        23.1650   -2.5930    1.3170 C.3   176  LYS176      0.0038
     34  CD        24.6370   -2.9620    1.2650 C.3   176  LYS176      0.0206
     35  CE        24.8240   -4.4590    1.0940 C.3   176  LYS176      0.1093
     36  NZ        26.0970   -4.9330    1.7030 N.3   176  LYS176     -0.1314
     37  N         20.1330   -2.7520   -0.6390 N.am  177  THR177     -0.1951
     38  CA        19.2180   -3.8810   -0.6230 C.3   177  THR177      0.1897
     39  C         20.0290   -5.1250   -0.2340 C.2   177  THR177      0.2313
     40  O         21.2620   -5.1450   -0.2900 O.2   177  THR177     -0.2863
     41  CB        18.4460   -4.0550   -1.9640 C.3   177  THR177      0.1794
     42  OG1       19.3850   -4.2140   -3.0130 O.3   177  THR177     -0.2208
     43  CG2       17.6760   -2.8030   -2.3070 C.3   177  THR177      0.0378
     44  N         23.1710   -2.4300   -4.5640 N.3   187  GLY187     -0.1210
     45  CA        24.1200   -1.7230   -5.3690 C.3   187  GLY187      0.1956
     46  C         24.9640   -0.8390   -4.4620 C.2   187  GLY187      0.2612
     47  O         25.0240   -1.0900   -3.2470 O.2   187  GLY187     -0.2717
     48  N         25.6630    0.1200   -5.0600 N.am  188  GLY188     -0.1942
     49  CA        26.4570    1.0790   -4.3210 C.3   188  GLY188      0.2014
     50  C         25.6460    1.6940   -3.2160 C.2   188  GLY188      0.2639
     51  O         24.4770    2.0240   -3.4210 O.2   188  GLY188     -0.2714
     52  N         26.2720    1.9150   -2.0780 N.am  189  ALA189     -0.1963
     53  CA        25.5940    2.3160   -0.8440 C.3   189  ALA189      0.1728
     54  C         26.4020    3.3890   -0.1330 C.2   189  ALA189      0.2616
     55  O         27.6140    3.3940   -0.1800 O.2   189  ALA189     -0.2715
     56  CB        25.4080    1.1210    0.0740 C.3   189  ALA189      0.0334
     57  N         25.7030    4.2540    0.5600 N.am  190  ASN190     -0.1972
     58  CA        26.2790    5.3120    1.3500 C.3   190  ASN190      0.1688
     59  C         25.5450    5.4390    2.6740 C.2   190  ASN190      0.2292
     60  O         24.4300    4.9350    2.8580 O.2   190  ASN190     -0.2864
     61  CB        26.2800    6.6470    0.6140 C.3   190  ASN190      0.1181
     62  CG        27.3960    7.6060    1.1080 C.2   190  ASN190      0.2629
     63  OD1       28.3670    7.2510    1.8910 O.2   190  ASN190     -0.2716
     64  ND2       27.3010    8.8280    0.6270 N.am  190  ASN190     -0.0877
     65  N         21.6440   12.5840   -3.2690 N.3   196  GLU196     -0.1231
     66  CA        22.1530   11.7920   -4.3990 C.3   196  GLU196      0.1699
     67  C         21.1580   10.9060   -5.1270 C.2   196  GLU196      0.2592
     68  O         21.3220   10.6020   -6.2590 O.2   196  GLU196     -0.2718
     69  CB        23.2230   10.8860   -3.9400 C.3   196  GLU196      0.0402
     70  CG        24.5880   11.4480   -3.9550 C.3   196  GLU196      0.1161
     71  CD        25.5060   10.4360   -3.3200 C.2   196  GLU196      0.3649
     72  OE1       25.9810    9.5940   -4.0590 O.co2 196  GLU196     -0.2457
     73  OE2       25.6350   10.4340   -2.0860 O.co2 196  GLU196     -0.2457
     74  N         20.1640   10.4570   -4.3950 N.am  197  PHE197     -0.1976
     75  CA        19.0470    9.6500   -4.9600 C.3   197  PHE197      0.1639
     76  C         18.5380   10.3310   -6.2530 C.2   197  PHE197      0.2290
     77  O         18.3660    9.6870   -7.3040 O.2   197  PHE197     -0.2864
     78  CB        17.9100    9.4920   -3.9410 C.3   197  PHE197      0.0560
     79  CG        16.6990    8.7370   -4.4660 C.ar  197  PHE197     -0.0200
     80  CD1       16.7230    7.3590   -4.6150 C.ar  197  PHE197     -0.0042
     81  CD2       15.5220    9.4390   -4.7440 C.ar  197  PHE197     -0.0042
     82  CE1       15.5430    6.6650   -5.0500 C.ar  197  PHE197     -0.0003
     83  CE2       14.3820    8.7950   -5.1710 C.ar  197  PHE197     -0.0003
     84  CZ        14.3900    7.3910   -5.3380 C.ar  197  PHE197     -0.0000
     85  N         21.2690   10.6290   -9.0500 N.3   200  ASN200     -0.1240
     86  CA        21.4290    9.3290   -9.6890 C.3   200  ASN200      0.1653
     87  C         20.2830    8.9940  -10.6420 C.2   200  ASN200      0.2266
     88  O         20.5060    8.5300  -11.7520 O.2   200  ASN200     -0.2867
     89  CB        21.5710    8.2280   -8.6400 C.3   200  ASN200      0.1155
     90  CG        22.9130    8.2620   -7.9410 C.2   200  ASN200      0.2627
     91  OD1       23.8020    9.0200   -8.3170 O.2   200  ASN200     -0.2716
     92  ND2       23.0630    7.4370   -6.9160 N.am  200  ASN200     -0.0877
     93  N         20.1200    3.8080  -17.0130 N.3   206  TRP206     -0.1241
     94  CA        19.5030    2.6600  -16.3410 C.3   206  TRP206      0.1605
     95  C         19.0920    1.5770  -17.3290 C.2   206  TRP206      0.2264
     96  O         18.5770    1.9160  -18.3880 O.2   206  TRP206     -0.2867
     97  CB        18.2370    3.1280  -15.5870 C.3   206  TRP206      0.0550
     98  CG        18.5910    4.1590  -14.5310 C.ar  206  TRP206      0.0003
     99  CD1       18.4390    5.5150  -14.6030 C.ar  206  TRP206      0.0946
    100  CD2       19.2210    3.8890  -13.2840 C.ar  206  TRP206      0.0152
    101  NE1       18.9020    6.1010  -13.4370 N.ar  206  TRP206     -0.2442
    102  CE2       19.3890    5.1280  -12.6150 C.ar  206  TRP206      0.0810
    103  CE3       19.6110    2.7240  -12.6400 C.ar  206  TRP206      0.0012
    104  CZ2       19.9800    5.2250  -11.3500 C.ar  206  TRP206      0.0191
    105  CZ3       20.1820    2.8270  -11.3600 C.ar  206  TRP206      0.0001
    106  CH2       20.3730    4.0620  -10.7490 C.ar  206  TRP206      0.0015
    107  N         24.9110    1.2580   -9.3970 N.3   224  TYR224     -0.1227
    108  CA        23.7590    1.6600   -8.6030 C.3   224  TYR224      0.1736
    109  C         22.5390    0.8500   -9.0210 C.2   224  TYR224      0.2595
    110  O         22.5180    0.2750  -10.1040 O.2   224  TYR224     -0.2718
    111  CB        23.4710    3.1480   -8.7970 C.3   224  TYR224      0.0548
    112  CG        24.5900    4.0690   -8.3690 C.ar  224  TYR224     -0.0200
    113  CD1       25.2150    4.9020   -9.2830 C.ar  224  TYR224     -0.0009
    114  CD2       25.0100    4.1150   -7.0490 C.ar  224  TYR224     -0.0009
    115  CE1       26.2350    5.7490   -8.8980 C.ar  224  TYR224      0.0417
    116  CE2       26.0280    4.9600   -6.6540 C.ar  224  TYR224      0.0417
    117  CZ        26.6370    5.7730   -7.5830 C.ar  224  TYR224      0.1957
    118  OH        27.6490    6.6160   -7.1930 O.3   224  TYR224     -0.2866
    119  N         21.5180    0.8130   -8.1720 N.am  225  MET225     -0.1965
    120  CA        20.2500    0.1850   -8.5690 C.3   225  MET225      0.1736
    121  C         19.0560    1.0270   -8.1330 C.2   225  MET225      0.2616
    122  O         19.1640    1.8350   -7.1890 O.2   225  MET225     -0.2715
    123  CB        20.1590   -1.2350   -8.0030 C.3   225  MET225      0.0427
    124  CG        19.9990   -1.3060   -6.4700 C.3   225  MET225      0.0599
    125  SD        18.2920   -1.0860   -5.9320 S.3   225  MET225     -0.1393
    126  CE        17.5610   -2.6420   -6.4050 C.3   225  MET225      0.0692
    127  N         17.9260    0.8120   -8.7880 N.am  226  MET226     -0.1963
    128  CA        16.6820    1.4410   -8.3980 C.3   226  MET226      0.1736
    129  C         15.5680    0.4070   -8.4330 C.2   226  MET226      0.2616
    130  O         15.4690   -0.3690   -9.3740 O.2   226  MET226     -0.2715
    131  CB        16.3490    2.6040   -9.3320 C.3   226  MET226      0.0427
    132  CG        17.2950    3.7850   -9.2130 C.3   226  MET226      0.0599
    133  SD        16.9630    4.7860   -7.7520 S.3   226  MET226     -0.1393
    134  CE        18.4020    5.8510   -7.7280 C.3   226  MET226      0.0692
    135  N         14.7440    0.3910   -7.3930 N.am  227  LEU227     -0.1977
    136  CA        13.5230   -0.4040   -7.4020 C.3   227  LEU227      0.1596
    137  C         12.5880    0.0750   -8.4870 C.2   227  LEU227      0.2287
    138  O         12.6550    1.2180   -8.8740 O.2   227  LEU227     -0.2864
    139  CB        12.7810   -0.2780   -6.0560 C.3   227  LEU227      0.0297
    140  CG        13.6470   -0.6880   -4.8410 C.3   227  LEU227      0.0022
    141  CD1       13.0430   -0.1650   -3.5240 C.3   227  LEU227      0.0001
    142  CD2       13.8530   -2.2420   -4.7700 C.3   227  LEU227      0.0001
    143  N         11.0940    3.1630   -7.3070 N.3   230  ASP230     -0.1239
    144  CA        11.9930    4.3410   -7.3540 C.3   230  ASP230      0.1674
    145  C         11.9720    4.9480   -8.7390 C.2   230  ASP230      0.2266
    146  O         11.8580    6.1750   -8.9140 O.2   230  ASP230     -0.2867
    147  CB        13.4530    3.9480   -7.0540 C.3   230  ASP230      0.1410
    148  CG        13.6650    3.5050   -5.6090 C.2   230  ASP230      0.3668
    149  OD1       12.9890    4.0100   -4.6780 O.co2 230  ASP230     -0.2456
    150  OD2       14.5510    2.6490   -5.4080 O.co2 230  ASP230     -0.2456
@<TRIPOS>BOND
     1    96    95    2
     2    95    94    1
     3    93    94    1
     4    94    97    1
     5    97    98    1
     6    99    98   ar
     7    99   101   ar
     8    98   100   ar
     9   101   102   ar
    10   100   103   ar
    11   100   102   ar
    12   103   105   ar
    13   102   104   ar
    14    88    87    2
    15   105   106   ar
    16   104   106   ar
    17    87    86    1
    18   110   109    2
    19    86    85    1
    20    86    89    1
    21   107   108    1
    22   130   129    2
    23   131   132    1
    24   131   128    1
    25   113   115   ar
    26   113   112   ar
    27   132   133    1
    28   109   108    1
    29   109   119   am
    30   146   145    2
    31   115   117   ar
    32   138   137    2
    33   111   108    1
    34   111   112    1
    35   127   128    1
    36   127   121   am
    37   145   144    1
    38    89    90    1
    39   120   119    1
    40   120   121    1
    41   120   123    1
    42   137   136    1
    43   129   128    1
    44   129   135   am
    45   112   114   ar
    46    91    90    2
    47   121   122    2
    48   123   124    1
    49    90    92   am
    50   133   134    1
    51   117   118    1
    52   117   116   ar
    53   136   135    1
    54   136   139    1
    55   144   143    1
    56   144   147    1
    57    77    76    2
    58   147   148    1
    59   114   116   ar
    60   124   125    1
    61   126   125    1
    62    68    67    2
    63    76    75    1
    64   139   140    1
    65   148   150   ar
    66   148   149   ar
    67    45    44    1
    68    45    46    1
    69    84    83   ar
    70    84    82   ar
    71    83    81   ar
    72    67    66    1
    73    67    74   am
    74    48    46   am
    75    48    49    1
    76    82    80   ar
    77    75    74    1
    78    75    78    1
    79   140   142    1
    80   140   141    1
    81    81    79   ar
    82    80    79   ar
    83    79    78    1
    84    46    47    2
    85    66    69    1
    86    66    65    1
    87    49    50    1
    88    72    71   ar
    89    70    69    1
    90    70    71    1
    91    51    50    2
    92    71    73   ar
    93    50    52   am
    94    42    41    1
    95    43    41    1
    96    52    53    1
    97     7     9   ar
    98     7     6   ar
    99    41    38    1
   100     5     6    1
   101     5     2    1
   102     4     3    2
   103     9    10   ar
   104     6     8   ar
   105     3    11   am
   106     3     2    1
   107    12    15    1
   108    12    11    1
   109    12    13    1
   110    53    54    1
   111    53    56    1
   112     2     1    1
   113    37    38    1
   114    37    30   am
   115    38    39    1
   116    40    39    2
   117    55    54    2
   118    54    57   am
   119    10     8   ar
   120    14    13    2
   121    13    16   am
   122    32    29    1
   123    32    33    1
   124    29    30    1
   125    29    28    1
   126    30    31    2
   127    27    26    2
   128    57    58    1
   129    61    62    1
   130    61    58    1
   131    64    62   am
   132    35    34    1
   133    35    36    1
   134    16    17    1
   135    62    63    2
   136    34    33    1
   137    58    59    1
   138    26    28   am
   139    26    25    1
   140    19    18    2
   141    18    17    1
   142    18    24   am
   143    17    20    1
   144    24    25    1
   145    59    60    2
   146    20    21    1
   147    21    23    1
   148    21    22    1
