@<TRIPOS>MOLECULE
tmp/4nvkA01.pdb
 132 129 0 0 0
SMALL
GASTEIGER

@<TRIPOS>ATOM
      1  N         16.2520    6.4460    0.4800 N.3   172  HIS172     -0.1226
      2  CA        16.9740    5.3740   -0.2280 C.3   172  HIS172      0.1752
      3  C         18.3530    5.7830   -0.7340 C.2   172  HIS172      0.2596
      4  O         18.9900    4.9630   -1.4300 O.2   172  HIS172     -0.2718
      5  CB        16.0650    4.7740   -1.3200 C.3   172  HIS172      0.0759
      6  CG        14.9920    3.8970   -0.7950 C.ar  172  HIS172      0.0818
      7  ND1       14.0740    3.2950   -1.6280 N.ar  172  HIS172     -0.2268
      8  CD2       14.7370    3.4220    0.4530 C.ar  172  HIS172      0.1154
      9  CE1       13.2910    2.5010   -0.9160 C.ar  172  HIS172      0.1986
     10  NE2       13.6770    2.5420    0.3580 N.ar  172  HIS172     -0.2212
     11  N         18.8200    6.9920   -0.3930 N.am  173  ALA173     -0.1966
     12  CA        20.2540    7.3080   -0.4680 C.3   173  ALA173      0.1728
     13  C         21.0330    6.4560    0.5490 C.2   173  ALA173      0.2616
     14  O         22.2470    6.2870    0.4070 O.2   173  ALA173     -0.2715
     15  CB        20.5010    8.7440   -0.1880 C.3   173  ALA173      0.0334
     16  N         20.3390    5.9440    1.5590 N.am  174  LEU174     -0.1963
     17  CA        20.9680    5.2340    2.7030 C.3   174  LEU174      0.1728
     18  C         20.9840    3.7280    2.5450 C.2   174  LEU174      0.2617
     19  O         20.0350    3.1070    2.0980 O.2   174  LEU174     -0.2715
     20  CB        20.1980    5.5460    3.9740 C.3   174  LEU174      0.0311
     21  CG        20.0730    7.0030    4.3150 C.3   174  LEU174      0.0022
     22  CD1       19.0550    7.1990    5.5140 C.3   174  LEU174      0.0001
     23  CD2       21.4260    7.7110    4.6180 C.3   174  LEU174      0.0001
     24  N         22.0730    3.1030    3.0080 N.am  175  GLY175     -0.1940
     25  CA        22.0330    1.6460    3.1480 C.3   175  GLY175      0.2014
     26  C         21.9460    0.9410    1.8150 C.2   175  GLY175      0.2639
     27  O         22.4280    1.4240    0.8010 O.2   175  GLY175     -0.2714
     28  N         21.3560   -0.2460    1.8660 N.am  176  LYS176     -0.1963
     29  CA        21.2770   -1.1330    0.7230 C.3   176  LYS176      0.1728
     30  C         20.1820   -2.1180    0.8760 C.2   176  LYS176      0.2616
     31  O         19.5930   -2.3140    1.9690 O.2   176  LYS176     -0.2715
     32  CB        22.6050   -1.9020    0.5520 C.3   176  LYS176      0.0311
     33  CG        22.9110   -2.8320    1.6610 C.3   176  LYS176      0.0038
     34  CD        24.3490   -3.4520    1.5610 C.3   176  LYS176      0.0206
     35  CE        24.6240   -4.2770    0.3110 C.3   176  LYS176      0.1093
     36  NZ        23.7110   -5.4460    0.1460 N.3   176  LYS176     -0.1314
     37  N         19.9090   -2.8380   -0.2190 N.am  177  THR177     -0.1951
     38  CA        19.0360   -3.9670   -0.1110 C.3   177  THR177      0.1897
     39  C         19.9160   -5.2400    0.1940 C.2   177  THR177      0.2313
     40  O         21.1240   -5.2490   -0.1340 O.2   177  THR177     -0.2863
     41  CB        18.1710   -4.1590   -1.3880 C.3   177  THR177      0.1794
     42  OG1       19.0070   -4.6090   -2.4470 O.3   177  THR177     -0.2208
     43  CG2       17.4790   -2.8170   -1.8010 C.3   177  THR177      0.0378
     44  N         25.7850   -0.3250   -4.6880 N.3   188  GLY188     -0.1210
     45  CA        26.5790    0.6530   -3.9740 C.3   188  GLY188      0.1956
     46  C         25.7670    1.2950   -2.8850 C.2   188  GLY188      0.2612
     47  O         24.5980    1.6190   -3.0980 O.2   188  GLY188     -0.2717
     48  N         26.3930    1.5470   -1.7530 N.am  189  ALA189     -0.1965
     49  CA        25.7150    1.9790   -0.5300 C.3   189  ALA189      0.1728
     50  C         26.5220    3.0700    0.1530 C.2   189  ALA189      0.2616
     51  O         27.7340    3.0760    0.1060 O.2   189  ALA189     -0.2715
     52  CB        25.5300    0.8070    0.4190 C.3   189  ALA189      0.0334
     53  N         25.8230    3.9520    0.8230 N.am  190  ASN190     -0.1972
     54  CA        26.3970    5.0310    1.5860 C.3   190  ASN190      0.1688
     55  C         25.6630    5.1920    2.9060 C.2   190  ASN190      0.2292
     56  O         24.5480    4.6910    3.1030 O.2   190  ASN190     -0.2864
     57  CB        26.3970    6.3470    0.8150 C.3   190  ASN190      0.1181
     58  CG        27.5120    7.3190    1.2840 C.2   190  ASN190      0.2629
     59  OD1       28.4830    6.9850    2.0770 O.2   190  ASN190     -0.2716
     60  ND2       27.4150    8.5280    0.7720 N.am  190  ASN190     -0.0877
     61  N         21.6060   12.1660   -2.9850 N.3   196  GLU196     -0.1231
     62  CA        22.1910   11.3350   -4.0180 C.3   196  GLU196      0.1699
     63  C         21.2110   10.4100   -4.6980 C.2   196  GLU196      0.2592
     64  O         21.4130   10.0570   -5.8510 O.2   196  GLU196     -0.2718
     65  CB        23.3260   10.4840   -3.4650 C.3   196  GLU196      0.0402
     66  CG        24.4730   10.4730   -4.4230 C.3   196  GLU196      0.1161
     67  CD        24.9480   11.8630   -4.6640 C.2   196  GLU196      0.3649
     68  OE1       25.1180   12.6140   -3.6690 O.co2 196  GLU196     -0.2457
     69  OE2       25.1060   12.2120   -5.8360 O.co2 196  GLU196     -0.2457
     70  N         20.1460   10.0170   -4.0020 N.am  197  PHE197     -0.1976
     71  CA        19.1420    9.1040   -4.5830 C.3   197  PHE197      0.1639
     72  C         18.6560    9.7050   -5.9230 C.2   197  PHE197      0.2290
     73  O         18.5470    9.0350   -6.9510 O.2   197  PHE197     -0.2864
     74  CB        18.0140    8.8430   -3.6130 C.3   197  PHE197      0.0560
     75  CG        16.8310    8.1250   -4.1510 C.ar  197  PHE197     -0.0200
     76  CD1       16.8120    6.7260   -4.2300 C.ar  197  PHE197     -0.0042
     77  CD2       15.6760    8.8010   -4.4780 C.ar  197  PHE197     -0.0042
     78  CE1       15.6750    6.0430   -4.7140 C.ar  197  PHE197     -0.0003
     79  CE2       14.5520    8.1000   -4.9090 C.ar  197  PHE197     -0.0003
     80  CZ        14.5660    6.7060   -4.9990 C.ar  197  PHE197     -0.0000
     81  N         21.4070    9.9350   -8.6800 N.3   200  ASN200     -0.1240
     82  CA        21.6440    8.6210   -9.3170 C.3   200  ASN200      0.1653
     83  C         20.5050    8.3120  -10.2660 C.2   200  ASN200      0.2266
     84  O         20.7300    7.9680  -11.4430 O.2   200  ASN200     -0.2867
     85  CB        21.8250    7.5040   -8.3180 C.3   200  ASN200      0.1155
     86  CG        23.0910    7.6270   -7.5360 C.2   200  ASN200      0.2627
     87  OD1       24.0440    8.2770   -7.9600 O.2   200  ASN200     -0.2716
     88  ND2       23.1420    6.9490   -6.4270 N.am  200  ASN200     -0.0877
     89  N         25.0320    0.3070   -9.3380 N.3   224  TYR224     -0.1227
     90  CA        23.9060    0.7290   -8.4970 C.3   224  TYR224      0.1736
     91  C         22.6050    0.0410   -8.9080 C.2   224  TYR224      0.2595
     92  O         22.4690   -0.4810  -10.0160 O.2   224  TYR224     -0.2718
     93  CB        23.6780    2.2320   -8.6010 C.3   224  TYR224      0.0548
     94  CG        24.7600    3.0790   -7.9880 C.ar  224  TYR224     -0.0200
     95  CD1       25.5460    3.9280   -8.7840 C.ar  224  TYR224     -0.0009
     96  CD2       24.9870    3.0410   -6.6060 C.ar  224  TYR224     -0.0009
     97  CE1       26.5470    4.7370   -8.2000 C.ar  224  TYR224      0.0417
     98  CE2       25.9580    3.8300   -6.0180 C.ar  224  TYR224      0.0417
     99  CZ        26.7310    4.6890   -6.8170 C.ar  224  TYR224      0.1957
    100  OH        27.7090    5.4760   -6.2130 O.3   224  TYR224     -0.2866
    101  N         21.6190    0.1070   -8.0200 N.am  225  MET225     -0.1965
    102  CA        20.3070   -0.4490   -8.2480 C.3   225  MET225      0.1736
    103  C         19.1940    0.4820   -7.8180 C.2   225  MET225      0.2616
    104  O         19.4230    1.4190   -7.0160 O.2   225  MET225     -0.2715
    105  CB        20.1190   -1.8280   -7.6250 C.3   225  MET225      0.0427
    106  CG        20.1530   -1.8520   -6.1050 C.3   225  MET225      0.0599
    107  SD        18.5770   -1.3790   -5.3470 S.3   225  MET225     -0.1393
    108  CE        17.6270   -2.8700   -5.6310 C.3   225  MET225      0.0692
    109  N         18.0450    0.3190   -8.4830 N.am  226  MET226     -0.1963
    110  CA        16.7820    0.9370   -8.0640 C.3   226  MET226      0.1736
    111  C         15.7070   -0.1160   -8.0310 C.2   226  MET226      0.2616
    112  O         15.5790   -0.9140   -8.9570 O.2   226  MET226     -0.2715
    113  CB        16.3700    2.0580   -9.0140 C.3   226  MET226      0.0427
    114  CG        17.3610    3.1880   -9.0760 C.3   226  MET226      0.0599
    115  SD        17.0690    4.2650   -7.5940 S.3   226  MET226     -0.1393
    116  CE        18.5860    5.1790   -7.5560 C.3   226  MET226      0.0692
    117  N         14.8790   -0.1060   -7.0010 N.am  227  LEU227     -0.1977
    118  CA        13.6890   -0.9170   -6.9610 C.3   227  LEU227      0.1596
    119  C         12.7090   -0.4610   -8.0450 C.2   227  LEU227      0.2287
    120  O         12.7420    0.7410   -8.4330 O.2   227  LEU227     -0.2864
    121  CB        12.9840   -0.8140   -5.5920 C.3   227  LEU227      0.0297
    122  CG        13.7990   -1.1970   -4.3860 C.3   227  LEU227      0.0022
    123  CD1       13.1680   -0.6620   -3.1090 C.3   227  LEU227      0.0001
    124  CD2       13.9760   -2.7050   -4.3160 C.3   227  LEU227      0.0001
    125  N         11.2400    2.6370   -6.8020 N.3   230  ASP230     -0.1239
    126  CA        12.1480    3.7790   -6.9010 C.3   230  ASP230      0.1674
    127  C         12.1360    4.3940   -8.2980 C.2   230  ASP230      0.2266
    128  O         12.0360    5.6360   -8.4970 O.2   230  ASP230     -0.2867
    129  CB        13.5930    3.3860   -6.5970 C.3   230  ASP230      0.1410
    130  CG        13.8250    2.9300   -5.1880 C.2   230  ASP230      0.3668
    131  OD1       13.2320    3.4430   -4.2220 O.co2 230  ASP230     -0.2456
    132  OD2       14.7450    2.0550   -5.0330 O.co2 230  ASP230     -0.2456
@<TRIPOS>BOND
     1    84    83    2
     2    83    82    1
     3    92    91    2
     4    89    90    1
     5    82    81    1
     6    82    85    1
     7   114   113    1
     8   114   115    1
     9   113   110    1
    10   112   111    2
    11    91    90    1
    12    91   101   am
    13    95    97   ar
    14    95    94   ar
    15    93    90    1
    16    93    94    1
    17   128   127    2
    18   109   110    1
    19   109   103   am
    20   120   119    2
    21    85    86    1
    22   127   126    1
    23   102   101    1
    24   102   103    1
    25   102   105    1
    26    97    99   ar
    27   110   111    1
    28   119   118    1
    29   111   117   am
    30    94    96   ar
    31    87    86    2
    32   103   104    2
    33   105   106    1
    34   115   116    1
    35    86    88   am
    36   117   118    1
    37   118   121    1
    38    73    72    2
    39   126   125    1
    40   126   129    1
    41    99   100    1
    42    99    98   ar
    43    96    98   ar
    44   129   130    1
    45   106   107    1
    46    72    71    1
    47    64    63    2
    48    69    67   ar
    49   108   107    1
    50   121   122    1
    51   130   132   ar
    52   130   131   ar
    53    80    79   ar
    54    80    78   ar
    55    79    77   ar
    56    78    76   ar
    57    63    62    1
    58    63    70   am
    59    44    45    1
    60    67    66    1
    61    67    68   ar
    62    71    70    1
    63    71    74    1
    64    77    75   ar
    65    66    65    1
    66   122   124    1
    67   122   123    1
    68    76    75   ar
    69    75    74    1
    70    62    65    1
    71    62    61    1
    72    45    46    1
    73    47    46    2
    74    46    48   am
    75    42    41    1
    76    43    41    1
    77    48    49    1
    78     7     9   ar
    79     7     6   ar
    80     4     3    2
    81    41    38    1
    82     5     6    1
    83     5     2    1
    84     9    10   ar
    85     6     8   ar
    86     3    11   am
    87     3     2    1
    88    49    50    1
    89    49    52    1
    90    12    11    1
    91    12    15    1
    92    12    13    1
    93     2     1    1
    94    37    38    1
    95    37    30   am
    96    40    39    2
    97    38    39    1
    98    51    50    2
    99    36    35    1
   100    50    53   am
   101    35    34    1
   102    10     8   ar
   103    14    13    2
   104    13    16   am
   105    32    29    1
   106    32    33    1
   107    29    30    1
   108    29    28    1
   109    60    58   am
   110    27    26    2
   111    57    58    1
   112    57    54    1
   113    53    54    1
   114    30    31    2
   115    58    59    2
   116    16    17    1
   117    34    33    1
   118    54    55    1
   119    26    28   am
   120    26    25    1
   121    19    18    2
   122    18    17    1
   123    18    24   am
   124    17    20    1
   125    55    56    2
   126    24    25    1
   127    20    21    1
   128    21    23    1
   129    21    22    1
