@<TRIPOS>MOLECULE
tmp/4nvlA02.pdb
 90 87 0 0 0
SMALL
GASTEIGER

@<TRIPOS>ATOM
      1  N        -44.3230  -78.9760   16.9120 N.3    69  ARG69      -0.1245
      2  CA       -43.7300  -79.8890   17.9020 C.3    69  ARG69       0.1563
      3  C        -44.4550  -81.2090   17.8480 C.2    69  ARG69       0.2260
      4  O        -43.9320  -82.1730   18.4290 O.2    69  ARG69      -0.2867
      5  CB       -43.7980  -79.2890   19.3130 C.3    69  ARG69       0.0307
      6  CG       -45.1510  -79.2750   19.9530 C.3    69  ARG69       0.0489
      7  CD       -45.0950  -78.4620   21.2510 C.3    69  ARG69       0.2205
      8  NE       -46.3250  -78.4680   22.0330 N.pl3  69  ARG69      -0.0865
      9  CZ       -47.4120  -77.7590   21.8150 C.cat  69  ARG69       0.5346
     10  NH1      -47.5030  -76.9220   20.7840 N.pl3  69  ARG69       0.1354
     11  NH2      -48.4580  -77.8690   22.6280 N.pl3  69  ARG69       0.1354
     12  N        -35.2220  -77.7550   14.2820 N.3    86  PHE86      -0.1241
     13  CA       -35.7960  -78.1250   15.5470 C.3    86  PHE86       0.1605
     14  C        -34.6970  -78.5910   16.5300 C.2    86  PHE86       0.2264
     15  O        -34.6630  -78.1770   17.6760 O.2    86  PHE86      -0.2867
     16  CB       -36.8340  -79.2100   15.3890 C.3    86  PHE86       0.0534
     17  CG       -37.5500  -79.5300   16.6810 C.ar   86  PHE86      -0.0203
     18  CD1      -37.0920  -80.5640   17.4980 C.ar   86  PHE86      -0.0042
     19  CD2      -38.6070  -78.7930   17.1190 C.ar   86  PHE86      -0.0042
     20  CE1      -37.7340  -80.8320   18.7080 C.ar   86  PHE86      -0.0003
     21  CE2      -39.2720  -79.0880   18.3080 C.ar   86  PHE86      -0.0003
     22  CZ       -38.8260  -80.0910   19.0980 C.ar   86  PHE86      -0.0000
     23  N        -32.6950  -75.7680   17.9140 N.3    89  LEU89      -0.1231
     24  CA       -33.4390  -75.0170   18.9220 C.3    89  LEU89       0.1693
     25  C        -33.6480  -75.7310   20.2680 C.2    89  LEU89       0.2591
     26  O        -33.9390  -75.0840   21.2760 O.2    89  LEU89      -0.2718
     27  CB       -34.7930  -74.5510   18.3700 C.3    89  LEU89       0.0284
     28  CG       -34.7010  -73.4920   17.2540 C.3    89  LEU89       0.0019
     29  CD1      -36.1240  -73.2670   16.6970 C.3    89  LEU89       0.0001
     30  CD2      -34.0770  -72.1820   17.7350 C.3    89  LEU89       0.0001
     31  N        -33.5140  -77.0570   20.2520 N.am   90  GLU90      -0.1979
     32  CA       -33.7420  -77.8700   21.4490 C.3    90  GLU90       0.1602
     33  C        -32.9550  -77.4310   22.6840 C.2    90  GLU90       0.2287
     34  O        -33.5620  -77.2580   23.7360 O.2    90  GLU90      -0.2864
     35  CB       -33.5160  -79.3560   21.1300 C.3    90  GLU90       0.0415
     36  CG       -34.7890  -80.0650   20.7260 C.3    90  GLU90       0.1163
     37  CD       -34.6440  -81.5870   20.5150 C.2    90  GLU90       0.3649
     38  OE1      -33.9400  -82.0100   19.5800 O.co2  90  GLU90      -0.2457
     39  OE2      -35.2890  -82.3420   21.2630 O.co2  90  GLU90      -0.2457
     40  N        -34.3110  -74.1810   24.0210 N.3    93  HIS93      -0.1226
     41  CA       -35.5550  -74.3530   24.7460 C.3    93  HIS93       0.1752
     42  C        -35.3120  -74.9250   26.1440 C.2    93  HIS93       0.2595
     43  O        -36.0290  -74.5960   27.0990 O.2    93  HIS93      -0.2718
     44  CB       -36.5320  -75.2170   23.9940 C.3    93  HIS93       0.0759
     45  CG       -37.9360  -74.7730   24.2020 C.ar   93  HIS93       0.0818
     46  ND1      -38.9980  -75.2070   23.4380 N.ar   93  HIS93      -0.2268
     47  CD2      -38.4270  -73.8430   25.0460 C.ar   93  HIS93       0.1154
     48  CE1      -40.0990  -74.6150   23.8660 C.ar   93  HIS93       0.1986
     49  NE2      -39.7720  -73.7840   24.8430 N.ar   93  HIS93      -0.2212
     50  N        -34.2970  -75.8020   26.2190 N.am   94  LYS94      -0.1980
     51  CA       -33.8440  -76.3900   27.5180 C.3    94  LYS94       0.1596
     52  C        -33.2680  -75.3200   28.4190 C.2    94  LYS94       0.2287
     53  O        -33.4970  -75.3610   29.6580 O.2    94  LYS94      -0.2864
     54  CB       -32.8110  -77.5220   27.2570 C.3    94  LYS94       0.0298
     55  CG       -33.4590  -78.8510   27.0280 C.3    94  LYS94       0.0038
     56  CD       -32.4490  -79.9920   26.5950 C.3    94  LYS94       0.0206
     57  CE       -33.2090  -81.2660   26.1010 C.3    94  LYS94       0.1093
     58  NZ       -32.5140  -82.0540   25.0000 N.3    94  LYS94      -0.1314
     59  N        -36.8250  -72.5860   29.2280 N.3    97  PRO97      -0.2116
     60  CA       -38.0100  -73.3780   28.9980 C.3    97  PRO97       0.1372
     61  C        -39.3360  -72.6400   29.2480 C.2    97  PRO97       0.2244
     62  O        -40.3930  -73.1530   28.9720 O.2    97  PRO97      -0.2868
     63  CB       -37.8350  -74.5700   29.9920 C.3    97  PRO97       0.0268
     64  CG       -36.9360  -74.1440   30.9270 C.3    97  PRO97       0.0207
     65  CD       -36.0100  -73.0790   30.3600 C.3    97  PRO97       0.0892
     66  N        -43.4380  -72.5060   22.4270 N.3   101  SER101     -0.1217
     67  CA       -42.8610  -73.1270   21.2430 C.3   101  SER101      0.1889
     68  C        -42.9850  -72.2050   20.0200 C.2   101  SER101      0.2288
     69  O        -42.0030  -72.0160   19.2950 O.2   101  SER101     -0.2866
     70  CB       -43.4820  -74.4830   20.9410 C.3   101  SER101      0.2089
     71  OG       -43.3050  -75.3130   22.0800 O.3   101  SER101     -0.2183
     72  N        -40.5400  -69.4430   20.3290 N.3   104  LEU104     -0.1231
     73  CA       -39.1940  -69.8610   20.0100 C.3   104  LEU104      0.1693
     74  C        -38.9700  -70.0430   18.5080 C.2   104  LEU104      0.2592
     75  O        -37.9410  -69.6150   18.0050 O.2   104  LEU104     -0.2718
     76  CB       -38.8230  -71.1110   20.8060 C.3   104  LEU104      0.0284
     77  CG       -37.3620  -71.5160   20.6310 C.3   104  LEU104      0.0019
     78  CD1      -36.3590  -70.4780   20.9830 C.3   104  LEU104      0.0001
     79  CD2      -37.1190  -72.7330   21.5410 C.3   104  LEU104      0.0001
     80  N        -39.8820  -70.7390   17.8390 N.am  105  PHE105     -0.1976
     81  CA       -39.7100  -70.9900   16.4190 C.3   105  PHE105      0.1639
     82  C        -39.6610  -69.6750   15.6510 C.2   105  PHE105      0.2290
     83  O        -38.8450  -69.5220   14.7340 O.2   105  PHE105     -0.2864
     84  CB       -40.7960  -71.8710   15.8420 C.3   105  PHE105      0.0560
     85  CG       -40.9400  -73.2510   16.5000 C.ar  105  PHE105     -0.0200
     86  CD1      -42.2010  -73.7750   16.6870 C.ar  105  PHE105     -0.0042
     87  CD2      -39.8520  -74.0270   16.8470 C.ar  105  PHE105     -0.0042
     88  CE1      -42.3770  -74.9880   17.2450 C.ar  105  PHE105     -0.0003
     89  CE2      -40.0510  -75.2890   17.3970 C.ar  105  PHE105     -0.0003
     90  CZ       -41.3240  -75.7330   17.6010 C.ar  105  PHE105     -0.0000
@<TRIPOS>BOND
     1    12    13    1
     2    83    82    2
     3    16    13    1
     4    16    17    1
     5    13    14    1
     6    82    81    1
     7    84    81    1
     8    84    85    1
     9    81    80    1
    10    85    86   ar
    11    85    87   ar
    12    14    15    2
    13    17    19   ar
    14    17    18   ar
    15    86    88   ar
    16    29    28    1
    17    87    89   ar
    18     1     2    1
    19    19    21   ar
    20    88    90   ar
    21    28    30    1
    22    28    27    1
    23    89    90   ar
    24    18    20   ar
    25    80    74   am
    26     3     2    1
    27     3     4    2
    28     2     5    1
    29    23    24    1
    30    75    74    2
    31    21    22   ar
    32    27    24    1
    33    74    73    1
    34    20    22   ar
    35    24    25    1
    36    69    68    2
    37     5     6    1
    38    38    37   ar
    39     6     7    1
    40    73    72    1
    41    73    76    1
    42    68    67    1
    43    31    25   am
    44    31    32    1
    45    25    26    2
    46    37    36    1
    47    37    39   ar
    48    77    76    1
    49    77    78    1
    50    77    79    1
    51    36    35    1
    52    10     9    1
    53    70    67    1
    54    70    71    1
    55    35    32    1
    56    67    66    1
    57     7     8    1
    58    32    33    1
    59     9     8    2
    60     9    11    1
    61    33    34    2
    62    46    48   ar
    63    46    45   ar
    64    48    49   ar
    65    44    45    1
    66    44    41    1
    67    40    41    1
    68    45    47   ar
    69    41    42    1
    70    49    47   ar
    71    58    57    1
    72    57    56    1
    73    42    50   am
    74    42    43    2
    75    50    51    1
    76    56    55    1
    77    55    54    1
    78    54    51    1
    79    51    52    1
    80    52    53    2
    81    62    61    2
    82    60    59    1
    83    60    61    1
    84    60    63    1
    85    59    65    1
    86    63    64    1
    87    65    64    1
