@<TRIPOS>MOLECULE
tmp/4nvlA01.pdb
 132 129 0 0 0
SMALL
GASTEIGER

@<TRIPOS>ATOM
      1  N        -35.0920  -66.5450   -0.4300 N.3   172  HIS172     -0.1226
      2  CA       -34.3670  -67.5330   -1.2110 C.3   172  HIS172      0.1752
      3  C        -32.9670  -67.0980   -1.6230 C.2   172  HIS172      0.2596
      4  O        -32.2440  -67.8720   -2.2490 O.2   172  HIS172     -0.2718
      5  CB       -35.2120  -68.0060   -2.3950 C.3   172  HIS172      0.0759
      6  CG       -36.2590  -68.9970   -2.0080 C.ar  172  HIS172      0.0818
      7  ND1      -37.2140  -69.4610   -2.9090 N.ar  172  HIS172     -0.2268
      8  CD2      -36.5420  -69.5730   -0.8120 C.ar  172  HIS172      0.1154
      9  CE1      -37.9780  -70.3380   -2.2760 C.ar  172  HIS172      0.1986
     10  NE2      -37.6230  -70.3990   -1.0000 N.ar  172  HIS172     -0.2212
     11  N        -32.5650  -65.8950   -1.2440 N.am  173  ALA173     -0.1966
     12  CA       -31.1100  -65.5410   -1.2010 C.3   173  ALA173      0.1728
     13  C        -30.3560  -66.5070   -0.2900 C.2   173  ALA173      0.2616
     14  O        -29.1260  -66.6580   -0.4090 O.2   173  ALA173     -0.2715
     15  CB       -30.8710  -64.1000   -0.7560 C.3   173  ALA173      0.0334
     16  N        -31.0430  -67.1220    0.6590 N.am  174  LEU174     -0.1963
     17  CA       -30.4230  -67.8690    1.7440 C.3   174  LEU174      0.1728
     18  C        -30.4520  -69.3400    1.4770 C.2   174  LEU174      0.2617
     19  O        -31.4410  -69.9140    1.0490 O.2   174  LEU174     -0.2715
     20  CB       -31.1920  -67.6470    3.0430 C.3   174  LEU174      0.0311
     21  CG       -31.3560  -66.2200    3.5030 C.3   174  LEU174      0.0022
     22  CD1      -32.3660  -66.1750    4.6920 C.3   174  LEU174      0.0001
     23  CD2      -30.0010  -65.6480    3.8620 C.3   174  LEU174      0.0001
     24  N        -29.3510  -70.0160    1.8140 N.am  175  GLY175     -0.1940
     25  CA       -29.4060  -71.4510    1.8800 C.3   175  GLY175      0.2014
     26  C        -29.5230  -72.0920    0.5030 C.2   175  GLY175      0.2639
     27  O        -29.0460  -71.5350   -0.5190 O.2   175  GLY175     -0.2714
     28  N        -30.1200  -73.2730    0.4600 N.am  176  LYS176     -0.1963
     29  CA       -30.1660  -74.0460   -0.7710 C.3   176  LYS176      0.1728
     30  C        -31.2280  -75.1280   -0.6990 C.2   176  LYS176      0.2616
     31  O        -31.7610  -75.4240    0.3660 O.2   176  LYS176     -0.2715
     32  CB       -28.8030  -74.6990   -1.0210 C.3   176  LYS176      0.0311
     33  CG       -28.5150  -75.8790   -0.1040 C.3   176  LYS176      0.0038
     34  CD       -27.0930  -76.3980   -0.2550 C.3   176  LYS176      0.0206
     35  CE       -26.9090  -77.1940   -1.5380 C.3   176  LYS176      0.1093
     36  NZ       -27.5910  -78.5200   -1.5330 N.3   176  LYS176     -0.1314
     37  N        -31.5230  -75.7240   -1.8470 N.am  177  THR177     -0.1951
     38  CA       -32.3340  -76.9050   -1.8920 C.3   177  THR177      0.1897
     39  C        -31.4180  -78.1570   -1.7240 C.2   177  THR177      0.2313
     40  O        -30.2240  -78.0910   -1.9490 O.2   177  THR177     -0.2863
     41  CB       -33.1790  -77.0210   -3.1850 C.3   177  THR177      0.1794
     42  OG1      -32.3360  -77.2810   -4.3010 O.3   177  THR177     -0.2208
     43  CG2      -33.9350  -75.7020   -3.4510 C.3   177  THR177      0.0378
     44  N        -25.4370  -72.8400   -6.0980 N.3   188  GLY188     -0.1210
     45  CA       -24.6190  -71.9830   -5.2650 C.3   188  GLY188      0.1956
     46  C        -25.4360  -71.4480   -4.1080 C.2   188  GLY188      0.2612
     47  O        -26.5860  -71.0580   -4.2830 O.2   188  GLY188     -0.2717
     48  N        -24.8370  -71.4360   -2.9230 N.am  189  ALA189     -0.1965
     49  CA       -25.5470  -71.0430   -1.7170 C.3   189  ALA189      0.1728
     50  C        -24.7930  -69.9810   -0.9350 C.2   189  ALA189      0.2616
     51  O        -23.5710  -69.9000   -0.9950 O.2   189  ALA189     -0.2715
     52  CB       -25.8030  -72.2570   -0.8430 C.3   189  ALA189      0.0334
     53  N        -25.5330  -69.1880   -0.1620 N.am  190  ASN190     -0.1972
     54  CA       -24.9570  -68.1610    0.7030 C.3   190  ASN190      0.1688
     55  C        -25.6890  -68.0830    2.0470 C.2   190  ASN190      0.2292
     56  O        -26.7910  -68.5970    2.1870 O.2   190  ASN190     -0.2864
     57  CB       -24.9800  -66.7950    0.0120 C.3   190  ASN190      0.1181
     58  CG       -24.0210  -65.8010    0.6450 C.2   190  ASN190      0.2629
     59  OD1      -23.0830  -66.1770    1.3490 O.2   190  ASN190     -0.2716
     60  ND2      -24.2500  -64.5220    0.3880 N.am  190  ASN190     -0.0877
     61  N        -29.8440  -60.4630   -3.3180 N.3   196  GLU196     -0.1231
     62  CA       -29.2330  -61.2240   -4.3970 C.3   196  GLU196      0.1699
     63  C        -30.1830  -62.1870   -5.1390 C.2   196  GLU196      0.2592
     64  O        -29.9740  -62.4730   -6.3170 O.2   196  GLU196     -0.2718
     65  CB       -28.0200  -61.9740   -3.8620 C.3   196  GLU196      0.0402
     66  CG       -27.3830  -62.8790   -4.8650 C.3   196  GLU196      0.1161
     67  CD       -26.6120  -62.1450   -5.9600 C.2   196  GLU196      0.3649
     68  OE1      -26.1660  -62.8420   -6.9270 O.co2 196  GLU196     -0.2457
     69  OE2      -26.4080  -60.9020   -5.8650 O.co2 196  GLU196     -0.2457
     70  N        -31.2750  -62.6080   -4.5100 N.am  197  PHE197     -0.1976
     71  CA       -32.2960  -63.4330   -5.2190 C.3   197  PHE197      0.1639
     72  C        -32.7750  -62.7110   -6.4630 C.2   197  PHE197      0.2290
     73  O        -32.8220  -63.2900   -7.5460 O.2   197  PHE197     -0.2864
     74  CB       -33.4580  -63.7140   -4.2930 C.3   197  PHE197      0.0560
     75  CG       -34.6220  -64.3870   -4.9140 C.ar  197  PHE197     -0.0200
     76  CD1      -34.6220  -65.7690   -5.1710 C.ar  197  PHE197     -0.0042
     77  CD2      -35.7930  -63.6660   -5.1680 C.ar  197  PHE197     -0.0042
     78  CE1      -35.7370  -66.4170   -5.6470 C.ar  197  PHE197     -0.0003
     79  CE2      -36.9230  -64.3120   -5.6710 C.ar  197  PHE197     -0.0003
     80  CZ       -36.8760  -65.7110   -5.9150 C.ar  197  PHE197     -0.0000
     81  N        -29.9750  -62.2730   -9.0900 N.3   200  ASN200     -0.1240
     82  CA       -29.6850  -63.5790   -9.6660 C.3   200  ASN200      0.1653
     83  C        -30.7590  -63.8880  -10.7250 C.2   200  ASN200      0.2266
     84  O        -30.4340  -64.3200  -11.8260 O.2   200  ASN200     -0.2867
     85  CB       -29.5940  -64.6060   -8.5230 C.3   200  ASN200      0.1155
     86  CG       -28.7550  -65.8490   -8.8640 C.2   200  ASN200      0.2627
     87  OD1      -27.5180  -65.7690   -9.0690 O.2   200  ASN200     -0.2716
     88  ND2      -29.3960  -66.9940   -8.8850 N.am  200  ASN200     -0.0877
     89  N        -26.0440  -71.6740  -10.5180 N.3   224  TYR224     -0.1227
     90  CA       -27.1950  -71.2970   -9.6360 C.3   224  TYR224      0.1736
     91  C        -28.4710  -71.9850  -10.1000 C.2   224  TYR224      0.2595
     92  O        -28.5680  -72.4580  -11.2350 O.2   224  TYR224     -0.2718
     93  CB       -27.4070  -69.7710   -9.6240 C.3   224  TYR224      0.0548
     94  CG       -26.2330  -68.9610   -9.0930 C.ar  224  TYR224     -0.0200
     95  CD1      -25.3900  -68.3010   -9.9560 C.ar  224  TYR224     -0.0009
     96  CD2      -26.0020  -68.8910   -7.7320 C.ar  224  TYR224     -0.0009
     97  CE1      -24.2940  -67.5580   -9.4640 C.ar  224  TYR224      0.0417
     98  CE2      -24.9310  -68.1770   -7.2270 C.ar  224  TYR224      0.0417
     99  CZ       -24.0760  -67.5280   -8.1080 C.ar  224  TYR224      0.1957
    100  OH       -23.0160  -66.7870   -7.6230 O.3   224  TYR224     -0.2866
    101  N        -29.4640  -72.0270   -9.2130 N.am  225  MET225     -0.1965
    102  CA       -30.7680  -72.5850   -9.5630 C.3   225  MET225      0.1736
    103  C        -31.9100  -71.7300   -9.0760 C.2   225  MET225      0.2616
    104  O        -31.7520  -70.9100   -8.2120 O.2   225  MET225     -0.2715
    105  CB       -30.9370  -73.9950   -9.0200 C.3   225  MET225      0.0427
    106  CG       -30.9260  -74.1260   -7.5090 C.3   225  MET225      0.0599
    107  SD       -32.4780  -73.7330   -6.6910 S.3   225  MET225     -0.1393
    108  CE       -33.3460  -75.2810   -7.0490 C.3   225  MET225      0.0692
    109  N        -33.0610  -71.9130   -9.7160 N.am  226  MET226     -0.1963
    110  CA       -34.3520  -71.3310   -9.3010 C.3   226  MET226      0.1736
    111  C        -35.4190  -72.3960   -9.4100 C.2   226  MET226      0.2616
    112  O        -35.4560  -73.1640  -10.3680 O.2   226  MET226     -0.2715
    113  CB       -34.7360  -70.1320  -10.1950 C.3   226  MET226      0.0427
    114  CG       -33.8280  -68.9050  -10.0360 C.3   226  MET226      0.0599
    115  SD       -34.1710  -68.0770   -8.4470 S.3   226  MET226     -0.1393
    116  CE       -32.7930  -66.9470   -8.4170 C.3   226  MET226      0.0692
    117  N        -36.3470  -72.4420   -8.4700 N.am  227  LEU227     -0.1977
    118  CA       -37.5880  -73.2340   -8.5570 C.3   227  LEU227      0.1596
    119  C        -38.4720  -72.6750   -9.6260 C.2   227  LEU227      0.2287
    120  O        -38.4540  -71.4870   -9.8960 O.2   227  LEU227     -0.2864
    121  CB       -38.2920  -73.2150   -7.1990 C.3   227  LEU227      0.0297
    122  CG       -37.4790  -73.7270   -6.0520 C.3   227  LEU227      0.0022
    123  CD1      -38.1850  -73.3830   -4.7290 C.3   227  LEU227      0.0001
    124  CD2      -37.2570  -75.2690   -6.1560 C.3   227  LEU227      0.0001
    125  N        -40.0260  -69.7040   -8.1030 N.3   230  ASP230     -0.1239
    126  CA       -39.1320  -68.5170   -8.1160 C.3   230  ASP230      0.1674
    127  C        -39.1550  -67.8430   -9.4970 C.2   230  ASP230      0.2266
    128  O        -39.2580  -66.5950   -9.6500 O.2   230  ASP230     -0.2867
    129  CB       -37.6880  -68.9550   -7.8730 C.3   230  ASP230      0.1410
    130  CG       -37.4270  -69.4960   -6.5240 C.2   230  ASP230      0.3668
    131  OD1      -38.0150  -69.1150   -5.5170 O.co2 230  ASP230     -0.2456
    132  OD2      -36.4920  -70.4080   -6.4090 O.co2 230  ASP230     -0.2456
@<TRIPOS>BOND
     1    84    83    2
     2    92    91    2
     3    83    82    1
     4    89    90    1
     5   112   111    2
     6   113   114    1
     7   113   110    1
     8    91    90    1
     9    91   101   am
    10   114   115    1
    11    95    97   ar
    12    95    94   ar
    13   120   119    2
    14   109   110    1
    15   109   103   am
    16    82    81    1
    17    82    85    1
    18   128   127    2
    19    90    93    1
    20   119   118    1
    21    93    94    1
    22   102   101    1
    23   102   103    1
    24   102   105    1
    25   127   126    1
    26    97    99   ar
    27   111   110    1
    28   111   117   am
    29    94    96   ar
    30   103   104    2
    31    87    86    2
    32   105   106    1
    33    88    86   am
    34    86    85    1
    35   118   117    1
    36   118   121    1
    37   115   116    1
    38   126   125    1
    39   126   129    1
    40    99   100    1
    41    99    98   ar
    42   129   130    1
    43    96    98   ar
    44    73    72    2
    45   106   107    1
    46   121   122    1
    47   108   107    1
    48    68    67   ar
    49   130   132   ar
    50   130   131   ar
    51    72    71    1
    52    64    63    2
    53   124   122    1
    54    44    45    1
    55   122   123    1
    56    67    69   ar
    57    67    66    1
    58    80    79   ar
    59    80    78   ar
    60    79    77   ar
    61    78    76   ar
    62    45    46    1
    63    71    70    1
    64    71    74    1
    65    76    75   ar
    66    77    75   ar
    67    63    70   am
    68    63    62    1
    69    75    74    1
    70    66    65    1
    71    62    65    1
    72    62    61    1
    73    42    41    1
    74    47    46    2
    75    46    48   am
    76    43    41    1
    77    41    38    1
    78    48    49    1
    79     7     9   ar
    80     7     6   ar
    81     5     6    1
    82     5     2    1
    83     9    10   ar
    84     4     3    2
    85     6     8   ar
    86    40    39    2
    87    38    37    1
    88    38    39    1
    89    37    30   am
    90    49    50    1
    91    49    52    1
    92     3    11   am
    93     3     2    1
    94    35    36    1
    95    35    34    1
    96    11    12    1
    97     2     1    1
    98    12    15    1
    99    12    13    1
   100    32    29    1
   101    32    33    1
   102    10     8   ar
   103    51    50    2
   104    50    53   am
   105    29    30    1
   106    29    28    1
   107    30    31    2
   108    27    26    2
   109    14    13    2
   110    13    16   am
   111    34    33    1
   112    53    54    1
   113    57    58    1
   114    57    54    1
   115    60    58   am
   116    28    26   am
   117    26    25    1
   118    58    59    2
   119    16    17    1
   120    54    55    1
   121    19    18    2
   122    18    17    1
   123    18    24   am
   124    17    20    1
   125    24    25    1
   126    55    56    2
   127    20    21    1
   128    21    23    1
   129    21    22    1
