@<TRIPOS>MOLECULE
tmp/4nvmA01.pdb
 119 116 0 0 0
SMALL
GASTEIGER

@<TRIPOS>ATOM
      1  N        -15.6080    7.0650    0.5530 N.3   172  HIS172     -0.1226
      2  CA       -16.2130    6.0110    1.3440 C.3   172  HIS172      0.1752
      3  C        -17.6040    6.3550    1.8050 C.2   172  HIS172      0.2596
      4  O        -18.2500    5.5570    2.5050 O.2   172  HIS172     -0.2718
      5  CB       -15.3090    5.5840    2.5000 C.3   172  HIS172      0.0759
      6  CG       -14.2730    4.5590    2.1060 C.ar  172  HIS172      0.0818
      7  ND1      -13.3550    4.0840    2.9630 N.ar  172  HIS172     -0.2268
      8  CD2      -14.0400    3.9260    0.8920 C.ar  172  HIS172      0.1154
      9  CE1      -12.5760    3.1930    2.3320 C.ar  172  HIS172      0.1986
     10  NE2      -12.9980    3.0970    1.0630 N.ar  172  HIS172     -0.2212
     11  N        -18.0970    7.5240    1.4050 N.am  173  ALA173     -0.1966
     12  CA       -19.5210    7.8000    1.4630 C.3   173  ALA173      0.1728
     13  C        -20.2960    6.8470    0.5660 C.2   173  ALA173      0.2616
     14  O        -21.5200    6.7050    0.6990 O.2   173  ALA173     -0.2715
     15  CB       -19.8170    9.2160    1.0550 C.3   173  ALA173      0.0334
     16  N        -19.6350    6.2870   -0.4270 N.am  174  LEU174     -0.1963
     17  CA       -20.2760    5.5450   -1.5150 C.3   174  LEU174      0.1728
     18  C        -20.3030    4.0700   -1.2580 C.2   174  LEU174      0.2617
     19  O        -19.3080    3.4680   -0.8910 O.2   174  LEU174     -0.2715
     20  CB       -19.5330    5.7700   -2.8300 C.3   174  LEU174      0.0311
     21  CG       -19.3730    7.2080   -3.3160 C.3   174  LEU174      0.0022
     22  CD1      -18.3650    7.3520   -4.5100 C.3   174  LEU174      0.0001
     23  CD2      -20.7420    7.8220   -3.6750 C.3   174  LEU174      0.0001
     24  N        -21.4000    3.4290   -1.6530 N.am  175  GLY175     -0.1940
     25  CA       -21.3560    1.9820   -1.6980 C.3   175  GLY175      0.2014
     26  C        -21.2760    1.2970   -0.3590 C.2   175  GLY175      0.2639
     27  O        -21.7530    1.8000    0.6760 O.2   175  GLY175     -0.2714
     28  N        -20.6860    0.1100   -0.3550 N.am  176  LYS176     -0.1963
     29  CA       -20.6280   -0.6870    0.8630 C.3   176  LYS176      0.1728
     30  C        -19.5300   -1.7370    0.7990 C.2   176  LYS176      0.2616
     31  O        -18.9780   -2.0020   -0.2600 O.2   176  LYS176     -0.2715
     32  CB       -21.9760   -1.3740    1.1010 C.3   176  LYS176      0.0311
     33  CG       -22.2980   -2.4680    0.0940 C.3   176  LYS176      0.0038
     34  CD       -23.6310   -3.1450    0.3820 C.3   176  LYS176      0.0206
     35  CE       -23.6200   -3.8740    1.7170 C.3   176  LYS176      0.1093
     36  NZ       -23.0110   -5.2340    1.6580 N.3   176  LYS176     -0.1314
     37  N        -19.2260   -2.3350    1.9440 N.am  177  THR177     -0.1951
     38  CA       -18.3240   -3.4500    1.9870 C.3   177  THR177      0.1897
     39  C        -19.1840   -4.7150    1.8190 C.2   177  THR177      0.2313
     40  O        -20.3840   -4.6900    2.0070 O.2   177  THR177     -0.2863
     41  CB       -17.4960   -3.5480    3.2850 C.3   177  THR177      0.1794
     42  OG1      -18.3500   -3.7970    4.3960 O.3   177  THR177     -0.2208
     43  CG2      -16.7320   -2.2290    3.5440 C.3   177  THR177      0.0378
     44  N        -22.5790   -1.6520    5.7740 N.3   187  GLY187     -0.1210
     45  CA       -23.6290   -0.9440    6.4820 C.3   187  GLY187      0.1956
     46  C        -24.4850   -0.1240    5.5340 C.2   187  GLY187      0.2612
     47  O        -24.4080   -0.2860    4.3200 O.2   187  GLY187     -0.2717
     48  N        -25.3040    0.7630    6.0830 N.am  188  GLY188     -0.1942
     49  CA       -26.1000    1.6420    5.2480 C.3   188  GLY188      0.2014
     50  C        -25.2770    2.0480    4.0400 C.2   188  GLY188      0.2638
     51  O        -24.0980    2.3740    4.1780 O.2   188  GLY188     -0.2714
     52  N        -25.8900    2.0110    2.8600 N.am  189  ALA189     -0.1977
     53  CA       -25.1870    2.3070    1.6180 C.3   189  ALA189      0.1597
     54  C        -25.8820    3.3920    0.8050 C.2   189  ALA189      0.2287
     55  O        -27.1070    3.5020    0.8170 O.2   189  ALA189     -0.2864
     56  CB       -25.0370    1.0500    0.7830 C.3   189  ALA189      0.0319
     57  N        -19.4690   11.0520    4.6430 N.3   197  PHE197     -0.1241
     58  CA       -18.4400   10.2390    5.2960 C.3   197  PHE197      0.1605
     59  C        -17.9530   10.9460    6.5560 C.2   197  PHE197      0.2264
     60  O        -17.8540   10.3460    7.6230 O.2   197  PHE197     -0.2867
     61  CB       -17.2760    9.9950    4.3270 C.3   197  PHE197      0.0534
     62  CG       -16.1010    9.2590    4.9240 C.ar  197  PHE197     -0.0203
     63  CD1      -16.1570    7.8980    5.1620 C.ar  197  PHE197     -0.0042
     64  CD2      -14.9260    9.9300    5.2070 C.ar  197  PHE197     -0.0042
     65  CE1      -15.0700    7.2250    5.6850 C.ar  197  PHE197     -0.0003
     66  CE2      -13.8340    9.2640    5.7300 C.ar  197  PHE197     -0.0003
     67  CZ       -13.9070    7.9090    5.9690 C.ar  197  PHE197     -0.0000
     68  N        -20.7510   11.4020    9.2440 N.3   200  ASN200     -0.1240
     69  CA       -21.0070   10.1580    9.9480 C.3   200  ASN200      0.1653
     70  C        -19.9000    9.8840   10.9880 C.2   200  ASN200      0.2266
     71  O        -20.1530    9.5360   12.1490 O.2   200  ASN200     -0.2867
     72  CB       -21.1580    9.0140    8.9800 C.3   200  ASN200      0.1155
     73  CG       -22.4560    9.0630    8.1950 C.2   200  ASN200      0.2627
     74  OD1      -23.3600    9.8730    8.4840 O.2   200  ASN200     -0.2716
     75  ND2      -22.5790    8.1520    7.2240 N.am  200  ASN200     -0.0877
     76  N        -24.5700    2.2530   10.1610 N.3   224  TYR224     -0.1227
     77  CA       -23.3840    2.6000    9.3700 C.3   224  TYR224      0.1736
     78  C        -22.1710    1.8380    9.8800 C.2   224  TYR224      0.2595
     79  O        -22.2100    1.2510   10.9590 O.2   224  TYR224     -0.2718
     80  CB       -23.1260    4.0990    9.4480 C.3   224  TYR224      0.0548
     81  CG       -24.2110    4.9840    8.8660 C.ar  224  TYR224     -0.0200
     82  CD1      -24.8260    5.9390    9.6580 C.ar  224  TYR224     -0.0009
     83  CD2      -24.5020    4.9450    7.5040 C.ar  224  TYR224     -0.0009
     84  CE1      -25.8250    6.7850    9.1420 C.ar  224  TYR224      0.0417
     85  CE2      -25.5000    5.7850    6.9520 C.ar  224  TYR224      0.0417
     86  CZ       -26.1730    6.6680    7.7970 C.ar  224  TYR224      0.1957
     87  OH       -27.1640    7.4920    7.2930 O.3   224  TYR224     -0.2866
     88  N        -21.1200    1.7490    9.0580 N.am  225  MET225     -0.1965
     89  CA       -19.8740    1.1160    9.4890 C.3   225  MET225      0.1736
     90  C        -18.6840    1.9430    9.0200 C.2   225  MET225      0.2616
     91  O        -18.7990    2.7370    8.1020 O.2   225  MET225     -0.2715
     92  CB       -19.7160   -0.3370    9.0260 C.3   225  MET225      0.0427
     93  CG       -19.6780   -0.5520    7.5960 C.3   225  MET225      0.0599
     94  SD       -18.0330   -0.2890    6.8610 S.3   225  MET225     -0.1393
     95  CE       -17.1570   -1.7410    7.3770 C.3   225  MET225      0.0692
     96  N        -17.5660    1.7880    9.7260 N.am  226  MET226     -0.1963
     97  CA       -16.2800    2.3680    9.3390 C.3   226  MET226      0.1736
     98  C        -15.2220    1.2830    9.4570 C.2   226  MET226      0.2616
     99  O        -15.1810    0.5510   10.4630 O.2   226  MET226     -0.2715
    100  CB       -15.9410    3.5650   10.2500 C.3   226  MET226      0.0427
    101  CG       -16.8580    4.8040   10.0670 C.3   226  MET226      0.0599
    102  SD       -16.5120    5.6230    8.5000 S.3   226  MET226     -0.1393
    103  CE       -17.9220    6.7650    8.3970 C.3   226  MET226      0.0692
    104  N        -14.3060    1.1960    8.5060 N.am  227  LEU227     -0.1977
    105  CA       -13.1060    0.3670    8.6080 C.3   227  LEU227      0.1596
    106  C        -12.2250    0.9400    9.7050 C.2   227  LEU227      0.2287
    107  O        -12.2120    2.1450    9.9360 O.2   227  LEU227     -0.2864
    108  CB       -12.3370    0.3880    7.2790 C.3   227  LEU227      0.0297
    109  CG       -13.1640   -0.0950    6.1060 C.3   227  LEU227      0.0022
    110  CD1      -12.5010    0.2200    4.7620 C.3   227  LEU227      0.0001
    111  CD2      -13.4080   -1.6490    6.2340 C.3   227  LEU227      0.0001
    112  N        -10.6170    3.9190    8.2250 N.3   230  ASP230     -0.1239
    113  CA       -11.5030    5.0960    8.1840 C.3   230  ASP230      0.1674
    114  C        -11.5190    5.7870    9.5600 C.2   230  ASP230      0.2266
    115  O        -11.4610    7.0270    9.6930 O.2   230  ASP230     -0.2867
    116  CB       -12.9630    4.6900    7.8810 C.3   230  ASP230      0.1410
    117  CG       -13.1940    4.1190    6.5320 C.2   230  ASP230      0.3668
    118  OD1      -12.5510    4.5210    5.5650 O.co2 230  ASP230     -0.2456
    119  OD2      -14.1160    3.2290    6.4300 O.co2 230  ASP230     -0.2456
@<TRIPOS>BOND
     1    22    21    1
     2    23    21    1
     3    21    20    1
     4    20    17    1
     5    25    24    1
     6    25    26    1
     7    24    18   am
     8    17    18    1
     9    17    16    1
    10    18    19    2
    11    16    13   am
    12    26    28   am
    13    26    27    2
    14    28    29    1
    15    31    30    2
    16    33    34    1
    17    33    32    1
    18    34    35    1
    19     1     2    1
    20    13    14    2
    21    13    12    1
    22    56    53    1
    23    30    29    1
    24    30    37   am
    25    54    55    2
    26    54    53    1
    27    29    32    1
    28     8    10   ar
    29     8     6   ar
    30    15    12    1
    31    10     9   ar
    32     2     3    1
    33     2     5    1
    34    11    12    1
    35    11     3   am
    36    53    52    1
    37    36    35    1
    38     3     4    2
    39    39    38    1
    40    39    40    2
    41    37    38    1
    42    38    41    1
    43     6     5    1
    44     6     7   ar
    45     9     7   ar
    46    52    50   am
    47    41    43    1
    48    41    42    1
    49    50    51    2
    50    50    49    1
    51    47    46    2
    52    61    62    1
    53    61    58    1
    54    57    58    1
    55   110   109    1
    56    62    63   ar
    57    62    64   ar
    58    63    65   ar
    59    64    66   ar
    60    49    48    1
    61    58    59    1
    62    46    48   am
    63    46    45    1
    64   118   117   ar
    65    65    67   ar
    66    66    67   ar
    67    44    45    1
    68   109   111    1
    69   109   108    1
    70   119   117   ar
    71   117   116    1
    72    59    60    2
    73    94    95    1
    74    94    93    1
    75    85    83   ar
    76    85    86   ar
    77    75    73   am
    78   108   105    1
    79    87    86    1
    80    83    81   ar
    81    93    92    1
    82    86    84   ar
    83   116   113    1
    84    91    90    2
    85   113   112    1
    86   113   114    1
    87    73    74    2
    88    73    72    1
    89   103   102    1
    90   102   101    1
    91   104   105    1
    92   104    98   am
    93   105   106    1
    94    81    80    1
    95    81    82   ar
    96    72    69    1
    97    90    89    1
    98    90    96   am
    99    92    89    1
   100    88    89    1
   101    88    78   am
   102    84    82   ar
   103    68    69    1
   104    97    98    1
   105    97    96    1
   106    97   100    1
   107    77    80    1
   108    77    78    1
   109    77    76    1
   110    98    99    2
   111   114   115    2
   112   106   107    2
   113    78    79    2
   114    69    70    1
   115   101   100    1
   116    70    71    2
