@<TRIPOS>MOLECULE
tmp/4nvnA01.pdb
 123 120 0 0 0
SMALL
GASTEIGER

@<TRIPOS>ATOM
      1  N         15.6990    7.0250   -0.3110 N.3   172  HIS172     -0.1226
      2  CA        16.4180    6.0320   -1.1270 C.3   172  HIS172      0.1752
      3  C         17.7770    6.5080   -1.6140 C.2   172  HIS172      0.2596
      4  O         18.4220    5.7650   -2.3510 O.2   172  HIS172     -0.2718
      5  CB        15.5270    5.5160   -2.2520 C.3   172  HIS172      0.0759
      6  CG        14.4920    4.5130   -1.7970 C.ar  172  HIS172      0.0818
      7  ND1       13.5790    3.9660   -2.6950 N.ar  172  HIS172     -0.2268
      8  CD2       14.2460    3.9270   -0.5950 C.ar  172  HIS172      0.1154
      9  CE1       12.8430    3.0720   -2.0530 C.ar  172  HIS172      0.1986
     10  NE2       13.1970    3.0520   -0.7710 N.ar  172  HIS172     -0.2212
     11  N         18.2520    7.6710   -1.1610 N.am  173  ALA173     -0.1966
     12  CA        19.6760    7.9260   -1.2260 C.3   173  ALA173      0.1728
     13  C         20.4150    6.8980   -0.3910 C.2   173  ALA173      0.2616
     14  O         21.6230    6.6400   -0.6010 O.2   173  ALA173     -0.2715
     15  CB        19.9940    9.2960   -0.6940 C.3   173  ALA173      0.0334
     16  N         19.7600    6.3630    0.6250 N.am  174  LEU174     -0.1963
     17  CA        20.4100    5.5820    1.6640 C.3   174  LEU174      0.1728
     18  C         20.4110    4.1210    1.3620 C.2   174  LEU174      0.2617
     19  O         19.4860    3.5930    0.8420 O.2   174  LEU174     -0.2715
     20  CB        19.6810    5.7960    3.0170 C.3   174  LEU174      0.0311
     21  CG        19.5720    7.2180    3.5810 C.3   174  LEU174      0.0022
     22  CD1       18.5440    7.2010    4.7510 C.3   174  LEU174      0.0001
     23  CD2       20.9350    7.7310    3.9320 C.3   174  LEU174      0.0001
     24  N         21.4920    3.4580    1.7880 N.am  175  GLY175     -0.1940
     25  CA        21.4740    2.0040    1.8420 C.3   175  GLY175      0.2014
     26  C         21.3270    1.3600    0.4720 C.2   175  GLY175      0.2639
     27  O         21.7770    1.8990   -0.5670 O.2   175  GLY175     -0.2714
     28  N         20.6990    0.1870    0.4620 N.am  176  LYS176     -0.1963
     29  CA        20.6310   -0.6350   -0.7440 C.3   176  LYS176      0.1728
     30  C         19.5910   -1.7270   -0.5760 C.2   176  LYS176      0.2616
     31  O         19.1220   -2.0040    0.5320 O.2   176  LYS176     -0.2715
     32  CB        22.0170   -1.2350   -1.0670 C.3   176  LYS176      0.0311
     33  CG        22.5190   -2.2580   -0.0730 C.3   176  LYS176      0.0038
     34  CD        23.9740   -2.6990   -0.3470 C.3   176  LYS176      0.0206
     35  CE        24.4530   -3.7460    0.6810 C.3   176  LYS176      0.1093
     36  NZ        25.7770   -4.4060    0.2620 N.3   176  LYS176     -0.1314
     37  N         19.2670   -2.3740   -1.7070 N.am  177  THR177     -0.1951
     38  CA        18.4010   -3.5210   -1.7220 C.3   177  THR177      0.1897
     39  C         19.3120   -4.7670   -1.5460 C.2   177  THR177      0.2313
     40  O         20.5200   -4.6950   -1.8030 O.2   177  THR177     -0.2863
     41  CB        17.5890   -3.6630   -3.0550 C.3   177  THR177      0.1794
     42  OG1       18.4880   -3.9180   -4.1420 O.3   177  THR177     -0.2208
     43  CG2       16.8480   -2.3750   -3.3640 C.3   177  THR177      0.0378
     44  N         25.3390    0.4850   -5.7120 N.3   188  GLY188     -0.1210
     45  CA        26.1110    1.2930   -4.7920 C.3   188  GLY188      0.1956
     46  C         25.2420    1.7680   -3.6450 C.2   188  GLY188      0.2612
     47  O         24.0650    2.0560   -3.8330 O.2   188  GLY188     -0.2717
     48  N         25.8260    1.8460   -2.4560 N.am  189  ALA189     -0.1965
     49  CA        25.0980    2.2770   -1.2720 C.3   189  ALA189      0.1728
     50  C         25.7320    3.5240   -0.6760 C.2   189  ALA189      0.2616
     51  O         26.8960    3.8120   -0.9210 O.2   189  ALA189     -0.2715
     52  CB        25.0610    1.1640   -0.2430 C.3   189  ALA189      0.0334
     53  N         24.9510    4.2610    0.1030 N.am  190  ASN190     -0.1972
     54  CA        25.4470    5.4520    0.7690 C.3   190  ASN190      0.1688
     55  C         25.0580    5.4150    2.2130 C.2   190  ASN190      0.2292
     56  O         24.0570    4.8020    2.5740 O.2   190  ASN190     -0.2864
     57  CB        24.8150    6.7100    0.1820 C.3   190  ASN190      0.1181
     58  CG        25.1790    6.9290   -1.2610 C.2   190  ASN190      0.2629
     59  OD1       26.3540    7.0100   -1.6090 O.2   190  ASN190     -0.2716
     60  ND2       24.1660    7.0420   -2.1120 N.am  190  ASN190     -0.0877
     61  N         19.6170   10.8830   -4.4640 N.3   197  PHE197     -0.1241
     62  CA        18.6240   10.0400   -5.1520 C.3   197  PHE197      0.1605
     63  C         18.1370   10.7550   -6.4120 C.2   197  PHE197      0.2264
     64  O         18.0350   10.1310   -7.4810 O.2   197  PHE197     -0.2867
     65  CB        17.4480    9.7830   -4.2060 C.3   197  PHE197      0.0534
     66  CG        16.2980    9.0140   -4.8080 C.ar  197  PHE197     -0.0203
     67  CD1       16.3790    7.6550   -5.0860 C.ar  197  PHE197     -0.0042
     68  CD2       15.1000    9.6750   -5.0670 C.ar  197  PHE197     -0.0042
     69  CE1       15.2890    6.9860   -5.5700 C.ar  197  PHE197     -0.0003
     70  CE2       14.0150    8.9880   -5.5210 C.ar  197  PHE197     -0.0003
     71  CZ        14.1340    7.6070   -5.7900 C.ar  197  PHE197     -0.0000
     72  N         20.9170   11.1480   -9.0750 N.3   200  ASN200     -0.1240
     73  CA        21.1470    9.8620   -9.7260 C.3   200  ASN200      0.1653
     74  C         20.0630    9.6150  -10.7630 C.2   200  ASN200      0.2266
     75  O         20.3330    9.1720  -11.8930 O.2   200  ASN200     -0.2867
     76  CB        21.2070    8.7080   -8.7400 C.3   200  ASN200      0.1155
     77  CG        22.4200    8.7320   -7.8190 C.2   200  ASN200      0.2627
     78  OD1       23.3790    9.4370   -8.0590 O.2   200  ASN200     -0.2716
     79  ND2       22.3790    7.8920   -6.7760 N.am  200  ASN200     -0.0877
     80  N         24.7480    1.8530  -10.0220 N.3   224  TYR224     -0.1227
     81  CA        23.5820    2.1280   -9.1840 C.3   224  TYR224      0.1736
     82  C         22.3780    1.4050   -9.7580 C.2   224  TYR224      0.2595
     83  O         22.3920    0.9050  -10.9090 O.2   224  TYR224     -0.2718
     84  CB        23.2700    3.6200   -9.1350 C.3   224  TYR224      0.0548
     85  CG        24.1870    4.4590   -8.2790 C.ar  224  TYR224     -0.0200
     86  CD1       24.9530    5.4500   -8.8560 C.ar  224  TYR224     -0.0009
     87  CD2       24.2700    4.2780   -6.8940 C.ar  224  TYR224     -0.0009
     88  CE1       25.7910    6.2530   -8.0960 C.ar  224  TYR224      0.0417
     89  CE2       25.1290    5.0970   -6.0970 C.ar  224  TYR224      0.0417
     90  CZ        25.8900    6.0730   -6.7360 C.ar  224  TYR224      0.1957
     91  OH        26.7650    6.9170   -6.0380 O.3   224  TYR224     -0.2866
     92  N         21.3260    1.3500   -8.9530 N.am  225  MET225     -0.1965
     93  CA        20.0350    0.7830   -9.3750 C.3   225  MET225      0.1736
     94  C         18.9070    1.6740   -8.8950 C.2   225  MET225      0.2616
     95  O         19.0670    2.4320   -7.9250 O.2   225  MET225     -0.2715
     96  CB        19.8300   -0.6490   -8.8550 C.3   225  MET225      0.0427
     97  CG        19.7970   -0.8670   -7.3940 C.3   225  MET225      0.0599
     98  SD        18.1990   -0.4790   -6.6240 S.3   225  MET225     -0.1393
     99  CE        17.3330   -1.9680   -7.0440 C.3   225  MET225      0.0692
    100  N         17.7830    1.5390   -9.5730 N.am  226  MET226     -0.1963
    101  CA        16.4940    2.1370   -9.1880 C.3   226  MET226      0.1736
    102  C         15.4250    1.0530   -9.2670 C.2   226  MET226      0.2616
    103  O         15.3530    0.2800  -10.2220 O.2   226  MET226     -0.2715
    104  CB        16.1440    3.3310  -10.0990 C.3   226  MET226      0.0427
    105  CG        17.0420    4.5160   -9.9570 C.3   226  MET226      0.0599
    106  SD        16.6700    5.4570   -8.4470 S.3   226  MET226     -0.1393
    107  CE        18.0850    6.6270   -8.4680 C.3   226  MET226      0.0692
    108  N         14.5430    0.9570   -8.3030 N.am  227  LEU227     -0.1977
    109  CA        13.3170    0.1750   -8.3590 C.3   227  LEU227      0.1596
    110  C         12.4130    0.7600   -9.4140 C.2   227  LEU227      0.2287
    111  O         12.4630    1.9490   -9.6980 O.2   227  LEU227     -0.2864
    112  CB        12.5720    0.2040   -7.0010 C.3   227  LEU227      0.0297
    113  CG        13.3910   -0.2930   -5.8400 C.3   227  LEU227      0.0022
    114  CD1       12.6960    0.1280   -4.5070 C.3   227  LEU227      0.0001
    115  CD2       13.5540   -1.8240   -5.8580 C.3   227  LEU227      0.0001
    116  N         10.8930    3.7840   -7.9450 N.3   230  ASP230     -0.1239
    117  CA        11.8230    4.9030   -7.9530 C.3   230  ASP230      0.1674
    118  C         11.7950    5.6160   -9.3130 C.2   230  ASP230      0.2266
    119  O         11.6570    6.8380   -9.4720 O.2   230  ASP230     -0.2867
    120  CB        13.2730    4.4480   -7.7140 C.3   230  ASP230      0.1410
    121  CG        13.5450    3.8670   -6.3500 C.2   230  ASP230      0.3668
    122  OD1       12.8950    4.3150   -5.3750 O.co2 230  ASP230     -0.2456
    123  OD2       14.5390    3.0600   -6.2460 O.co2 230  ASP230     -0.2456
@<TRIPOS>BOND
     1    75    74    2
     2    83    82    2
     3    74    73    1
     4   103   102    2
     5   104   105    1
     6   104   101    1
     7    80    81    1
     8   105   106    1
     9    82    81    1
    10    82    92   am
    11    73    72    1
    12    73    76    1
    13   111   110    2
    14   100   101    1
    15   100    94   am
    16   119   118    2
    17   110   109    1
    18    93    92    1
    19    93    94    1
    20    93    96    1
    21   118   117    1
    22   102   101    1
    23   102   108   am
    24    81    84    1
    25    84    85    1
    26    94    95    2
    27    86    85   ar
    28    86    88   ar
    29    96    97    1
    30    76    77    1
    31   107   106    1
    32   109   108    1
    33   109   112    1
    34    85    87   ar
    35    88    90   ar
    36    78    77    2
    37   117   116    1
    38   117   120    1
    39    77    79   am
    40   120   121    1
    41    64    63    2
    42    97    98    1
    43    99    98    1
    44   112   113    1
    45    87    89   ar
    46    90    89   ar
    47    90    91    1
    48    63    62    1
    49   121   123   ar
    50   121   122   ar
    51   115   113    1
    52   113   114    1
    53    71    69   ar
    54    71    70   ar
    55    44    45    1
    56    69    67   ar
    57    70    68   ar
    58    62    61    1
    59    62    65    1
    60    67    66   ar
    61    68    66   ar
    62    66    65    1
    63    45    46    1
    64    42    41    1
    65    47    46    2
    66    46    48   am
    67    43    41    1
    68    41    38    1
    69     7     9   ar
    70     7     6   ar
    71    48    49    1
    72     4     3    2
    73     5     6    1
    74     5     2    1
    75    60    58   am
    76     9    10   ar
    77    40    39    2
    78     6     8   ar
    79    38    37    1
    80    38    39    1
    81    37    30   am
    82     3    11   am
    83     3     2    1
    84    59    58    2
    85    49    50    1
    86    49    52    1
    87    58    57    1
    88    12    11    1
    89    12    15    1
    90    12    13    1
    91     2     1    1
    92    32    29    1
    93    32    33    1
    94    51    50    2
    95    10     8   ar
    96    29    30    1
    97    29    28    1
    98    50    53   am
    99    14    13    2
   100    30    31    2
   101    27    26    2
   102    13    16   am
   103    34    33    1
   104    34    35    1
   105    53    54    1
   106    57    54    1
   107    36    35    1
   108    28    26   am
   109    26    25    1
   110    16    17    1
   111    54    55    1
   112    19    18    2
   113    18    17    1
   114    18    24   am
   115    17    20    1
   116    24    25    1
   117    55    56    2
   118    20    21    1
   119    21    23    1
   120    21    22    1
