@<TRIPOS>MOLECULE
tmp/4nvoA01.pdb
 127 124 0 0 0
SMALL
GASTEIGER

@<TRIPOS>ATOM
      1  N        -15.8690    7.3240    0.7180 N.3   172  HIS172     -0.1226
      2  CA       -16.4090    6.2240    1.5060 C.3   172  HIS172      0.1752
      3  C        -17.8380    6.4910    1.9860 C.2   172  HIS172      0.2596
      4  O        -18.4300    5.6760    2.6860 O.2   172  HIS172     -0.2718
      5  CB       -15.4760    5.8610    2.6620 C.3   172  HIS172      0.0759
      6  CG       -14.4450    4.8430    2.2930 C.ar  172  HIS172      0.0818
      7  ND1      -13.5140    4.3610    3.1860 N.ar  172  HIS172     -0.2268
      8  CD2      -14.2010    4.2130    1.1200 C.ar  172  HIS172      0.1154
      9  CE1      -12.7440    3.4760    2.5800 C.ar  172  HIS172      0.1986
     10  NE2      -13.1410    3.3680    1.3260 N.ar  172  HIS172     -0.2212
     11  N        -18.3890    7.6290    1.5850 N.am  173  ALA173     -0.1966
     12  CA       -19.7940    7.9150    1.8280 C.3   173  ALA173      0.1728
     13  C        -20.6300    7.0620    0.8860 C.2   173  ALA173      0.2616
     14  O        -21.8280    6.8910    1.0770 O.2   173  ALA173     -0.2715
     15  CB       -20.0830    9.3850    1.5930 C.3   173  ALA173      0.0334
     16  N        -19.9770    6.5350   -0.1410 N.am  174  LEU174     -0.1963
     17  CA       -20.6620    5.7640   -1.1930 C.3   174  LEU174      0.1728
     18  C        -20.6720    4.2720   -0.9460 C.2   174  LEU174      0.2617
     19  O        -19.6890    3.6550   -0.5060 O.2   174  LEU174     -0.2715
     20  CB       -19.9650    6.0230   -2.5370 C.3   174  LEU174      0.0311
     21  CG       -19.8850    7.4890   -3.0000 C.3   174  LEU174      0.0022
     22  CD1      -18.8810    7.6500   -4.1700 C.3   174  LEU174      0.0001
     23  CD2      -21.2490    7.9840   -3.3590 C.3   174  LEU174      0.0001
     24  N        -21.7580    3.6220   -1.3240 N.am  175  GLY175     -0.1940
     25  CA       -21.6750    2.1890   -1.4130 C.3   175  GLY175      0.2014
     26  C        -21.6200    1.4990   -0.0500 C.2   175  GLY175      0.2639
     27  O        -22.1500    1.9980    0.9510 O.2   175  GLY175     -0.2714
     28  N        -20.9750    0.3420   -0.0210 N.am  176  LYS176     -0.1963
     29  CA       -20.9380   -0.4850    1.1790 C.3   176  LYS176      0.1728
     30  C        -19.7720   -1.4560    1.1360 C.2   176  LYS176      0.2616
     31  O        -19.1060   -1.5880    0.1230 O.2   176  LYS176     -0.2715
     32  CB       -22.2570   -1.2580    1.3310 C.3   176  LYS176      0.0311
     33  CG       -22.4320   -2.3240    0.2780 C.3   176  LYS176      0.0038
     34  CD       -23.7280   -3.1360    0.5110 C.3   176  LYS176      0.0206
     35  CE       -23.7760   -3.7860    1.8910 C.3   176  LYS176      0.1093
     36  NZ       -23.3160   -5.2140    1.8820 N.3   176  LYS176     -0.1314
     37  N        -19.5190   -2.1390    2.2570 N.am  177  THR177     -0.1951
     38  CA       -18.5790   -3.2410    2.2970 C.3   177  THR177      0.1897
     39  C        -19.3860   -4.5310    2.1220 C.2   177  THR177      0.2313
     40  O        -20.5860   -4.5560    2.3830 O.2   177  THR177     -0.2863
     41  CB       -17.7650   -3.2920    3.6130 C.3   177  THR177      0.1794
     42  OG1      -18.6340   -3.4540    4.7420 O.3   177  THR177     -0.2208
     43  CG2      -16.9620   -1.9690    3.7960 C.3   177  THR177      0.0378
     44  N        -22.8400   -1.5820    6.0770 N.3   187  GLY187     -0.1210
     45  CA       -23.7970   -0.8200    6.8200 C.3   187  GLY187      0.1956
     46  C        -24.6410   -0.0130    5.8430 C.2   187  GLY187      0.2612
     47  O        -24.6920   -0.3590    4.6500 O.2   187  GLY187     -0.2717
     48  N        -25.3490    0.9840    6.3610 N.am  188  GLY188     -0.1942
     49  CA       -26.1440    1.8790    5.5460 C.3   188  GLY188      0.2014
     50  C        -25.3290    2.4110    4.4010 C.2   188  GLY188      0.2639
     51  O        -24.1640    2.7630    4.5860 O.2   188  GLY188     -0.2714
     52  N        -25.9500    2.5400    3.2450 N.am  189  ALA189     -0.1963
     53  CA       -25.2670    2.8490    1.9880 C.3   189  ALA189      0.1728
     54  C        -26.0770    3.8580    1.1920 C.2   189  ALA189      0.2616
     55  O        -27.2890    3.8600    1.2310 O.2   189  ALA189     -0.2715
     56  CB       -25.0680    1.5870    1.1660 C.3   189  ALA189      0.0334
     57  N        -25.3790    4.6720    0.4380 N.am  190  ASN190     -0.1972
     58  CA       -25.9550    5.6620   -0.4350 C.3   190  ASN190      0.1688
     59  C        -25.2140    5.6910   -1.7600 C.2   190  ASN190      0.2292
     60  O        -24.0950    5.1810   -1.8990 O.2   190  ASN190     -0.2864
     61  CB       -25.9680    7.0500    0.1970 C.3   190  ASN190      0.1181
     62  CG       -27.0870    7.9610   -0.3770 C.2   190  ASN190      0.2629
     63  OD1      -28.0510    7.5410   -1.1360 O.2   190  ASN190     -0.2716
     64  ND2      -27.0010    9.2170    0.0090 N.am  190  ASN190     -0.0877
     65  N        -19.8030   11.3460    4.8180 N.3   197  PHE197     -0.1241
     66  CA       -18.8100   10.5490    5.5100 C.3   197  PHE197      0.1605
     67  C        -18.3080   11.2850    6.7590 C.2   197  PHE197      0.2264
     68  O        -18.1330   10.7030    7.8520 O.2   197  PHE197     -0.2867
     69  CB       -17.6610   10.2710    4.5650 C.3   197  PHE197      0.0534
     70  CG       -16.5270    9.5040    5.1560 C.ar  197  PHE197     -0.0203
     71  CD1      -16.5940    8.1170    5.3870 C.ar  197  PHE197     -0.0042
     72  CD2      -15.3330   10.1490    5.4180 C.ar  197  PHE197     -0.0042
     73  CE1      -15.5040    7.4400    5.8740 C.ar  197  PHE197     -0.0003
     74  CE2      -14.1940    9.4200    5.9240 C.ar  197  PHE197     -0.0003
     75  CZ       -14.3140    8.0850    6.1580 C.ar  197  PHE197     -0.0000
     76  N        -21.0230   11.6600    9.4610 N.3   200  ASN200     -0.1240
     77  CA       -21.2620   10.4130   10.1590 C.3   200  ASN200      0.1653
     78  C        -20.1190   10.1410   11.1300 C.2   200  ASN200      0.2266
     79  O        -20.3600    9.7320   12.2710 O.2   200  ASN200     -0.2867
     80  CB       -21.4030    9.2590    9.1590 C.3   200  ASN200      0.1155
     81  CG       -22.7020    9.3290    8.3680 C.2   200  ASN200      0.2627
     82  OD1      -23.6920    9.8970    8.8200 O.2   200  ASN200     -0.2716
     83  ND2      -22.7100    8.7150    7.1880 N.am  200  ASN200     -0.0877
     84  N        -24.6650    2.0300   10.4150 N.3   224  TYR224     -0.1227
     85  CA       -23.4900    2.3730    9.6060 C.3   224  TYR224      0.1736
     86  C        -22.2640    1.6710   10.1470 C.2   224  TYR224      0.2595
     87  O        -22.3160    1.0980   11.2330 O.2   224  TYR224     -0.2718
     88  CB       -23.2750    3.8730    9.6850 C.3   224  TYR224      0.0548
     89  CG       -24.3740    4.7330    9.1260 C.ar  224  TYR224     -0.0200
     90  CD1      -24.6450    5.9630    9.6870 C.ar  224  TYR224     -0.0009
     91  CD2      -25.0990    4.3440    8.0140 C.ar  224  TYR224     -0.0009
     92  CE1      -25.6530    6.7770    9.1820 C.ar  224  TYR224      0.0417
     93  CE2      -26.0900    5.1640    7.4800 C.ar  224  TYR224      0.0417
     94  CZ       -26.3570    6.3800    8.0870 C.ar  224  TYR224      0.1957
     95  OH       -27.3470    7.2050    7.5860 O.3   224  TYR224     -0.2866
     96  N        -21.1500    1.6820    9.4000 N.am  225  MET225     -0.1965
     97  CA       -19.9140    1.0820    9.8520 C.3   225  MET225      0.1736
     98  C        -18.7910    1.9960    9.4230 C.2   225  MET225      0.2616
     99  O        -18.9770    2.7490    8.4840 O.2   225  MET225     -0.2715
    100  CB       -19.6840   -0.2980    9.2560 C.3   225  MET225      0.0427
    101  CG       -19.4970   -0.3700    7.7730 C.3   225  MET225      0.0599
    102  SD       -17.8270   -0.1070    7.1980 S.3   225  MET225     -0.1393
    103  CE       -16.9680   -1.5310    7.8300 C.3   225  MET225      0.0692
    104  N        -17.6640    1.9070   10.1050 N.am  226  MET226     -0.1963
    105  CA       -16.4030    2.4980    9.6540 C.3   226  MET226      0.1736
    106  C        -15.3390    1.4350    9.7230 C.2   226  MET226      0.2616
    107  O        -15.2730    0.6550   10.6990 O.2   226  MET226     -0.2715
    108  CB       -16.0280    3.6700   10.5570 C.3   226  MET226      0.0427
    109  CG       -16.9640    4.8810   10.4550 C.3   226  MET226      0.0599
    110  SD       -16.6670    5.7640    8.8630 S.3   226  MET226     -0.1393
    111  CE       -18.1300    6.7820    8.7290 C.3   226  MET226      0.0692
    112  N        -14.4460    1.4150    8.7520 N.am  227  LEU227     -0.1977
    113  CA       -13.2250    0.6340    8.8600 C.3   227  LEU227      0.1596
    114  C        -12.3090    1.2350    9.8850 C.2   227  LEU227      0.2287
    115  O        -12.3670    2.4030   10.1510 O.2   227  LEU227     -0.2864
    116  CB       -12.5050    0.5720    7.5060 C.3   227  LEU227      0.0297
    117  CG       -13.3390    0.1080    6.3160 C.3   227  LEU227      0.0022
    118  CD1      -12.6980    0.5470    5.0010 C.3   227  LEU227      0.0001
    119  CD2      -13.4640   -1.4410    6.3890 C.3   227  LEU227      0.0001
    120  N        -10.8320    4.2210    8.3770 N.3   230  ASP230     -0.1239
    121  CA       -11.7760    5.3370    8.3340 C.3   230  ASP230      0.1674
    122  C        -11.7580    6.0710    9.6960 C.2   230  ASP230      0.2266
    123  O        -11.6970    7.3070    9.7990 O.2   230  ASP230     -0.2867
    124  CB       -13.2130    4.8760    8.0720 C.3   230  ASP230      0.1410
    125  CG       -13.4410    4.3380    6.7180 C.2   230  ASP230      0.3668
    126  OD1      -12.8310    4.8370    5.7500 O.co2 230  ASP230     -0.2456
    127  OD2      -14.2920    3.4180    6.6150 O.co2 230  ASP230     -0.2456
@<TRIPOS>BOND
     1    22    21    1
     2    23    21    1
     3    21    20    1
     4    20    17    1
     5    60    59    2
     6    59    58    1
     7    25    24    1
     8    25    26    1
     9    24    18   am
    10    17    18    1
    11    17    16    1
    12    63    62    2
    13    18    19    2
    14    58    61    1
    15    58    57    1
    16    62    64   am
    17    62    61    1
    18    16    13   am
    19    26    28   am
    20    26    27    2
    21    28    29    1
    22    31    30    2
    23    33    34    1
    24    33    32    1
    25    57    54   am
    26    34    35    1
    27     1     2    1
    28    13    14    2
    29    13    12    1
    30     8    10   ar
    31     8     6   ar
    32    30    29    1
    33    30    37   am
    34    56    53    1
    35    29    32    1
    36    54    55    2
    37    54    53    1
    38    10     9   ar
    39     2     3    1
    40     2     5    1
    41    11    12    1
    42    11     3   am
    43    15    12    1
    44    36    35    1
    45     3     4    2
    46    53    52    1
    47    39    38    1
    48    39    40    2
    49    37    38    1
    50     6     5    1
    51     6     7   ar
    52    38    41    1
    53     9     7   ar
    54    52    50   am
    55    41    43    1
    56    41    42    1
    57    50    51    2
    58    50    49    1
    59    69    70    1
    60    69    66    1
    61    47    46    2
    62    65    66    1
    63   118   117    1
    64    70    71   ar
    65    70    72   ar
    66    71    73   ar
    67    72    74   ar
    68    66    67    1
    69    49    48    1
    70   126   125   ar
    71    46    48   am
    72    46    45    1
    73    73    75   ar
    74    74    75   ar
    75    44    45    1
    76   117   119    1
    77   117   116    1
    78   127   125   ar
    79   125   124    1
    80    67    68    2
    81    83    81   am
    82   102   101    1
    83   102   103    1
    84    93    91   ar
    85    93    94   ar
    86   116   113    1
    87    95    94    1
    88   101   100    1
    89    91    89   ar
    90   124   121    1
    91    94    92   ar
    92   121   120    1
    93   121   122    1
    94    81    82    2
    95    81    80    1
    96    99    98    2
    97   111   110    1
    98   112   113    1
    99   112   106   am
   100   113   114    1
   101   110   109    1
   102    89    88    1
   103    89    90   ar
   104    80    77    1
   105    92    90   ar
   106   100    97    1
   107    96    97    1
   108    96    86   am
   109    98    97    1
   110    98   104   am
   111    76    77    1
   112    85    88    1
   113    85    86    1
   114    85    84    1
   115   105   106    1
   116   105   104    1
   117   105   108    1
   118   122   123    2
   119   106   107    2
   120   114   115    2
   121    86    87    2
   122    77    78    1
   123   109   108    1
   124    78    79    2
