@<TRIPOS>MOLECULE
tmp/4nvqB01.pdb
 173 168 0 0 0
SMALL
GASTEIGER

@<TRIPOS>ATOM
      1  N         14.8800    1.0870  -20.8000 N.3   145  TYR145     -0.1241
      2  CA        16.0400    1.9950  -20.7920 C.3   145  TYR145      0.1605
      3  C         15.8270    2.8900  -19.5600 C.2   145  TYR145      0.2264
      4  O         14.9850    3.7800  -19.5880 O.2   145  TYR145     -0.2867
      5  CB        16.1310    2.8950  -22.0630 C.3   145  TYR145      0.0534
      6  CG        17.4890    3.5580  -22.1530 C.ar  145  TYR145     -0.0201
      7  CD1       18.5500    2.9320  -22.8050 C.ar  145  TYR145     -0.0009
      8  CD2       17.7400    4.7770  -21.5180 C.ar  145  TYR145     -0.0009
      9  CE1       19.8250    3.4930  -22.8230 C.ar  145  TYR145      0.0417
     10  CE2       19.0100    5.3520  -21.5370 C.ar  145  TYR145      0.0417
     11  CZ        20.0490    4.7070  -22.2030 C.ar  145  TYR145      0.1957
     12  OH        21.3200    5.2290  -22.2400 O.3   145  TYR145     -0.2866
     13  N         16.5400   18.5360  -22.3410 N.3   152  ASP152     -0.1239
     14  CA        17.4040   18.4890  -23.5280 C.3   152  ASP152      0.1674
     15  C         18.5220   19.5470  -23.3750 C.2   152  ASP152      0.2266
     16  O         19.6500   19.3210  -23.8200 O.2   152  ASP152     -0.2867
     17  CB        16.5620   18.7600  -24.7910 C.3   152  ASP152      0.1410
     18  CG        17.0170   18.0630  -26.0550 C.2   152  ASP152      0.3668
     19  OD1       17.4210   18.7720  -27.0090 O.co2 152  ASP152     -0.2456
     20  OD2       16.8790   16.8130  -26.1310 O.co2 152  ASP152     -0.2456
     21  N         21.0410   17.9990  -21.1390 N.3   155  ALA155     -0.1231
     22  CA        21.7250   16.9870  -21.9600 C.3   155  ALA155      0.1694
     23  C         22.8380   17.6050  -22.8280 C.2   155  ALA155      0.2592
     24  O         23.9330   17.0440  -22.9260 O.2   155  ALA155     -0.2718
     25  CB        20.7170   16.2510  -22.8320 C.3   155  ALA155      0.0304
     26  N         22.5480   18.7690  -23.4300 N.am  156  ASP156     -0.1974
     27  CA        23.4620   19.5470  -24.2630 C.3   156  ASP156      0.1709
     28  C         24.7160   19.9950  -23.4930 C.2   156  ASP156      0.2293
     29  O         25.7900   20.0630  -24.0870 O.2   156  ASP156     -0.2864
     30  CB        22.7290   20.7640  -24.8340 C.3   156  ASP156      0.1436
     31  CG        21.7400   20.4530  -25.9430 C.2   156  ASP156      0.3671
     32  OD1       21.7740   19.3270  -26.4680 O.co2 156  ASP156     -0.2456
     33  OD2       20.9520   21.3540  -26.3050 O.co2 156  ASP156     -0.2456
     34  N         27.9650   12.3530  -23.4740 N.3   161  ASP161     -0.1225
     35  CA        26.7240   12.2670  -24.2450 C.3   161  ASP161      0.1805
     36  C         26.5040   10.8580  -24.8480 C.2   161  ASP161      0.2598
     37  O         25.7550   10.7100  -25.8160 O.2   161  ASP161     -0.2718
     38  CB        26.7170   13.3380  -25.3460 C.3   161  ASP161      0.1424
     39  CG        27.8240   13.1820  -26.3920 C.2   161  ASP161      0.3668
     40  OD1       28.8390   12.5170  -26.0920 O.co2 161  ASP161     -0.2456
     41  OD2       27.6810   13.7470  -27.5000 O.co2 161  ASP161     -0.2456
     42  N         27.1710    9.8430  -24.2880 N.am  162  SER162     -0.1938
     43  CA        27.1330    8.4650  -24.7750 C.3   162  SER162      0.2055
     44  C         25.9070    7.6430  -24.3580 C.2   162  SER162      0.2643
     45  O         25.5910    6.6630  -25.0410 O.2   162  SER162     -0.2714
     46  CB        28.3990    7.7230  -24.3390 C.3   162  SER162      0.2130
     47  OG        29.5560    8.4510  -24.7160 O.3   162  SER162     -0.2179
     48  N         25.2400    8.0110  -23.2170 N.am  163  TYR163     -0.1959
     49  CA        24.1370    7.2460  -22.6370 C.3   163  TYR163      0.1771
     50  C         22.8220    7.9970  -22.6220 C.2   163  TYR163      0.2619
     51  O         22.0290    7.8330  -21.7030 O.2   163  TYR163     -0.2715
     52  CB        24.5310    6.8220  -21.2160 C.3   163  TYR163      0.0574
     53  CG        25.8030    6.0050  -21.1490 C.ar  163  TYR163     -0.0198
     54  CD1       25.7760    4.6260  -21.3110 C.ar  163  TYR163     -0.0009
     55  CD2       27.0430    6.6180  -20.9830 C.ar  163  TYR163     -0.0009
     56  CE1       26.9430    3.8690  -21.2590 C.ar  163  TYR163      0.0417
     57  CE2       28.2250    5.8710  -20.9680 C.ar  163  TYR163      0.0417
     58  CZ        28.1680    4.4950  -21.1040 C.ar  163  TYR163      0.1957
     59  OH        29.3170    3.7380  -21.0590 O.3   163  TYR163     -0.2866
     60  N         22.5510    8.7730  -23.6570 N.am  164  LEU164     -0.1963
     61  CA        21.3400    9.5650  -23.7020 C.3   164  LEU164      0.1728
     62  C         20.2820    8.9340  -24.5520 C.2   164  LEU164      0.2616
     63  O         20.5720    8.4860  -25.6630 O.2   164  LEU164     -0.2715
     64  CB        21.6200   10.9770  -24.2550 C.3   164  LEU164      0.0311
     65  CG        22.5470   11.8720  -23.4300 C.3   164  LEU164      0.0022
     66  CD1       23.0280   13.0280  -24.2650 C.3   164  LEU164      0.0001
     67  CD2       21.8490   12.4320  -22.2190 C.3   164  LEU164      0.0001
     68  N         19.0300    8.9600  -24.0590 N.am  165  PHE165     -0.1960
     69  CA        17.8810    8.5310  -24.8300 C.3   165  PHE165      0.1771
     70  C         16.8790    9.6840  -24.8480 C.2   165  PHE165      0.2619
     71  O         16.4390   10.1430  -23.7890 O.2   165  PHE165     -0.2715
     72  CB        17.2580    7.2260  -24.2680 C.3   165  PHE165      0.0574
     73  CG        16.4910    6.4480  -25.3180 C.ar  165  PHE165     -0.0200
     74  CD1       16.9860    5.2490  -25.8180 C.ar  165  PHE165     -0.0042
     75  CD2       15.2760    6.9200  -25.8120 C.ar  165  PHE165     -0.0042
     76  CE1       16.2760    4.5370  -26.7930 C.ar  165  PHE165     -0.0003
     77  CE2       14.5900    6.2240  -26.8040 C.ar  165  PHE165     -0.0003
     78  CZ        15.1060    5.0520  -27.3040 C.ar  165  PHE165     -0.0000
     79  N         16.5210   10.1520  -26.0470 N.am  166  ASP166     -0.1971
     80  CA        15.5670   11.2510  -26.2200 C.3   166  ASP166      0.1709
     81  C         14.1490   10.7830  -26.0320 C.2   166  ASP166      0.2293
     82  O         13.7240    9.8330  -26.6900 O.2   166  ASP166     -0.2864
     83  CB        15.7130   11.9060  -27.6150 C.3   166  ASP166      0.1436
     84  CG        17.0170   12.6470  -27.8180 C.2   166  ASP166      0.3671
     85  OD1       17.3920   12.8720  -28.9950 O.co2 166  ASP166     -0.2456
     86  OD2       17.6800   12.9870  -26.7960 O.co2 166  ASP166     -0.2456
     87  N         15.1840   13.8560  -21.7870 N.3   171  CYS171     -0.1235
     88  CA        16.1020   12.7480  -22.0680 C.3   171  CYS171      0.1677
     89  C         16.2530   11.8630  -20.8810 C.2   171  CYS171      0.2270
     90  O         16.1210   12.3230  -19.7430 O.2   171  CYS171     -0.2867
     91  CB        17.4810   13.2410  -22.5160 C.3   171  CYS171      0.0956
     92  SG        17.4610   14.4770  -23.8320 S.3   171  CYS171     -0.0801
     93  N         21.9320    0.3690  -20.4590 N.3   182  ARG182     -0.1245
     94  CA        22.9950    1.3430  -20.7440 C.3   182  ARG182      0.1563
     95  C         24.1850    0.6530  -21.4270 C.2   182  ARG182      0.2260
     96  O         25.0780    1.3330  -21.9230 O.2   182  ARG182     -0.2867
     97  CB        23.4690    2.0430  -19.4570 C.3   182  ARG182      0.0307
     98  CG        24.3920    1.1960  -18.6040 C.3   182  ARG182      0.0489
     99  CD        24.6990    1.8410  -17.2710 C.3   182  ARG182      0.2205
    100  NE        25.4900    3.0750  -17.3700 N.pl3 182  ARG182     -0.0865
    101  CZ        26.8170    3.1230  -17.4840 C.cat 182  ARG182      0.5346
    102  NH1       27.5220    2.0060  -17.6220 N.pl3 182  ARG182      0.1354
    103  NH2       27.4450    4.2910  -17.5200 N.pl3 182  ARG182      0.1354
    104  N         23.6780   -1.7560  -23.9310 N.3   184  ILE184     -0.1245
    105  CA        23.2400   -2.2280  -25.2340 C.3   184  ILE184      0.1561
    106  C         23.8580   -1.3430  -26.3240 C.2   184  ILE184      0.2260
    107  O         23.6450   -0.1300  -26.3300 O.2   184  ILE184     -0.2867
    108  CB        21.7100   -2.3700  -25.3440 C.3   184  ILE184      0.0252
    109  CG1       21.1140   -3.4330  -24.3800 C.3   184  ILE184      0.0019
    110  CG2       21.2990   -2.6370  -26.7780 C.3   184  ILE184      0.0019
    111  CD1       19.4870   -3.2640  -24.1790 C.3   184  ILE184      0.0001
    112  N         20.1000   -1.9950  -30.9370 N.3   225  PHE225     -0.1241
    113  CA        19.0850   -1.2080  -31.5990 C.3   225  PHE225      0.1605
    114  C         19.7220   -0.1100  -32.4360 C.2   225  PHE225      0.2264
    115  O         20.8920    0.1720  -32.2430 O.2   225  PHE225     -0.2867
    116  CB        18.0600   -0.6410  -30.5790 C.3   225  PHE225      0.0534
    117  CG        18.5730    0.3870  -29.6030 C.ar  225  PHE225     -0.0203
    118  CD1       18.3550    1.7340  -29.8160 C.ar  225  PHE225     -0.0042
    119  CD2       19.2570    0.0030  -28.4630 C.ar  225  PHE225     -0.0042
    120  CE1       18.8230    2.6800  -28.9170 C.ar  225  PHE225     -0.0003
    121  CE2       19.7150    0.9510  -27.5540 C.ar  225  PHE225     -0.0003
    122  CZ        19.4730    2.2810  -27.7830 C.ar  225  PHE225     -0.0000
    123  N         20.6620    3.4060  -32.9000 N.3   227  TYR227     -0.1241
    124  CA        20.8280    4.6280  -32.0890 C.3   227  TYR227      0.1605
    125  C         20.2760    5.8670  -32.7880 C.2   227  TYR227      0.2264
    126  O         19.9910    6.8640  -32.1270 O.2   227  TYR227     -0.2867
    127  CB        22.3020    4.8700  -31.7630 C.3   227  TYR227      0.0534
    128  CG        22.9130    4.0910  -30.6160 C.ar  227  TYR227     -0.0201
    129  CD1       22.2750    2.9760  -30.0770 C.ar  227  TYR227     -0.0009
    130  CD2       24.1650    4.4320  -30.1100 C.ar  227  TYR227     -0.0009
    131  CE1       22.8630    2.2360  -29.0520 C.ar  227  TYR227      0.0417
    132  CE2       24.7710    3.6840  -29.1080 C.ar  227  TYR227      0.0417
    133  CZ        24.1130    2.5960  -28.5750 C.ar  227  TYR227      0.1957
    134  OH        24.7220    1.9000  -27.5630 O.3   227  TYR227     -0.2866
    135  N         20.9760   11.3290  -34.8260 N.3   230  ARG230     -0.1231
    136  CA        21.4190   12.3490  -33.8660 C.3   230  ARG230      0.1694
    137  C         22.7310   11.9590  -33.1750 C.2   230  ARG230      0.2592
    138  O         23.6360   12.7970  -33.0480 O.2   230  ARG230     -0.2718
    139  CB        20.3110   12.7000  -32.8450 C.3   230  ARG230      0.0321
    140  CG        20.7010   13.8830  -31.9920 C.3   230  ARG230      0.0489
    141  CD        19.5030   14.3530  -31.2490 C.3   230  ARG230      0.2205
    142  NE        19.8850   15.4670  -30.3890 N.pl3 230  ARG230     -0.0865
    143  CZ        19.0190   16.1660  -29.6650 C.cat 230  ARG230      0.5346
    144  NH1       17.6970   15.8500  -29.6590 N.pl3 230  ARG230      0.1354
    145  NH2       19.4990   17.1830  -28.9320 N.pl3 230  ARG230      0.1354
    146  N         22.8420   10.6790  -32.7630 N.am  231  PHE231     -0.1976
    147  CA        24.0530   10.1580  -32.1190 C.3   231  PHE231      0.1639
    148  C         25.1920   10.0860  -33.1490 C.2   231  PHE231      0.2290
    149  O         26.3060   10.5280  -32.8590 O.2   231  PHE231     -0.2864
    150  CB        23.7870    8.7630  -31.5100 C.3   231  PHE231      0.0560
    151  CG        24.9960    7.9950  -31.0230 C.ar  231  PHE231     -0.0200
    152  CD1       25.3910    8.0570  -29.6940 C.ar  231  PHE231     -0.0042
    153  CD2       25.7240    7.1840  -31.8910 C.ar  231  PHE231     -0.0042
    154  CE1       26.5000    7.3340  -29.2420 C.ar  231  PHE231     -0.0003
    155  CE2       26.8400    6.4730  -31.4420 C.ar  231  PHE231     -0.0003
    156  CZ        27.2140    6.5430  -30.1180 C.ar  231  PHE231     -0.0000
    157  N         27.0060   13.3670  -34.3060 N.3   234  ILE234     -0.1231
    158  CA        27.9090   13.9180  -33.2930 C.3   234  ILE234      0.1692
    159  C         29.1530   13.0510  -33.1470 C.2   234  ILE234      0.2591
    160  O         30.2840   13.5590  -33.1580 O.2   234  ILE234     -0.2718
    161  CB        27.1680   14.0780  -31.9300 C.3   234  ILE234      0.0266
    162  CG1       26.0790   15.1690  -32.0170 C.3   234  ILE234      0.0019
    163  CG2       28.1450   14.3570  -30.7740 C.3   234  ILE234      0.0020
    164  CD1       24.9890   15.0800  -30.9590 C.3   234  ILE234      0.0001
    165  N         28.9170   11.7380  -32.9830 N.am  235  LYS235     -0.1980
    166  CA        29.9180   10.7320  -32.6740 C.3   235  LYS235      0.1596
    167  C         30.8370   10.2620  -33.7740 C.2   235  LYS235      0.2287
    168  O         31.9480    9.8570  -33.4670 O.2   235  LYS235     -0.2864
    169  CB        29.2770    9.5580  -31.9210 C.3   235  LYS235      0.0298
    170  CG        28.7650    9.9370  -30.5190 C.3   235  LYS235      0.0038
    171  CD        29.9080   10.1680  -29.5360 C.3   235  LYS235      0.0206
    172  CE        29.5110   10.0490  -28.0970 C.3   235  LYS235      0.1093
    173  NZ        30.6920    9.8010  -27.2200 N.3   235  LYS235     -0.1314
@<TRIPOS>BOND
     1   135   136    1
     2   157   158    1
     3   136   137    1
     4   136   139    1
     5   167   168    2
     6   167   166    1
     7   158   159    1
     8   158   161    1
     9   137   138    2
    10   137   146   am
    11   160   159    2
    12   148   149    2
    13   148   147    1
    14   159   165   am
    15   165   166    1
    16   123   124    1
    17   139   140    1
    18   125   126    2
    19   125   124    1
    20   146   147    1
    21   166   169    1
    22   114   115    2
    23   114   113    1
    24   147   150    1
    25   124   127    1
    26   162   161    1
    27   162   164    1
    28   140   141    1
    29   161   163    1
    30   169   170    1
    31   153   155   ar
    32   153   151   ar
    33   127   128    1
    34   113   112    1
    35   113   116    1
    36   150   151    1
    37   155   156   ar
    38   141   142    1
    39   151   152   ar
    40   128   130   ar
    41   128   129   ar
    42   116   117    1
    43   170   171    1
    44   142   143    2
    45   156   154   ar
    46   130   132   ar
    47   129   131   ar
    48   118   117   ar
    49   118   120   ar
    50   152   154   ar
    51   143   144    1
    52   143   145    1
    53   117   119   ar
    54   171   172    1
    55   132   133   ar
    56   131   133   ar
    57    85    84   ar
    58   120   122   ar
    59   133   134    1
    60   119   121   ar
    61   172   173    1
    62    84    83    1
    63    84    86   ar
    64   122   121   ar
    65    83    80    1
    66    41    39   ar
    67    78    77   ar
    68    78    76   ar
    69    19    18   ar
    70    77    75   ar
    71    76    74   ar
    72   110   108    1
    73    82    81    2
    74    32    31   ar
    75    39    40   ar
    76    39    38    1
    77   107   106    2
    78   106   105    1
    79    33    31   ar
    80    80    79    1
    81    80    81    1
    82    20    18   ar
    83    18    17    1
    84    79    70   am
    85    31    30    1
    86    74    73   ar
    87    37    36    2
    88    75    73   ar
    89    63    62    2
    90    38    35    1
    91   108   105    1
    92   108   109    1
    93    73    72    1
    94   105   104    1
    95    45    44    2
    96    36    42   am
    97    36    35    1
    98    70    69    1
    99    70    71    2
   100    30    27    1
   101    69    72    1
   102    69    68    1
   103    17    14    1
   104    43    44    1
   105    43    46    1
   106    43    42    1
   107    47    46    1
   108    62    68   am
   109    62    61    1
   110   109   111    1
   111    44    48   am
   112    66    65    1
   113    27    28    1
   114    27    26    1
   115    64    61    1
   116    64    65    1
   117    35    34    1
   118    29    28    2
   119    92    91    1
   120    16    15    2
   121    61    60    1
   122    60    50   am
   123    14    15    1
   124    14    13    1
   125    65    67    1
   126    26    23   am
   127    48    49    1
   128    24    23    2
   129    25    22    1
   130    23    22    1
   131     9     7   ar
   132     9    11   ar
   133     7     6   ar
   134    49    50    1
   135    49    52    1
   136    50    51    2
   137    91    88    1
   138    12    11    1
   139    11    10   ar
   140     6     5    1
   141     6     8   ar
   142    88    87    1
   143    88    89    1
   144     5     2    1
   145    22    21    1
   146    96    95    2
   147    10     8   ar
   148    95    94    1
   149    54    56   ar
   150    54    53   ar
   151    56    58   ar
   152    52    53    1
   153    53    55   ar
   154    58    59    1
   155    58    57   ar
   156    55    57   ar
   157    89    90    2
   158     1     2    1
   159     2     3    1
   160    94    93    1
   161    94    97    1
   162     4     3    2
   163    97    98    1
   164    98    99    1
   165   102   101    1
   166   103   101    1
   167   101   100    2
   168   100    99    1
