@<TRIPOS>MOLECULE
tmp/4nw5A00.pdb
 171 161 0 0 0
SMALL
GASTEIGER

@<TRIPOS>ATOM
      1  N        -20.4040    2.1220  -34.3260 N.3    22  LYS22      -0.1245
      2  CA       -20.6080    3.4090  -33.6500 C.3    22  LYS22       0.1561
      3  C        -19.4740    3.6970  -32.6750 C.2    22  LYS22       0.2260
      4  O        -18.7070    2.7910  -32.3430 O.2    22  LYS22      -0.2867
      5  CB       -21.9750    3.4900  -32.9250 C.3    22  LYS22       0.0271
      6  CG       -22.2060    2.4660  -31.8130 C.3    22  LYS22       0.0035
      7  CD       -23.5050    2.7690  -31.0890 C.3    22  LYS22       0.0206
      8  CE       -24.0170    1.5970  -30.2890 C.3    22  LYS22       0.1093
      9  NZ       -25.4180    1.8090  -29.8390 N.3    22  LYS22      -0.1314
     10  N        -18.3880    4.4320  -28.9820 N.3    24  LEU24      -0.1231
     11  CA       -18.9090    4.0910  -27.6610 C.3    24  LEU24       0.1693
     12  C        -18.5570    5.1870  -26.6650 C.2    24  LEU24       0.2593
     13  O        -19.3470    5.5100  -25.7640 O.2    24  LEU24      -0.2718
     14  CB       -18.3750    2.7160  -27.1930 C.3    24  LEU24       0.0284
     15  CG       -18.9680    1.4790  -27.8780 C.3    24  LEU24       0.0019
     16  CD1      -18.1480    0.2470  -27.5620 C.3    24  LEU24       0.0001
     17  CD2      -20.4310    1.2300  -27.4410 C.3    24  LEU24       0.0001
     18  N        -17.3730    5.7590  -26.8280 N.am   25  GLY25      -0.1942
     19  CA       -16.9240    6.8220  -25.9350 C.3    25  GLY25       0.2014
     20  C        -15.4530    7.1230  -26.0620 C.2    25  GLY25       0.2639
     21  O        -14.8220    6.8080  -27.0730 O.2    25  GLY25      -0.2714
     22  N        -14.9090    7.7220  -25.0220 N.am   26  GLN26      -0.1963
     23  CA       -13.5320    8.1580  -24.9640 C.3    26  GLN26       0.1733
     24  C        -12.8020    7.4860  -23.8070 C.2    26  GLN26       0.2616
     25  O        -13.1810    7.6510  -22.6490 O.2    26  GLN26      -0.2715
     26  CB       -13.5070    9.6950  -24.8400 C.3    26  GLN26       0.0408
     27  CG       -12.1240   10.3250  -24.6660 C.3    26  GLN26       0.0908
     28  CD       -11.3020   10.3050  -25.9280 C.2    26  GLN26       0.2608
     29  OE1      -11.7850   10.5980  -27.0320 O.2    26  GLN26      -0.2717
     30  NE2      -10.0280    9.9880  -25.7790 N.am   26  GLN26      -0.0878
     31  N        -11.7820    6.7110  -24.1520 N.am   27  GLY27      -0.1955
     32  CA       -10.9040    6.0390  -23.1980 C.3    27  GLY27       0.1869
     33  C         -9.7660    6.9520  -22.7800 C.2    27  GLY27       0.2309
     34  O         -9.7310    8.1200  -23.1860 O.2    27  GLY27      -0.2863
     35  N        -13.1850    4.8330  -28.2340 N.3    32  VAL32      -0.1245
     36  CA       -13.5180    3.4160  -28.2370 C.3    32  VAL32       0.1561
     37  C        -14.7240    3.2750  -29.1640 C.2    32  VAL32       0.2260
     38  O        -15.6960    4.0200  -29.0220 O.2    32  VAL32      -0.2867
     39  CB       -13.7120    2.7690  -26.8410 C.3    32  VAL32       0.0252
     40  CG1      -13.9990    1.2600  -26.9560 C.3    32  VAL32       0.0019
     41  CG2      -12.4880    3.0120  -25.9430 C.3    32  VAL32       0.0019
     42  N        -15.1880   -4.1600  -28.6930 N.3    48  ALA48      -0.1245
     43  CA       -14.9000   -2.7570  -28.4670 C.3    48  ALA48       0.1562
     44  C        -13.4910   -2.5580  -29.0310 C.2    48  ALA48       0.2260
     45  O        -12.5800   -3.3400  -28.7420 O.2    48  ALA48      -0.2867
     46  CB       -14.9490   -2.4290  -26.9810 C.3    48  ALA48       0.0290
     47  N        -10.4030    0.0470  -29.3210 N.3    50  LYS50      -0.1245
     48  CA        -9.7880    1.2770  -28.8280 C.3    50  LYS50       0.1561
     49  C         -8.6890    1.6030  -29.8240 C.2    50  LYS50       0.2260
     50  O         -7.9120    0.7220  -30.1800 O.2    50  LYS50      -0.2867
     51  CB        -9.2280    1.0930  -27.4020 C.3    50  LYS50       0.0271
     52  CG        -8.6930    2.3970  -26.8230 C.3    50  LYS50       0.0035
     53  CD        -8.7680    2.4200  -25.3100 C.3    50  LYS50       0.0206
     54  CE        -7.5990    1.7350  -24.6460 C.3    50  LYS50       0.1093
     55  NZ        -7.5640    2.0480  -23.1910 N.3    50  LYS50      -0.1314
     56  N        -11.4640   -7.2780  -18.2100 N.3    81  VAL81      -0.1245
     57  CA       -11.6830   -7.3930  -19.6660 C.3    81  VAL81       0.1561
     58  C        -10.6180   -8.2620  -20.3700 C.2    81  VAL81       0.2260
     59  O         -9.4200   -8.1860  -20.0430 O.2    81  VAL81      -0.2867
     60  CB       -11.7700   -5.9820  -20.3010 C.3    81  VAL81       0.0252
     61  CG1      -10.3830   -5.3730  -20.5170 C.3    81  VAL81       0.0019
     62  CG2      -12.5850   -5.9810  -21.5940 C.3    81  VAL81       0.0019
     63  N        -11.1470   -5.5020  -27.6750 N.3    97  LEU97      -0.1231
     64  CA       -11.5200   -6.0190  -26.3590 C.3    97  LEU97       0.1693
     65  C        -12.9490   -6.5140  -26.3410 C.2    97  LEU97       0.2592
     66  O        -13.7130   -6.2260  -27.2780 O.2    97  LEU97      -0.2718
     67  CB       -11.3650   -4.8810  -25.3200 C.3    97  LEU97       0.0284
     68  CG        -9.9820   -4.2160  -25.3240 C.3    97  LEU97       0.0019
     69  CD1      -10.0860   -2.7120  -25.3640 C.3    97  LEU97       0.0001
     70  CD2       -9.1120   -4.7480  -24.2350 C.3    97  LEU97       0.0001
     71  N        -13.3350   -7.2410  -25.2600 N.am   98  ASP98      -0.1960
     72  CA       -14.7320   -7.6590  -25.1010 C.3    98  ASP98       0.1840
     73  C        -15.5840   -6.3940  -25.1730 C.2    98  ASP98       0.2622
     74  O        -15.1450   -5.3310  -24.6990 O.2    98  ASP98      -0.2715
     75  CB       -14.9870   -8.2170  -23.6890 C.3    98  ASP98       0.1450
     76  CG       -14.2770   -9.4830  -23.3000 C.2    98  ASP98       0.3671
     77  OD1      -14.2820  -10.4390  -24.1170 O.co2  98  ASP98      -0.2456
     78  OD2      -13.8210   -9.5680  -22.1170 O.co2  98  ASP98      -0.2456
     79  N        -16.7720   -6.5020  -25.7630 N.am   99  PHE99      -0.1960
     80  CA       -17.7370   -5.4170  -25.7840 C.3    99  PHE99       0.1771
     81  C        -18.6370   -5.6850  -24.5780 C.2    99  PHE99       0.2619
     82  O        -19.2990   -6.7200  -24.5280 O.2    99  PHE99      -0.2715
     83  CB       -18.5680   -5.3860  -27.0860 C.3    99  PHE99       0.0574
     84  CG       -19.8070   -4.5070  -27.0020 C.ar   99  PHE99      -0.0200
     85  CD1      -19.7180   -3.1830  -26.5600 C.ar   99  PHE99      -0.0042
     86  CD2      -21.0570   -4.9970  -27.3780 C.ar   99  PHE99      -0.0042
     87  CE1      -20.8620   -2.3800  -26.4670 C.ar   99  PHE99      -0.0003
     88  CE2      -22.1990   -4.1850  -27.2990 C.ar   99  PHE99      -0.0003
     89  CZ       -22.0920   -2.8800  -26.8440 C.ar   99  PHE99      -0.0000
     90  N        -18.6460   -4.7710  -23.6050 N.am  100  LEU100     -0.1963
     91  CA       -19.4730   -4.9320  -22.3870 C.3   100  LEU100      0.1728
     92  C        -20.8270   -4.3230  -22.6720 C.2   100  LEU100      0.2616
     93  O        -20.9490   -3.1190  -22.8320 O.2   100  LEU100     -0.2715
     94  CB       -18.7870   -4.2710  -21.1670 C.3   100  LEU100      0.0311
     95  CG       -17.6570   -5.0770  -20.4640 C.3   100  LEU100      0.0022
     96  CD1      -18.2160   -6.3120  -19.7270 C.3   100  LEU100      0.0001
     97  CD2      -16.5120   -5.4630  -21.4190 C.3   100  LEU100      0.0001
     98  N        -21.8260   -5.1730  -22.8250 N.am  101  ARG101     -0.1963
     99  CA       -23.1650   -4.7930  -23.2490 C.3   101  ARG101      0.1729
    100  C        -23.9670   -3.9550  -22.2430 C.2   101  ARG101      0.2617
    101  O        -24.8890   -3.2580  -22.6620 O.2   101  ARG101     -0.2715
    102  CB       -23.9490   -6.0400  -23.6690 C.3   101  ARG101      0.0348
    103  CG       -23.2800   -6.7450  -24.8480 C.3   101  ARG101      0.0492
    104  CD       -23.9950   -8.0030  -25.2680 C.3   101  ARG101      0.2205
    105  NE       -23.2690   -8.6440  -26.3640 N.pl3 101  ARG101     -0.0865
    106  CZ       -23.5860   -8.5340  -27.6500 C.cat 101  ARG101      0.5346
    107  NH1      -24.6470   -7.8220  -28.0230 N.pl3 101  ARG101      0.1354
    108  NH2      -22.8560   -9.1460  -28.5740 N.pl3 101  ARG101      0.1354
    109  N        -23.6050   -3.9950  -20.9700 N.am  102  GLY102     -0.1940
    110  CA       -24.3260   -3.2560  -19.9370 C.3   102  GLY102      0.2014
    111  C        -23.9580   -1.7980  -19.7160 C.2   102  GLY102      0.2639
    112  O        -24.5530   -1.1460  -18.8600 O.2   102  GLY102     -0.2714
    113  N        -22.9890   -1.2740  -20.4620 N.am  103  GLY103     -0.1939
    114  CA       -22.5450    0.1050  -20.2790 C.3   103  GLY103      0.2014
    115  C        -21.7310    0.2830  -19.0090 C.2   103  GLY103      0.2638
    116  O        -21.3630   -0.7040  -18.3660 O.2   103  GLY103     -0.2714
    117  N        -21.4540    1.5430  -18.6140 N.am  104  ASP104     -0.1971
    118  CA       -20.6420    1.7760  -17.4190 C.3   104  ASP104      0.1709
    119  C        -21.4880    2.0390  -16.1500 C.2   104  ASP104      0.2293
    120  O        -22.6840    2.3540  -16.2290 O.2   104  ASP104     -0.2864
    121  CB       -19.6070    2.8950  -17.6680 C.3   104  ASP104      0.1436
    122  CG       -20.1850    4.2740  -17.9860 C.2   104  ASP104      0.3671
    123  OD1      -21.3100    4.5600  -17.5610 O.co2 104  ASP104     -0.2456
    124  OD2      -19.4680    5.0950  -18.5680 O.co2 104  ASP104     -0.2456
    125  N        -23.1530    5.7220  -15.7240 N.3   107  THR107     -0.1218
    126  CA       -24.4930    5.9380  -16.2830 C.3   107  THR107      0.1862
    127  C        -25.5560    5.4990  -15.2550 C.2   107  THR107      0.2287
    128  O        -26.4700    6.2710  -14.9820 O.2   107  THR107     -0.2866
    129  CB       -24.6120    5.2360  -17.6610 C.3   107  THR107      0.1770
    130  OG1      -23.5580    5.7340  -18.4900 O.3   107  THR107     -0.2211
    131  CG2      -25.9670    5.4430  -18.3350 C.3   107  THR107      0.0375
    132  N        -16.7760    5.4670  -14.4180 N.3   147  GLU147     -0.1231
    133  CA       -16.6910    5.3870  -15.8940 C.3   147  GLU147      0.1699
    134  C        -15.8480    4.1990  -16.3310 C.2   147  GLU147      0.2592
    135  O        -16.0210    3.6970  -17.4350 O.2   147  GLU147     -0.2718
    136  CB       -16.0300    6.6640  -16.4690 C.3   147  GLU147      0.0402
    137  CG       -16.8890    7.9010  -16.2990 C.3   147  GLU147      0.1161
    138  CD       -16.5520    8.7650  -15.0960 C.2   147  GLU147      0.3649
    139  OE1      -16.3250    8.2260  -13.9920 O.co2 147  GLU147     -0.2457
    140  OE2      -16.5190   10.0020  -15.2670 O.co2 147  GLU147     -0.2457
    141  N        -14.9350    3.7490  -15.4580 N.am  148  ASN148     -0.1974
    142  CA       -14.0200    2.6440  -15.7170 C.3   148  ASN148      0.1688
    143  C        -14.5380    1.3050  -15.2220 C.2   148  ASN148      0.2292
    144  O        -13.8590    0.2830  -15.3670 O.2   148  ASN148     -0.2864
    145  CB       -12.6310    2.9670  -15.1310 C.3   148  ASN148      0.1181
    146  CG       -11.8140    3.8180  -16.0640 C.2   148  ASN148      0.2629
    147  OD1      -12.2020    4.0730  -17.2050 O.2   148  ASN148     -0.2716
    148  ND2      -10.6310    4.2250  -15.6350 N.am  148  ASN148     -0.0877
    149  N        -17.2140   -1.2390  -16.0630 N.3   150  LEU150     -0.1245
    150  CA       -18.1720   -1.6340  -17.0900 C.3   150  LEU150      0.1561
    151  C        -19.0110   -2.7970  -16.6180 C.2   150  LEU150      0.2260
    152  O        -18.6140   -3.5120  -15.7130 O.2   150  LEU150     -0.2867
    153  CB       -17.4590   -1.9590  -18.4250 C.3   150  LEU150      0.0270
    154  CG       -16.9950   -0.7960  -19.3490 C.3   150  LEU150      0.0019
    155  CD1      -18.1750   -0.1160  -20.0610 C.3   150  LEU150      0.0001
    156  CD2      -16.0890    0.1910  -18.6520 C.3   150  LEU150      0.0001
    157  N        -11.6410   -2.2660  -17.5800 N.3   160  THR160     -0.1203
    158  CA       -11.2810   -2.3680  -18.9940 C.3   160  THR160      0.1994
    159  C        -10.1220   -1.4830  -19.4590 C.2   160  THR160      0.2617
    160  O         -9.4970   -1.8030  -20.4810 O.2   160  THR160     -0.2717
    161  CB       -12.5290   -2.0930  -19.8830 C.3   160  THR160      0.1784
    162  OG1      -12.9320   -0.7350  -19.7070 O.3   160  THR160     -0.2211
    163  CG2      -13.7160   -2.9940  -19.5680 C.3   160  THR160      0.0376
    164  N         -9.8870   -0.3460  -18.7720 N.am  161  ASP161     -0.1973
    165  CA        -8.9090    0.6550  -19.1990 C.3   161  ASP161      0.1709
    166  C         -7.7050    0.7530  -18.2740 C.2   161  ASP161      0.2293
    167  O         -7.7980    1.2950  -17.1710 O.2   161  ASP161     -0.2864
    168  CB        -9.6040    2.0270  -19.3900 C.3   161  ASP161      0.1436
    169  CG        -8.8270    3.0730  -20.1740 C.2   161  ASP161      0.3671
    170  OD1       -7.5780    3.0310  -20.1490 O.co2 161  ASP161     -0.2456
    171  OD2       -9.4710    3.9660  -20.7700 O.co2 161  ASP161     -0.2456
@<TRIPOS>BOND
     1     1     2    1
     2     2     5    1
     3     2     3    1
     4     5     6    1
     5     3     4    2
     6     6     7    1
     7     7     8    1
     8     8     9    1
     9    50    49    2
    10    49    48    1
    11    47    48    1
    12    37    38    2
    13    37    36    1
    14    44    45    2
    15    44    43    1
    16    10    11    1
    17    48    51    1
    18    42    43    1
    19   108   106    1
    20    43    46    1
    21    36    35    1
    22    36    39    1
    23   107   106    1
    24    15    16    1
    25    15    17    1
    26    15    14    1
    27    63    64    1
    28    11    14    1
    29    11    12    1
    30   106   105    2
    31    51    52    1
    32    86    88   ar
    33    86    84   ar
    34    88    89   ar
    35    66    65    2
    36    83    84    1
    37    83    80    1
    38    21    20    2
    39    29    28    2
    40    84    85   ar
    41    40    39    1
    42    89    87   ar
    43    39    41    1
    44    18    12   am
    45    18    19    1
    46    52    53    1
    47    12    13    2
    48    85    87   ar
    49   105   104    1
    50    64    65    1
    51    64    67    1
    52    65    71   am
    53    20    19    1
    54    20    22   am
    55    28    30   am
    56    28    27    1
    57    80    79    1
    58    80    81    1
    59    79    73   am
    60    69    68    1
    61    68    67    1
    62    68    70    1
    63    53    54    1
    64   104   103    1
    65    71    72    1
    66    73    72    1
    67    73    74    2
    68    72    75    1
    69    22    23    1
    70    23    26    1
    71    23    24    1
    72   103   102    1
    73    26    27    1
    74    54    55    1
    75    81    82    2
    76    81    90   am
    77    31    24   am
    78    31    32    1
    79    77    76   ar
    80    24    25    2
    81    75    76    1
    82   102    99    1
    83    90    91    1
    84    76    78   ar
    85    99    98    1
    86    99   100    1
    87    32    33    1
    88    34    33    2
    89    93    92    2
    90    98    92   am
    91    92    91    1
    92   101   100    2
    93    91    94    1
    94   100   109   am
    95    62    60    1
    96    97    95    1
    97    94    95    1
    98   109   110    1
    99   171   169   ar
   100    61    60    1
   101   160   159    2
   102    95    96    1
   103   113   114    1
   104   113   111   am
   105    58    59    2
   106    58    57    1
   107    60    57    1
   108   114   115    1
   109   169   170   ar
   110   169   168    1
   111   155   154    1
   112   110   111    1
   113   161   162    1
   114   161   163    1
   115   161   158    1
   116   111   112    2
   117    57    56    1
   118   159   158    1
   119   159   164   am
   120   168   165    1
   121   154   156    1
   122   154   153    1
   123   165   164    1
   124   165   166    1
   125   115   117   am
   126   115   116    2
   127   158   157    1
   128   117   118    1
   129   124   122   ar
   130   130   129    1
   131   153   150    1
   132   131   129    1
   133   166   167    2
   134   122   121    1
   135   122   123   ar
   136   121   118    1
   137   129   126    1
   138   135   134    2
   139   118   119    1
   140   147   146    2
   141   150   151    1
   142   150   149    1
   143   151   152    2
   144   136   137    1
   145   136   133    1
   146   134   133    1
   147   134   141   am
   148   137   138    1
   149   126   125    1
   150   126   127    1
   151   120   119    2
   152   146   148   am
   153   146   145    1
   154   133   132    1
   155   142   141    1
   156   142   143    1
   157   142   145    1
   158   144   143    2
   159   140   138   ar
   160   127   128    2
   161   138   139   ar
