@<TRIPOS>MOLECULE
tmp/4nw6A00.pdb
 178 169 0 0 0
SMALL
GASTEIGER

@<TRIPOS>ATOM
      1  N        -20.5630    2.0760  -34.1850 N.3    22  LYS22      -0.1231
      2  CA       -20.8060    3.3240  -33.4600 C.3    22  LYS22       0.1693
      3  C        -19.6930    3.6400  -32.4840 C.2    22  LYS22       0.2592
      4  O        -18.8920    2.7560  -32.1480 O.2    22  LYS22      -0.2718
      5  CB       -22.1620    3.3110  -32.7210 C.3    22  LYS22       0.0285
      6  CG       -22.3400    2.2470  -31.6400 C.3    22  LYS22       0.0035
      7  CD       -23.7070    2.4210  -30.9960 C.3    22  LYS22       0.0206
      8  CE       -24.1980    1.1710  -30.3180 C.3    22  LYS22       0.1093
      9  NZ       -25.5540    1.3610  -29.7390 N.3    22  LYS22      -0.1314
     10  N        -19.6480    4.8960  -32.0260 N.am   23  VAL23      -0.1966
     11  CA       -18.6770    5.3390  -31.0200 C.3    23  VAL23       0.1727
     12  C        -19.3170    5.0040  -29.6760 C.2    23  VAL23       0.2616
     13  O        -20.5010    5.2850  -29.4610 O.2    23  VAL23      -0.2715
     14  CB       -18.3440    6.8600  -31.1320 C.3    23  VAL23       0.0290
     15  CG1      -17.2880    7.2720  -30.1020 C.3    23  VAL23       0.0023
     16  CG2      -17.8830    7.2200  -32.5450 C.3    23  VAL23       0.0023
     17  N        -18.5420    4.4090  -28.7720 N.am   24  LEU24      -0.1963
     18  CA       -19.0110    4.0670  -27.4400 C.3    24  LEU24       0.1728
     19  C        -18.6100    5.1400  -26.4340 C.2    24  LEU24       0.2617
     20  O        -19.3420    5.3860  -25.4720 O.2    24  LEU24      -0.2715
     21  CB       -18.4850    2.6820  -27.0020 C.3    24  LEU24       0.0311
     22  CG       -19.0620    1.4760  -27.7570 C.3    24  LEU24       0.0022
     23  CD1      -18.2860    0.2300  -27.4460 C.3    24  LEU24       0.0001
     24  CD2      -20.5570    1.2770  -27.4510 C.3    24  LEU24       0.0001
     25  N        -17.4560    5.7620  -26.6570 N.am   25  GLY25      -0.1940
     26  CA       -16.9560    6.8170  -25.7830 C.3    25  GLY25       0.2014
     27  C        -15.4710    7.0560  -25.9440 C.2    25  GLY25       0.2639
     28  O        -14.8830    6.7400  -26.9890 O.2    25  GLY25      -0.2714
     29  N        -14.8670    7.6100  -24.9020 N.am   26  GLN26      -0.1963
     30  CA       -13.4660    7.9860  -24.8880 C.3    26  GLN26       0.1733
     31  C        -12.7340    7.2890  -23.7610 C.2    26  GLN26       0.2616
     32  O        -13.1260    7.4180  -22.5980 O.2    26  GLN26      -0.2715
     33  CB       -13.3820    9.5220  -24.7140 C.3    26  GLN26       0.0408
     34  CG       -11.9700   10.1150  -24.7090 C.3    26  GLN26       0.0908
     35  CD       -11.3290   10.1910  -26.0690 C.2    26  GLN26       0.2608
     36  OE1      -11.9920   10.3270  -27.1050 O.2    26  GLN26      -0.2717
     37  NE2      -10.0100   10.1410  -26.0890 N.am   26  GLN26      -0.0878
     38  N        -11.6890    6.5460  -24.1200 N.am   27  GLY27      -0.1955
     39  CA       -10.7960    5.9030  -23.1650 C.3    27  GLY27       0.1869
     40  C         -9.7040    6.8750  -22.7540 C.2    27  GLY27       0.2309
     41  O         -9.7530    8.0560  -23.1360 O.2    27  GLY27      -0.2863
     42  N        -13.2810    4.8200  -28.2520 N.3    32  VAL32      -0.1245
     43  CA       -13.6190    3.4020  -28.2160 C.3    32  VAL32       0.1561
     44  C        -14.8630    3.2400  -29.0910 C.2    32  VAL32       0.2260
     45  O        -15.8300    3.9830  -28.9210 O.2    32  VAL32      -0.2867
     46  CB       -13.8450    2.8140  -26.7950 C.3    32  VAL32       0.0252
     47  CG1      -14.0600    1.2920  -26.8620 C.3    32  VAL32       0.0019
     48  CG2      -12.6800    3.1540  -25.8470 C.3    32  VAL32       0.0019
     49  N        -15.3200   -4.2470  -28.6790 N.3    48  ALA48      -0.1245
     50  CA       -15.0180   -2.8440  -28.4440 C.3    48  ALA48       0.1562
     51  C        -13.6130   -2.6560  -29.0660 C.2    48  ALA48       0.2260
     52  O        -12.7190   -3.4790  -28.8600 O.2    48  ALA48      -0.2867
     53  CB       -14.9600   -2.5490  -26.9470 C.3    48  ALA48       0.0290
     54  N        -10.4590    0.0060  -29.3050 N.3    50  LYS50      -0.1245
     55  CA        -9.8600    1.2580  -28.8250 C.3    50  LYS50       0.1561
     56  C         -8.7760    1.6480  -29.8440 C.2    50  LYS50       0.2260
     57  O         -7.9700    0.7980  -30.2320 O.2    50  LYS50      -0.2867
     58  CB        -9.2800    1.1000  -27.4000 C.3    50  LYS50       0.0271
     59  CG        -8.8370    2.4330  -26.8030 C.3    50  LYS50       0.0035
     60  CD        -8.9470    2.4660  -25.2810 C.3    50  LYS50       0.0206
     61  CE        -7.8140    1.7430  -24.5830 C.3    50  LYS50       0.1093
     62  NZ        -7.8140    2.0180  -23.1080 N.3    50  LYS50      -0.1314
     63  N        -11.4140   -7.0680  -18.2060 N.3    81  VAL81      -0.1245
     64  CA       -11.7120   -7.1970  -19.6440 C.3    81  VAL81       0.1561
     65  C        -10.6900   -8.1040  -20.3830 C.2    81  VAL81       0.2260
     66  O         -9.4980   -8.0900  -20.0520 O.2    81  VAL81      -0.2867
     67  CB       -11.8590   -5.8030  -20.2960 C.3    81  VAL81       0.0252
     68  CG1      -10.5010   -5.1150  -20.5100 C.3    81  VAL81       0.0019
     69  CG2      -12.6580   -5.8850  -21.5940 C.3    81  VAL81       0.0019
     70  N        -11.2010   -5.5250  -27.7380 N.3    97  LEU97      -0.1231
     71  CA       -11.5720   -6.0430  -26.4180 C.3    97  LEU97       0.1693
     72  C        -12.9990   -6.5810  -26.3950 C.2    97  LEU97       0.2592
     73  O        -13.7800   -6.3310  -27.3260 O.2    97  LEU97      -0.2718
     74  CB       -11.4870   -4.8620  -25.4260 C.3    97  LEU97       0.0284
     75  CG       -10.1810   -4.0780  -25.4810 C.3    97  LEU97       0.0019
     76  CD1      -10.4270   -2.5870  -25.4910 C.3    97  LEU97       0.0001
     77  CD2       -9.2450   -4.5150  -24.4140 C.3    97  LEU97       0.0001
     78  N        -13.3820   -7.2550  -25.2790 N.am   98  ASP98      -0.1960
     79  CA       -14.7840   -7.6840  -25.1160 C.3    98  ASP98       0.1840
     80  C        -15.6700   -6.4540  -25.2570 C.2    98  ASP98       0.2622
     81  O        -15.2820   -5.3560  -24.8090 O.2    98  ASP98      -0.2715
     82  CB       -15.0410   -8.1390  -23.6620 C.3    98  ASP98       0.1450
     83  CG       -14.3960   -9.4160  -23.2240 C.2    98  ASP98       0.3671
     84  OD1      -14.4080  -10.3930  -24.0240 O.co2  98  ASP98      -0.2456
     85  OD2      -13.9540   -9.4790  -22.0420 O.co2  98  ASP98      -0.2456
     86  N        -16.8580   -6.6380  -25.8440 N.am   99  PHE99      -0.1960
     87  CA       -17.8680   -5.5980  -25.8790 C.3    99  PHE99       0.1771
     88  C        -18.7700   -5.8620  -24.6510 C.2    99  PHE99       0.2619
     89  O        -19.4060   -6.9030  -24.5720 O.2    99  PHE99      -0.2715
     90  CB       -18.6820   -5.6160  -27.1840 C.3    99  PHE99       0.0574
     91  CG       -19.9190   -4.7500  -27.1150 C.ar   99  PHE99      -0.0200
     92  CD1      -19.8320   -3.4060  -26.7330 C.ar   99  PHE99      -0.0042
     93  CD2      -21.1730   -5.2680  -27.4450 C.ar   99  PHE99      -0.0042
     94  CE1      -20.9830   -2.6180  -26.6320 C.ar   99  PHE99      -0.0003
     95  CE2      -22.3170   -4.4570  -27.4090 C.ar   99  PHE99      -0.0003
     96  CZ       -22.2130   -3.1420  -26.9840 C.ar   99  PHE99      -0.0000
     97  N        -18.8190   -4.9210  -23.6930 N.am  100  LEU100     -0.1963
     98  CA       -19.6320   -5.0960  -22.4870 C.3   100  LEU100      0.1728
     99  C        -20.9880   -4.4650  -22.7430 C.2   100  LEU100      0.2616
    100  O        -21.0930   -3.2470  -22.8330 O.2   100  LEU100     -0.2715
    101  CB       -18.9310   -4.4790  -21.2500 C.3   100  LEU100      0.0311
    102  CG       -17.7200   -5.2440  -20.6290 C.3   100  LEU100      0.0022
    103  CD1      -18.0570   -6.6790  -20.2620 C.3   100  LEU100      0.0001
    104  CD2      -16.4820   -5.1890  -21.4830 C.3   100  LEU100      0.0001
    105  N        -22.0170   -5.2970  -22.8810 N.am  101  ARG101     -0.1963
    106  CA       -23.3640   -4.8750  -23.2570 C.3   101  ARG101      0.1729
    107  C        -24.1050   -3.9960  -22.2440 C.2   101  ARG101      0.2617
    108  O        -25.0840   -3.3530  -22.6130 O.2   101  ARG101     -0.2715
    109  CB       -24.2410   -6.0880  -23.6200 C.3   101  ARG101      0.0348
    110  CG       -23.7800   -6.7950  -24.8980 C.3   101  ARG101      0.0492
    111  CD       -24.7020   -7.9500  -25.2230 C.3   101  ARG101      0.2205
    112  NE       -24.4630   -8.4950  -26.5620 N.pl3 101  ARG101     -0.0865
    113  CZ       -25.0390   -8.0470  -27.6760 C.cat 101  ARG101      0.5346
    114  NH1      -25.8710   -7.0120  -27.6340 N.pl3 101  ARG101      0.1354
    115  NH2      -24.7730   -8.6180  -28.8420 N.pl3 101  ARG101      0.1354
    116  N        -23.6710   -3.9740  -20.9980 N.am  102  GLY102     -0.1940
    117  CA       -24.3730   -3.1970  -19.9850 C.3   102  GLY102      0.2014
    118  C        -24.0000   -1.7360  -19.7950 C.2   102  GLY102      0.2639
    119  O        -24.6360   -1.0510  -18.9930 O.2   102  GLY102     -0.2714
    120  N        -22.9870   -1.2470  -20.5050 N.am  103  GLY103     -0.1939
    121  CA       -22.5420    0.1350  -20.3500 C.3   103  GLY103      0.2014
    122  C        -21.7470    0.3230  -19.0710 C.2   103  GLY103      0.2638
    123  O        -21.3920   -0.6670  -18.4140 O.2   103  GLY103     -0.2714
    124  N        -21.4510    1.5880  -18.6940 N.am  104  ASP104     -0.1971
    125  CA       -20.5970    1.7920  -17.5230 C.3   104  ASP104      0.1709
    126  C        -21.3730    2.0080  -16.2010 C.2   104  ASP104      0.2293
    127  O        -22.5830    2.2810  -16.1890 O.2   104  ASP104     -0.2864
    128  CB       -19.5590    2.9080  -17.7650 C.3   104  ASP104      0.1436
    129  CG       -20.0950    4.3490  -17.9150 C.2   104  ASP104      0.3671
    130  OD1      -21.2830    4.5770  -17.6440 O.co2 104  ASP104     -0.2456
    131  OD2      -19.3040    5.2420  -18.2650 O.co2 104  ASP104     -0.2456
    132  N        -23.0100    5.6950  -15.6660 N.3   107  THR107     -0.1218
    133  CA       -24.3620    5.8820  -16.1930 C.3   107  THR107      0.1862
    134  C        -25.4180    5.3940  -15.1720 C.2   107  THR107      0.2287
    135  O        -26.3480    6.1370  -14.8790 O.2   107  THR107     -0.2866
    136  CB       -24.4900    5.2010  -17.5790 C.3   107  THR107      0.1770
    137  OG1      -23.5540    5.8300  -18.4560 O.3   107  THR107     -0.2211
    138  CG2      -25.8830    5.3210  -18.1690 C.3   107  THR107      0.0375
    139  N        -16.4960    5.3980  -14.5960 N.3   147  GLU147     -0.1231
    140  CA       -16.4200    5.3540  -16.0780 C.3   147  GLU147      0.1699
    141  C        -15.5810    4.1580  -16.5440 C.2   147  GLU147      0.2592
    142  O        -15.7350    3.7090  -17.6810 O.2   147  GLU147     -0.2718
    143  CB       -15.7440    6.6350  -16.6410 C.3   147  GLU147      0.0402
    144  CG       -16.5870    7.8890  -16.4910 C.3   147  GLU147      0.1161
    145  CD       -16.3630    8.7020  -15.2290 C.2   147  GLU147      0.3649
    146  OE1      -16.0740    8.1230  -14.1570 O.co2 147  GLU147     -0.2457
    147  OE2      -16.4760    9.9430  -15.3230 O.co2 147  GLU147     -0.2457
    148  N        -14.6610    3.6720  -15.6730 N.am  148  ASN148     -0.1974
    149  CA       -13.7460    2.5650  -15.9700 C.3   148  ASN148      0.1688
    150  C        -14.2850    1.2200  -15.4810 C.2   148  ASN148      0.2292
    151  O        -13.6240    0.1900  -15.6440 O.2   148  ASN148     -0.2864
    152  CB       -12.3760    2.8420  -15.3700 C.3   148  ASN148      0.1181
    153  CG       -11.5530    3.7680  -16.2270 C.2   148  ASN148      0.2629
    154  OD1      -11.9070    4.0640  -17.3630 O.2   148  ASN148     -0.2716
    155  ND2      -10.4240    4.2120  -15.7220 N.am  148  ASN148     -0.0877
    156  N        -17.1770   -1.3210  -16.2530 N.3   150  LEU150     -0.1245
    157  CA       -18.2110   -1.6540  -17.2250 C.3   150  LEU150      0.1561
    158  C        -19.0360   -2.8520  -16.7580 C.2   150  LEU150      0.2260
    159  O        -18.5640   -3.6210  -15.9260 O.2   150  LEU150     -0.2867
    160  CB       -17.5830   -1.9310  -18.6170 C.3   150  LEU150      0.0270
    161  CG       -17.2170   -0.6990  -19.5000 C.3   150  LEU150      0.0019
    162  CD1      -18.4070   -0.1730  -20.2550 C.3   150  LEU150      0.0001
    163  CD2      -16.4450    0.4050  -18.7560 C.3   150  LEU150      0.0001
    164  N        -11.7570   -2.0020  -17.4440 N.3   160  THR160     -0.1203
    165  CA       -11.4790   -2.0380  -18.8880 C.3   160  THR160      0.1994
    166  C        -10.3410   -1.1770  -19.4260 C.2   160  THR160      0.2617
    167  O         -9.9670   -1.3540  -20.5920 O.2   160  THR160     -0.2717
    168  CB       -12.7470   -1.6420  -19.6350 C.3   160  THR160      0.1784
    169  OG1      -13.1180   -0.3310  -19.2040 O.3   160  THR160     -0.2211
    170  CG2      -13.8810   -2.6340  -19.4410 C.3   160  THR160      0.0376
    171  N         -9.8570   -0.2020  -18.6520 N.am  161  ASP161     -0.1973
    172  CA        -8.8400    0.7190  -19.1980 C.3   161  ASP161      0.1709
    173  C         -7.6240    0.7370  -18.3100 C.2   161  ASP161      0.2293
    174  O         -7.7310    1.1240  -17.1490 O.2   161  ASP161     -0.2864
    175  CB        -9.4530    2.1360  -19.3060 C.3   161  ASP161      0.1436
    176  CG        -8.6190    3.1250  -20.1080 C.2   161  ASP161      0.3671
    177  OD1       -7.3920    3.1690  -19.9040 O.co2 161  ASP161     -0.2456
    178  OD2       -9.1990    3.8520  -20.9360 O.co2 161  ASP161     -0.2456
@<TRIPOS>BOND
     1     1     2    1
     2     2     5    1
     3     2     3    1
     4     5     6    1
     5    16    14    1
     6     3     4    2
     7     3    10   am
     8    10    11    1
     9     6     7    1
    10    14    11    1
    11    14    15    1
    12    11    12    1
    13     7     8    1
    14     8     9    1
    15    57    56    2
    16    56    55    1
    17    12    13    2
    18    12    17   am
    19    54    55    1
    20    44    45    2
    21    44    43    1
    22    51    52    2
    23    51    50    1
    24   115   113    1
    25    55    58    1
    26    17    18    1
    27    49    50    1
    28    50    53    1
    29    42    43    1
    30    43    46    1
    31    22    24    1
    32    22    23    1
    33    22    21    1
    34    70    71    1
    35   113   114    1
    36   113   112    2
    37    93    95   ar
    38    93    91   ar
    39    18    21    1
    40    18    19    1
    41    95    96   ar
    42    58    59    1
    43    73    72    2
    44    90    91    1
    45    90    87    1
    46    91    92   ar
    47    36    35    2
    48    28    27    2
    49    96    94   ar
    50    47    46    1
    51    59    60    1
    52    46    48    1
    53    92    94   ar
    54    25    19   am
    55    25    26    1
    56   112   111    1
    57    19    20    2
    58    71    72    1
    59    71    74    1
    60    72    78   am
    61    37    35   am
    62    35    34    1
    63    27    26    1
    64    27    29   am
    65    87    86    1
    66    87    88    1
    67    86    80   am
    68    76    75    1
    69    75    74    1
    70    75    77    1
    71    60    61    1
    72    78    79    1
    73    80    79    1
    74    80    81    2
    75   111   110    1
    76    79    82    1
    77    29    30    1
    78   110   109    1
    79    30    33    1
    80    30    31    1
    81    33    34    1
    82    88    89    2
    83    88    97   am
    84    61    62    1
    85    38    31   am
    86    38    39    1
    87    84    83   ar
    88    31    32    2
    89    97    98    1
    90    82    83    1
    91   109   106    1
    92   106   105    1
    93   106   107    1
    94    83    85   ar
    95    39    40    1
    96    41    40    2
    97   105    99   am
    98   100    99    2
    99    99    98    1
   100   108   107    2
   101    98   101    1
   102   107   116   am
   103    69    67    1
   104   104   102    1
   105   101   102    1
   106   116   117    1
   107   178   176   ar
   108   102   103    1
   109   167   166    2
   110    68    67    1
   111   120   121    1
   112   120   118   am
   113    65    66    2
   114    65    64    1
   115   121   122    1
   116    67    64    1
   117   162   161    1
   118   176   177   ar
   119   176   175    1
   120   117   118    1
   121   118   119    2
   122    64    63    1
   123   168   170    1
   124   168   169    1
   125   168   165    1
   126   161   163    1
   127   161   160    1
   128   166   165    1
   129   166   171   am
   130   175   172    1
   131   172   171    1
   132   172   173    1
   133   122   124   am
   134   122   123    2
   135   165   164    1
   136   124   125    1
   137   160   157    1
   138   137   136    1
   139   173   174    2
   140   131   129   ar
   141   138   136    1
   142   129   128    1
   143   129   130   ar
   144   128   125    1
   145   142   141    2
   146   136   133    1
   147   125   126    1
   148   154   153    2
   149   157   158    1
   150   157   156    1
   151   158   159    2
   152   143   144    1
   153   143   140    1
   154   141   140    1
   155   141   148   am
   156   144   145    1
   157   153   155   am
   158   153   152    1
   159   126   127    2
   160   133   132    1
   161   133   134    1
   162   140   139    1
   163   149   148    1
   164   149   150    1
   165   149   152    1
   166   151   150    2
   167   147   145   ar
   168   145   146   ar
   169   134   135    2
