@<TRIPOS>MOLECULE
tmp/4nw7A00.pdb
 197 192 0 0 0
SMALL
GASTEIGER

@<TRIPOS>ATOM
      1  N        -19.3980   34.7790   -3.6670 N.3    84  TYR84      -0.1227
      2  CA       -19.7370   35.4900   -2.4370 C.3    84  TYR84       0.1736
      3  C        -19.3800   36.9550   -2.4680 C.2    84  TYR84       0.2595
      4  O        -20.2210   37.7990   -2.2220 O.2    84  TYR84      -0.2718
      5  CB       -19.0680   34.8100   -1.2330 C.3    84  TYR84       0.0548
      6  CG       -19.4070   35.4600    0.1100 C.ar   84  TYR84      -0.0200
      7  CD1      -20.5270   35.1120    0.7970 C.ar   84  TYR84      -0.0009
      8  CD2      -18.6350   36.4730    0.6260 C.ar   84  TYR84      -0.0009
      9  CE1      -20.8510   35.7300    1.9970 C.ar   84  TYR84       0.0417
     10  CE2      -18.9450   37.0950    1.8230 C.ar   84  TYR84       0.0417
     11  CZ       -20.0520   36.7120    2.5010 C.ar   84  TYR84       0.1957
     12  OH       -20.3430   37.3020    3.6930 O.3    84  TYR84      -0.2866
     13  N        -18.1160   37.2600   -2.7880 N.am   85  HIS85      -0.1975
     14  CA       -17.6230   38.6240   -2.7960 C.3    85  HIS85       0.1656
     15  C        -17.9790   39.4000   -4.0330 C.2    85  HIS85       0.2291
     16  O        -17.1130   39.8920   -4.7410 O.2    85  HIS85      -0.2864
     17  CB       -16.0920   38.6630   -2.5440 C.3    85  HIS85       0.0771
     18  CG       -15.7000   38.1740   -1.1940 C.ar   85  HIS85       0.0820
     19  ND1      -15.2490   36.9000   -0.9750 N.ar   85  HIS85      -0.2267
     20  CD2      -15.7290   38.7690    0.0200 C.ar   85  HIS85       0.1154
     21  CE1      -14.9430   36.7370    0.2970 C.ar   85  HIS85       0.1986
     22  NE2      -15.2570   37.8500    0.9350 N.ar   85  HIS85      -0.2212
     23  N         -8.4100   34.4210   -1.5970 N.3   133  SER133     -0.1202
     24  CA        -8.0010   35.0950   -0.3430 C.3   133  SER133      0.2020
     25  C         -6.6340   35.7330   -0.4470 C.2   133  SER133      0.2618
     26  O         -5.8380   35.4020   -1.3380 O.2   133  SER133     -0.2717
     27  CB        -7.8830   34.0270    0.7510 C.3   133  SER133      0.2103
     28  OG        -6.8410   33.1110    0.3980 O.3   133  SER133     -0.2182
     29  N         -6.3100   36.5770    0.5160 N.am  134  ASN134     -0.1974
     30  CA        -5.0120   37.2290    0.5480 C.3   134  ASN134      0.1688
     31  C         -3.9500   36.1660    0.5390 C.2   134  ASN134      0.2292
     32  O         -2.9250   36.3030   -0.1420 O.2   134  ASN134     -0.2864
     33  CB        -4.8550   38.1150    1.8140 C.3   134  ASN134      0.1181
     34  CG        -5.5100   39.4960    1.6560 C.2   134  ASN134      0.2629
     35  OD1       -5.5440   40.0580    0.5700 O.2   134  ASN134     -0.2716
     36  ND2       -5.9760   40.0590    2.7290 N.am  134  ASN134     -0.0877
     37  N         -9.4850   40.2500    7.6320 N.3   198  MET198     -0.1245
     38  CA        -9.7590   39.2440    8.6600 C.3   198  MET198      0.1570
     39  C         -8.5880   38.9530    9.5220 C.2   198  MET198      0.2261
     40  O         -8.7840   38.5570   10.6530 O.2   198  MET198     -0.2867
     41  CB       -10.1870   37.9280    8.0420 C.3   198  MET198      0.0387
     42  CG       -11.6000   37.9210    7.5590 C.3   198  MET198      0.0595
     43  SD       -12.8140   38.5170    8.7730 S.3   198  MET198     -0.1393
     44  CE       -14.0250   38.9550    7.5220 C.3   198  MET198      0.0692
     45  N        -19.6420   43.1600    8.2000 N.3   243  ASP243     -0.1225
     46  CA       -19.0000   42.2020    7.3000 C.3   243  ASP243      0.1805
     47  C        -19.1590   40.7170    7.8000 C.2   243  ASP243      0.2597
     48  O        -19.2390   39.7920    7.0060 O.2   243  ASP243     -0.2718
     49  CB       -17.5130   42.5820    7.1550 C.3   243  ASP243      0.1424
     50  CG       -16.8620   42.0270    5.8890 C.2   243  ASP243      0.3668
     51  OD1      -17.5520   41.7550    4.8750 O.co2 243  ASP243     -0.2456
     52  OD2      -15.6410   41.8950    5.9090 O.co2 243  ASP243     -0.2456
     53  N        -19.2490   40.5190    9.1080 N.am  244  LEU244     -0.1979
     54  CA       -19.4480   39.2150    9.7290 C.3   244  LEU244      0.1596
     55  C        -20.8750   39.1210   10.2900 C.2   244  LEU244      0.2287
     56  O        -21.0790   38.5720   11.3520 O.2   244  LEU244     -0.2864
     57  CB       -18.4350   39.0140   10.8390 C.3   244  LEU244      0.0297
     58  CG       -16.9560   38.9190   10.4620 C.3   244  LEU244      0.0022
     59  CD1      -16.0720   38.5660   11.6480 C.3   244  LEU244      0.0001
     60  CD2      -16.7300   37.8840    9.3970 C.3   244  LEU244      0.0001
     61  N        -23.5310   37.7860    8.5430 N.3   246  ASN246     -0.1226
     62  CA       -24.4020   36.8480    7.8580 C.3   246  ASN246      0.1770
     63  C        -25.0050   35.8600    8.8510 C.2   246  ASN246      0.2439
     64  O        -26.1590   35.5280    8.7340 O.2   246  ASN246     -0.2733
     65  CB       -23.6480   36.0270    6.8040 C.3   246  ASN246      0.1168
     66  CG       -23.1860   36.8240    5.5670 C.2   246  ASN246      0.2627
     67  OD1      -22.3090   36.3410    4.8500 O.2   246  ASN246     -0.2716
     68  ND2      -23.8050   37.9690    5.2730 N.am  246  ASN246     -0.0877
     69  N        -24.2070   35.3830    9.8330 N.am  247  PRO247     -0.2729
     70  CA       -24.7670   34.3990   10.7720 C.3   247  PRO247      0.1401
     71  C        -25.7510   34.9650   11.8040 C.2   247  PRO247      0.2269
     72  O        -26.3060   34.1810   12.5980 O.2   247  PRO247     -0.2865
     73  CB       -23.5280   33.8270   11.4690 C.3   247  PRO247      0.0296
     74  CG       -22.3840   34.1490   10.5960 C.3   247  PRO247      0.0237
     75  CD       -22.7360   35.4780    9.9890 C.3   247  PRO247      0.0939
     76  N        -28.9490   33.4270    6.0710 N.3   254  TYR254     -0.1241
     77  CA       -27.6590   32.9000    6.4570 C.3   254  TYR254      0.1605
     78  C        -27.3040   31.6880    5.5950 C.2   254  TYR254      0.2264
     79  O        -26.1880   31.6230    5.0870 O.2   254  TYR254     -0.2867
     80  CB       -27.6920   32.5060    7.8990 C.3   254  TYR254      0.0534
     81  CG       -26.4820   31.8740    8.5050 C.ar  254  TYR254     -0.0201
     82  CD1      -25.1950   31.9640    7.9380 C.ar  254  TYR254     -0.0009
     83  CD2      -26.5840   31.2660    9.7720 C.ar  254  TYR254     -0.0009
     84  CE1      -24.0930   31.3950    8.5750 C.ar  254  TYR254      0.0417
     85  CE2      -25.4710   30.7050   10.3910 C.ar  254  TYR254      0.0417
     86  CZ       -24.2280   30.7870    9.7760 C.ar  254  TYR254      0.1957
     87  OH       -23.1210   30.2210   10.4180 O.3   254  TYR254     -0.2866
     88  N        -26.0920   32.7240    2.1960 N.3   257  TRP257     -0.1227
     89  CA       -24.7660   33.2470    2.3160 C.3   257  TRP257      0.1737
     90  C        -23.7430   32.1510    2.4740 C.2   257  TRP257      0.2596
     91  O        -22.7220   32.1920    1.8440 O.2   257  TRP257     -0.2718
     92  CB       -24.6550   34.1740    3.4870 C.3   257  TRP257      0.0564
     93  CG       -25.4290   35.4480    3.3300 C.ar  257  TRP257      0.0003
     94  CD1      -26.3830   35.9230    4.1490 C.ar  257  TRP257      0.0946
     95  CD2      -25.2750   36.4290    2.2640 C.ar  257  TRP257      0.0152
     96  NE1      -26.8490   37.1630    3.6770 N.ar  257  TRP257     -0.2442
     97  CE2      -26.1590   37.4930    2.5410 C.ar  257  TRP257      0.0810
     98  CE3      -24.4730   36.4910    1.1210 C.ar  257  TRP257      0.0012
     99  CZ2      -26.2900   38.5970    1.6950 C.ar  257  TRP257      0.0191
    100  CZ3      -24.5770   37.5850    0.3070 C.ar  257  TRP257      0.0001
    101  CH2      -25.4840   38.6270    0.5800 C.ar  257  TRP257      0.0015
    102  N        -23.9820   31.1960    3.3570 N.am  258  THR258     -0.1953
    103  CA       -23.0880   30.0360    3.4870 C.3   258  THR258      0.1897
    104  C        -22.9550   29.2350    2.1970 C.2   258  THR258      0.2313
    105  O        -21.8630   28.9090    1.8010 O.2   258  THR258     -0.2863
    106  CB       -23.6230   29.1170    4.5500 C.3   258  THR258      0.1794
    107  OG1      -23.6760   29.8590    5.7810 O.3   258  THR258     -0.2208
    108  CG2      -22.7490   27.9000    4.6800 C.3   258  THR258      0.0378
    109  N        -20.4160   31.3800    0.1540 N.3   261  ILE261     -0.1231
    110  CA       -19.0160   31.4390    0.6240 C.3   261  ILE261      0.1692
    111  C        -18.3290   30.1080    0.3720 C.2   261  ILE261      0.2591
    112  O        -17.1840   30.0760   -0.0710 O.2   261  ILE261     -0.2718
    113  CB       -18.9220   31.8820    2.0740 C.3   261  ILE261      0.0266
    114  CG1      -17.5100   32.2250    2.4630 C.3   261  ILE261      0.0019
    115  CG2      -19.3440   30.7950    3.0550 C.3   261  ILE261      0.0020
    116  CD1      -16.7550   33.0690    1.4940 C.3   261  ILE261      0.0001
    117  N        -19.0460   29.0120    0.5750 N.am  262  MET262     -0.1979
    118  CA       -18.4800   27.6940    0.2830 C.3   262  MET262      0.1605
    119  C        -18.2020   27.4920   -1.2090 C.2   262  MET262      0.2287
    120  O        -17.1270   26.9720   -1.5170 O.2   262  MET262     -0.2864
    121  CB       -19.3630   26.5660    0.8030 C.3   262  MET262      0.0413
    122  CG       -19.5390   26.5130    2.3140 C.3   262  MET262      0.0598
    123  SD       -18.0880   26.5830    3.3510 S.3   262  MET262     -0.1393
    124  CE       -17.1190   25.2500    2.6520 C.3   262  MET262      0.0692
    125  N        -14.9660   29.3720   -1.7630 N.3   265  PHE265     -0.1241
    126  CA       -13.8820   28.5610   -1.2350 C.3   265  PHE265      0.1605
    127  C        -13.5570   27.3580   -2.1300 C.2   265  PHE265      0.2264
    128  O        -12.3750   27.1040   -2.4040 O.2   265  PHE265     -0.2867
    129  CB       -14.1540   28.0800    0.1760 C.3   265  PHE265      0.0534
    130  CG       -14.0990   29.1770    1.2410 C.ar  265  PHE265     -0.0203
    131  CD1      -13.6360   30.4630    0.9490 C.ar  265  PHE265     -0.0042
    132  CD2      -14.5440   28.9230    2.5360 C.ar  265  PHE265     -0.0042
    133  CE1      -13.6200   31.4530    1.9380 C.ar  265  PHE265     -0.0003
    134  CE2      -14.5010   29.9000    3.5310 C.ar  265  PHE265     -0.0003
    135  CZ       -14.0450   31.1700    3.2230 C.ar  265  PHE265     -0.0000
    136  N        -10.8400   24.5110    4.2700 N.3   282  MET282     -0.1245
    137  CA       -12.1670   24.9130    3.8300 C.3   282  MET282      0.1570
    138  C        -12.3460   24.8760    2.3320 C.2   282  MET282      0.2261
    139  O        -13.4700   24.9440    1.8740 O.2   282  MET282     -0.2867
    140  CB       -12.5090   26.3410    4.2900 C.3   282  MET282      0.0387
    141  CG       -12.3720   26.5720    5.7840 C.3   282  MET282      0.0595
    142  SD       -13.8370   25.8580    6.5250 S.3   282  MET282     -0.1393
    143  CE       -13.1120   24.3240    7.1200 C.3   282  MET282      0.0692
    144  N        -17.8640   23.4140   10.2810 N.3   293  SER293     -0.1202
    145  CA       -17.0950   24.6340   10.1010 C.3   293  SER293      0.2020
    146  C        -17.9030   25.8680   10.4760 C.2   293  SER293      0.2618
    147  O        -17.3500   26.7690   11.0410 O.2   293  SER293     -0.2717
    148  CB       -16.5800   24.7560    8.6600 C.3   293  SER293      0.2103
    149  OG       -15.7810   23.6220    8.3670 O.3   293  SER293     -0.2182
    150  N        -19.2120   25.8970   10.1940 N.am  294  GLN294     -0.1979
    151  CA       -20.0120   27.0630   10.5720 C.3   294  GLN294      0.1601
    152  C        -20.1040   27.1870   12.0450 C.2   294  GLN294      0.2287
    153  O        -20.0370   28.2800   12.5640 O.2   294  GLN294     -0.2864
    154  CB       -21.4280   27.0320    9.9740 C.3   294  GLN294      0.0394
    155  CG       -21.4510   27.3670    8.5110 C.3   294  GLN294      0.0908
    156  CD       -20.8020   28.7040    8.2090 C.2   294  GLN294      0.2608
    157  OE1      -21.1640   29.7330    8.7730 O.2   294  GLN294     -0.2717
    158  NE2      -19.8710   28.7050    7.3020 N.am  294  GLN294     -0.0878
    159  N        -16.8170   28.4920   13.1290 N.3   297  PHE297     -0.1241
    160  CA       -16.7640   29.9200   12.7670 C.3   297  PHE297      0.1605
    161  C        -17.5060   30.8080   13.7760 C.2   297  PHE297      0.2264
    162  O        -16.9700   31.8420   14.2230 O.2   297  PHE297     -0.2867
    163  CB       -17.3320   30.0890   11.3710 C.3   297  PHE297      0.0534
    164  CG       -17.3180   31.4920   10.8400 C.ar  297  PHE297     -0.0203
    165  CD1      -16.1410   32.2590   10.8400 C.ar  297  PHE297     -0.0042
    166  CD2      -18.4530   32.0060   10.2290 C.ar  297  PHE297     -0.0042
    167  CE1      -16.1110   33.5210   10.2900 C.ar  297  PHE297     -0.0003
    168  CE2      -18.4350   33.2710    9.6590 C.ar  297  PHE297     -0.0003
    169  CZ       -17.2640   34.0230    9.6920 C.ar  297  PHE297     -0.0000
    170  N         -8.8950   27.4130   10.2450 N.3   338  LEU338     -0.1245
    171  CA        -9.8090   28.4920   10.6710 C.3   338  LEU338      0.1561
    172  C         -9.0850   29.6570   11.3460 C.2   338  LEU338      0.2260
    173  O         -9.0470   30.7490   10.7990 O.2   338  LEU338     -0.2867
    174  CB       -10.9280   27.9710   11.6200 C.3   338  LEU338      0.0270
    175  CG       -12.1100   28.9160   12.0040 C.3   338  LEU338      0.0019
    176  CD1      -13.4560   28.2560   11.7360 C.3   338  LEU338      0.0001
    177  CD2      -12.0110   29.3560   13.4510 C.3   338  LEU338      0.0001
    178  N         -6.4580   32.1920    9.7550 N.3   341  LYS341     -0.1231
    179  CA        -7.1400   33.1420    8.8440 C.3   341  LYS341      0.1693
    180  C         -7.6720   34.3990    9.5670 C.2   341  LYS341      0.2592
    181  O         -8.0100   35.3780    8.9000 O.2   341  LYS341     -0.2718
    182  CB        -8.2960   32.4600    8.0650 C.3   341  LYS341      0.0285
    183  CG        -7.7870   31.2860    7.2640 C.3   341  LYS341      0.0035
    184  CD        -8.8250   30.7050    6.3530 C.3   341  LYS341      0.0206
    185  CE        -8.1710   29.6120    5.5200 C.3   341  LYS341      0.1093
    186  NZ        -9.1300   29.0080    4.5790 N.3   341  LYS341     -0.1314
    187  N         -7.7340   34.3680   10.9140 N.am  342  PHE342     -0.1976
    188  CA        -8.2800   35.4820   11.7370 C.3   342  PHE342      0.1639
    189  C         -7.3040   36.0570   12.7710 C.2   342  PHE342      0.2290
    190  O         -7.7220   36.7590   13.7020 O.2   342  PHE342     -0.2864
    191  CB        -9.6090   35.0580   12.4050 C.3   342  PHE342      0.0560
    192  CG       -10.6650   34.6690   11.4100 C.ar  342  PHE342     -0.0200
    193  CD1      -11.4470   35.6440   10.7690 C.ar  342  PHE342     -0.0042
    194  CD2      -10.8400   33.3240   11.0470 C.ar  342  PHE342     -0.0042
    195  CE1      -12.3980   35.2660    9.8220 C.ar  342  PHE342     -0.0003
    196  CE2      -11.7930   32.9460   10.1020 C.ar  342  PHE342     -0.0003
    197  CZ       -12.5630   33.9140    9.4840 C.ar  342  PHE342     -0.0000
@<TRIPOS>BOND
     1    16    15    2
     2    15    14    1
     3     1     2    1
     4    14    13    1
     5    14    17    1
     6    13     3   am
     7    17    18    1
     8     3     2    1
     9     3     4    2
    10     2     5    1
    11   128   127    2
    12   127   126    1
    13   125   126    1
    14    23    24    1
    15   120   119    2
    16    26    25    2
    17   126   129    1
    18     5     6    1
    19   119   118    1
    20    18    19   ar
    21    18    20   ar
    22    19    21   ar
    23    25    24    1
    24    25    29   am
    25    24    27    1
    26    32    31    2
    27   112   111    2
    28    20    22   ar
    29     6     8   ar
    30     6     7   ar
    31   109   110    1
    32   129   130    1
    33   118   117    1
    34   118   121    1
    35    21    22   ar
    36   100   101   ar
    37   100    98   ar
    38   111   117   am
    39   111   110    1
    40    28    27    1
    41    29    30    1
    42    31    30    1
    43    30    33    1
    44    35    34    2
    45   101    99   ar
    46   110   113    1
    47     8    10   ar
    48     7     9   ar
    49   121   122    1
    50   131   130   ar
    51   131   133   ar
    52    98    95   ar
    53   130   132   ar
    54   116   114    1
    55    34    33    1
    56    34    36   am
    57    99    97   ar
    58   105   104    2
    59    10    11   ar
    60    91    90    2
    61   139   138    2
    62   133   135   ar
    63     9    11   ar
    64   113   114    1
    65   113   115    1
    66    88    89    1
    67   104   103    1
    68    95    97   ar
    69    95    93   ar
    70   122   123    1
    71    89    90    1
    72    89    92    1
    73   138   137    1
    74    90   102   am
    75    11    12    1
    76   132   134   ar
    77    97    96   ar
    78   124   123    1
    79   135   134   ar
    80    93    92    1
    81    93    94   ar
    82   102   103    1
    83   103   106    1
    84    96    94   ar
    85   137   136    1
    86   137   140    1
    87   140   141    1
    88   106   108    1
    89   106   107    1
    90   186   185    1
    91    67    66    2
    92    51    50   ar
    93    79    78    2
    94    68    66   am
    95   185   184    1
    96    66    65    1
    97    78    77    1
    98   141   142    1
    99    50    52   ar
   100    50    49    1
   101    76    77    1
   102   184   183    1
   103    77    80    1
   104   142   143    1
   105    65    62    1
   106    48    47    2
   107    49    46    1
   108   183   182    1
   109    46    47    1
   110    46    45    1
   111   158   156   am
   112    44    43    1
   113    42    41    1
   114    42    43    1
   115    37    38    1
   116    47    53   am
   117    62    61    1
   118    62    63    1
   119    80    81    1
   120    82    81   ar
   121    82    84   ar
   122    41    38    1
   123   182   179    1
   124   156   155    1
   125   156   157    2
   126   149   148    1
   127    81    83   ar
   128   155   154    1
   129    84    86   ar
   130   148   145    1
   131    38    39    1
   132    64    63    2
   133   179   180    1
   134   179   178    1
   135    63    69   am
   136   181   180    2
   137    53    54    1
   138    60    58    1
   139   197   195   ar
   140   197   196   ar
   141    39    40    2
   142   180   187   am
   143   168   169   ar
   144   168   166   ar
   145   169   167   ar
   146    54    55    1
   147    54    57    1
   148    83    85   ar
   149    86    85   ar
   150    86    87    1
   151   195   193   ar
   152    69    75    1
   153    69    70    1
   154   154   151    1
   155    75    74    1
   156   145   144    1
   157   145   146    1
   158   196   194   ar
   159   150   146   am
   160   150   151    1
   161   166   164   ar
   162   170   171    1
   163    55    56    2
   164   167   165   ar
   165    58    57    1
   166    58    59    1
   167   146   147    2
   168   151   152    1
   169    74    73    1
   170   171   172    1
   171   171   174    1
   172   193   192   ar
   173    70    73    1
   174    70    71    1
   175   173   172    2
   176   165   164   ar
   177   164   163    1
   178   187   188    1
   179   194   192   ar
   180   163   160    1
   181   192   191    1
   182   174   175    1
   183   176   175    1
   184   188   191    1
   185   188   189    1
   186    71    72    2
   187   175   177    1
   188   152   153    2
   189   160   159    1
   190   160   161    1
   191   189   190    2
   192   161   162    2
