@<TRIPOS>MOLECULE
tmp/4nwcA00.pdb
 148 141 0 0 0
SMALL
GASTEIGER

@<TRIPOS>ATOM
      1  N          9.5290   33.3670   21.9360 N.3    12  GLU12      -0.1245
      2  CA         9.7980   32.1770   21.1390 C.3    12  GLU12       0.1567
      3  C         11.2780   32.1500   20.7990 C.2    12  GLU12       0.2260
      4  O         11.7390   32.8860   19.9310 O.2    12  GLU12      -0.2867
      5  CB         8.9790   32.2060   19.8440 C.3    12  GLU12       0.0388
      6  CG         8.8590   30.8470   19.1550 C.3    12  GLU12       0.1160
      7  CD         7.9700   29.8920   19.9430 C.2    12  GLU12       0.3649
      8  OE1        6.7230   30.0250   19.8710 O.co2  12  GLU12      -0.2457
      9  OE2        8.5200   29.0270   20.6540 O.co2  12  GLU12      -0.2457
     10  N         13.8650   33.6360   18.4730 N.3    15  PHE15      -0.1241
     11  CA        13.3650   34.8000   17.7470 C.3    15  PHE15       0.1605
     12  C         13.1130   35.9860   18.6610 C.2    15  PHE15       0.2264
     13  O         13.4940   37.1140   18.3560 O.2    15  PHE15      -0.2867
     14  CB        12.0690   34.4590   17.0100 C.3    15  PHE15       0.0534
     15  CG        12.2490   33.4560   15.9050 C.ar   15  PHE15      -0.0203
     16  CD1       12.6220   33.8730   14.6360 C.ar   15  PHE15      -0.0042
     17  CD2       12.0380   32.1000   16.1370 C.ar   15  PHE15      -0.0042
     18  CE1       12.7850   32.9530   13.6040 C.ar   15  PHE15      -0.0003
     19  CE2       12.1980   31.1660   15.1050 C.ar   15  PHE15      -0.0003
     20  CZ        12.5710   31.6010   13.8390 C.ar   15  PHE15      -0.0000
     21  N         -0.4600   32.5220   18.2960 N.3    60  TYR60      -0.1241
     22  CA        -0.1050   33.0620   16.9880 C.3    60  TYR60       0.1605
     23  C         -1.3730   33.5200   16.2770 C.2    60  TYR60       0.2264
     24  O         -1.4890   34.6860   15.9010 O.2    60  TYR60      -0.2867
     25  CB         0.6750   32.0360   16.1630 C.3    60  TYR60       0.0534
     26  CG         2.1000   31.9000   16.6460 C.ar   60  TYR60      -0.0201
     27  CD1        2.4180   31.0270   17.6800 C.ar   60  TYR60      -0.0009
     28  CD2        3.1230   32.6720   16.0970 C.ar   60  TYR60      -0.0009
     29  CE1        3.7150   30.9060   18.1450 C.ar   60  TYR60       0.0417
     30  CE2        4.4260   32.5600   16.5580 C.ar   60  TYR60       0.0417
     31  CZ         4.7100   31.6740   17.5850 C.ar   60  TYR60       0.1957
     32  OH         5.9920   31.5430   18.0570 O.3    60  TYR60      -0.2866
     33  N          8.0680   34.8480   14.5740 N.3    87  PRO87      -0.2102
     34  CA         8.0730   33.8660   13.4820 C.3    87  PRO87       0.1504
     35  C          6.6370   33.5420   13.0710 C.2    87  PRO87       0.2576
     36  O          6.1230   32.4520   13.3780 O.2    87  PRO87      -0.2718
     37  CB         8.7440   32.6440   14.1130 C.3    87  PRO87       0.0282
     38  CG         8.4600   32.7710   15.5900 C.3    87  PRO87       0.0208
     39  CD         8.4890   34.2570   15.8610 C.3    87  PRO87       0.0893
     40  N          6.0020   34.4880   12.3830 N.am   88  LEU88      -0.1966
     41  CA         4.5890   34.3680   11.9990 C.3    88  LEU88       0.1728
     42  C          4.4530   33.7840   10.5990 C.2    88  LEU88       0.2616
     43  O          4.8920   34.3810    9.6040 O.2    88  LEU88      -0.2715
     44  CB         3.9110   35.7420   12.0550 C.3    88  LEU88       0.0311
     45  CG         2.4150   35.8390   11.7580 C.3    88  LEU88       0.0022
     46  CD1        1.5990   35.2180   12.8870 C.3    88  LEU88       0.0001
     47  CD2        2.0070   37.2980   11.5390 C.3    88  LEU88       0.0001
     48  N          3.8220   32.6200   10.5130 N.am   89  THR89      -0.1951
     49  CA         3.7540   31.9140    9.2440 C.3    89  THR89       0.1897
     50  C          2.7730   32.5820    8.2830 C.2    89  THR89       0.2313
     51  O          1.6250   32.8930    8.6510 O.2    89  THR89      -0.2863
     52  CB         3.4120   30.4290    9.4540 C.3    89  THR89       0.1794
     53  OG1        4.3460   29.8710   10.3900 O.3    89  THR89      -0.2208
     54  CG2        3.5080   29.6660    8.1460 C.3    89  THR89       0.0378
     55  N         -4.7510   33.0620    6.6600 N.3    94  ARG94      -0.1245
     56  CA        -4.5990   34.2780    7.4540 C.3    94  ARG94       0.1563
     57  C         -4.7330   35.5160    6.5850 C.2    94  ARG94       0.2260
     58  O         -5.1120   36.5870    7.0670 O.2    94  ARG94      -0.2867
     59  CB        -3.2670   34.2910    8.1970 C.3    94  ARG94       0.0307
     60  CG        -3.2180   33.2790    9.3330 C.3    94  ARG94       0.0489
     61  CD        -1.8180   33.1440    9.9140 C.3    94  ARG94       0.2205
     62  NE        -1.8530   32.4940   11.2260 N.pl3  94  ARG94      -0.0865
     63  CZ        -0.7750   32.0700   11.8740 C.cat  94  ARG94       0.5346
     64  NH1       -0.8960   31.4990   13.0730 N.pl3  94  ARG94       0.1354
     65  NH2        0.4190   32.1950   11.3150 N.pl3  94  ARG94       0.1354
     66  N          1.3190   22.8110   18.0650 N.3   136  VAL136     -0.1245
     67  CA         0.9370   23.9400   18.9100 C.3   136  VAL136      0.1561
     68  C         -0.4860   24.3870   18.5950 C.2   136  VAL136      0.2260
     69  O         -0.8270   24.6460   17.4330 O.2   136  VAL136     -0.2867
     70  CB         1.8980   25.1300   18.7510 C.3   136  VAL136      0.0252
     71  CG1        1.3800   26.3550   19.5320 C.3   136  VAL136      0.0019
     72  CG2        3.3060   24.7480   19.2050 C.3   136  VAL136      0.0019
     73  N         -1.8840   27.5000   16.0600 N.3   139  GLY139     -0.1210
     74  CA        -0.7780   27.9010   15.2110 C.3   139  GLY139      0.1956
     75  C         -0.9910   27.4660   13.7660 C.2   139  GLY139      0.2612
     76  O         -1.9610   26.7760   13.4450 O.2   139  GLY139     -0.2717
     77  N         -0.0650   27.8490   12.8980 N.am  140  ALA140     -0.1965
     78  CA        -0.1780   27.5480   11.4780 C.3   140  ALA140      0.1728
     79  C         -0.0660   26.0630   11.1930 C.2   140  ALA140      0.2617
     80  O         -0.7000   25.5450   10.2650 O.2   140  ALA140     -0.2715
     81  CB         0.8750   28.3220   10.6980 C.3   140  ALA140      0.0334
     82  N          0.7360   25.3600   11.9820 N.am  141  THR141     -0.1937
     83  CA         0.8990   23.9290   11.7430 C.3   141  THR141      0.2028
     84  C         -0.3930   23.1670   12.0350 C.2   141  THR141      0.2642
     85  O         -0.8080   22.3070   11.2450 O.2   141  THR141     -0.2714
     86  CB         2.0480   23.3350   12.5620 C.3   141  THR141      0.1808
     87  OG1        3.2700   23.9970   12.2100 O.3   141  THR141     -0.2208
     88  CG2        2.1820   21.8530   12.2570 C.3   141  THR141      0.0379
     89  N         -1.0240   23.4750   13.1670 N.am  142  MET142     -0.1976
     90  CA        -2.3400   22.9090   13.4750 C.3   142  MET142      0.1605
     91  C         -3.3090   23.1660   12.3250 C.2   142  MET142      0.2287
     92  O         -3.9780   22.2460   11.8430 O.2   142  MET142     -0.2864
     93  CB        -2.9060   23.5230   14.7580 C.3   142  MET142      0.0413
     94  CG        -4.2170   22.8970   15.2210 C.3   142  MET142      0.0598
     95  SD        -5.2220   24.0670   16.1680 S.3   142  MET142     -0.1393
     96  CE        -5.7480   25.1730   14.8530 C.3   142  MET142      0.0692
     97  N          5.3220   26.0510   21.9860 N.3   171  ASN171     -0.1240
     98  CA         6.4570   25.2470   21.5510 C.3   171  ASN171      0.1653
     99  C          7.1930   24.6020   22.7020 C.2   171  ASN171      0.2266
    100  O          7.4960   23.4160   22.6740 O.2   171  ASN171     -0.2867
    101  CB         7.4380   26.1260   20.7970 C.3   171  ASN171      0.1155
    102  CG         7.5800   25.7280   19.3630 C.2   171  ASN171      0.2627
    103  OD1        6.8490   24.8660   18.8730 O.2   171  ASN171     -0.2716
    104  ND2        8.5220   26.3550   18.6660 N.am  171  ASN171     -0.0877
    105  N          4.8410   18.0410   15.7140 N.3   186  LEU186     -0.1231
    106  CA         4.8360   18.6320   14.3800 C.3   186  LEU186      0.1693
    107  C          5.1420   20.1050   14.5400 C.2   186  LEU186      0.2592
    108  O          4.3860   20.8370   15.1750 O.2   186  LEU186     -0.2718
    109  CB         3.4780   18.4370   13.7140 C.3   186  LEU186      0.0284
    110  CG         3.2220   16.9650   13.4330 C.3   186  LEU186      0.0019
    111  CD1        1.7290   16.6720   13.3230 C.3   186  LEU186      0.0001
    112  CD2        3.9470   16.6140   12.1620 C.3   186  LEU186      0.0001
    113  N          6.2540   20.5350   13.9610 N.am  187  MET187     -0.1965
    114  CA         6.6560   21.9170   14.1300 C.3   187  MET187      0.1736
    115  C          7.5840   22.3530   13.0240 C.2   187  MET187      0.2616
    116  O          7.9360   21.5740   12.1460 O.2   187  MET187     -0.2715
    117  CB         7.3080   22.1210   15.4880 C.3   187  MET187      0.0427
    118  CG         8.5010   21.2400   15.7010 C.3   187  MET187      0.0599
    119  SD         9.3520   21.6570   17.2190 S.3   187  MET187     -0.1393
    120  CE        10.3600   23.0180   16.6700 C.3   187  MET187      0.0692
    121  N          7.8880   23.6450   13.0040 N.am  188  GLU188     -0.1977
    122  CA         8.5560   24.2240   11.8530 C.3   188  GLU188      0.1602
    123  C         10.0600   23.9700   11.8540 C.2   188  GLU188      0.2287
    124  O         10.6930   23.9460   12.9000 O.2   188  GLU188     -0.2864
    125  CB         8.1610   25.7010   11.7310 C.3   188  GLU188      0.0415
    126  CG         6.6590   25.7980   11.3980 C.3   188  GLU188      0.1163
    127  CD         6.0550   27.1700   11.6160 C.2   188  GLU188      0.3649
    128  OE1        6.6360   27.9770   12.3800 O.co2 188  GLU188     -0.2457
    129  OE2        4.9830   27.4290   11.0150 O.co2 188  GLU188     -0.2457
    130  N         13.1420   25.9750   13.6330 N.3   191  THR191     -0.1218
    131  CA        13.0980   25.8320   15.0790 C.3   191  THR191      0.1862
    132  C         13.5750   24.4350   15.4910 C.2   191  THR191      0.2287
    133  O         14.2800   24.2880   16.4860 O.2   191  THR191     -0.2866
    134  CB        11.6990   26.1160   15.6160 C.3   191  THR191      0.1770
    135  OG1       11.2620   27.3690   15.0880 O.3   191  THR191     -0.2211
    136  CG2       11.7100   26.1960   17.1400 C.3   191  THR191      0.0375
    137  N          8.0720   32.8620    6.9800 N.3   214  TYR214     -0.1241
    138  CA         7.6620   33.7730    8.0480 C.3   214  TYR214      0.1605
    139  C          7.6730   35.1820    7.5010 C.2   214  TYR214      0.2264
    140  O          8.6120   35.5720    6.8060 O.2   214  TYR214     -0.2867
    141  CB         8.6730   33.7550    9.1940 C.3   214  TYR214      0.0534
    142  CG         8.7180   32.4770    9.9820 C.ar  214  TYR214     -0.0201
    143  CD1        7.5790   31.7060   10.1660 C.ar  214  TYR214     -0.0009
    144  CD2        9.9050   32.0460   10.5510 C.ar  214  TYR214     -0.0009
    145  CE1        7.6340   30.5180   10.8970 C.ar  214  TYR214      0.0417
    146  CE2        9.9680   30.8730   11.2740 C.ar  214  TYR214      0.0417
    147  CZ         8.8350   30.1190   11.4460 C.ar  214  TYR214      0.1957
    148  OH         8.9140   28.9540   12.1680 O.3   214  TYR214     -0.2866
@<TRIPOS>BOND
     1    57    58    2
     2    57    56    1
     3    55    56    1
     4   140   139    2
     5   137   138    1
     6    56    59    1
     7   139   138    1
     8   138   141    1
     9    54    52    1
    10    59    60    1
    11    50    51    2
    12    50    49    1
    13   141   142    1
    14    49    52    1
    15    49    48    1
    16    60    61    1
    17    52    53    1
    18    43    42    2
    19    61    62    1
    20   142   143   ar
    21   142   144   ar
    22   143   145   ar
    23    80    79    2
    24    48    42   am
    25   144   146   ar
    26    42    41    1
    27    81    78    1
    28   145   147   ar
    29   129   127   ar
    30    79    78    1
    31    79    82   am
    32    62    63    2
    33    85    84    2
    34   146   147   ar
    35    65    63    1
    36   126   127    1
    37   126   125    1
    38   147   148    1
    39    78    77    1
    40    47    45    1
    41   127   128   ar
    42   125   122    1
    43    83    82    1
    44    83    84    1
    45    83    86    1
    46    45    44    1
    47    45    46    1
    48    92    91    2
    49   122   123    1
    50   122   121    1
    51   123   124    2
    52    63    64    1
    53    41    44    1
    54    41    40    1
    55    84    89   am
    56   116   115    2
    57   112   110    1
    58    87    86    1
    59    88    86    1
    60    91    90    1
    61    40    35   am
    62    77    75   am
    63   121   115   am
    64   115   114    1
    65    35    36    2
    66    35    34    1
    67    89    90    1
    68   111   110    1
    69   110   109    1
    70    76    75    2
    71    90    93    1
    72    34    37    1
    73    34    33    1
    74    18    20   ar
    75    18    16   ar
    76   130   131    1
    77   109   106    1
    78    75    74    1
    79    20    19   ar
    80   113   114    1
    81   113   107   am
    82    37    38    1
    83   114   117    1
    84   106   107    1
    85   106   105    1
    86   107   108    2
    87    33    39    1
    88    16    15   ar
    89    93    94    1
    90    96    95    1
    91   131   132    1
    92   131   134    1
    93   135   134    1
    94    19    17   ar
    95    74    73    1
    96    94    95    1
    97   117   118    1
    98   132   133    2
    99    38    39    1
   100   134   136    1
   101   118   119    1
   102    24    23    2
   103    15    17   ar
   104    15    14    1
   105    28    30   ar
   106    28    26   ar
   107    25    26    1
   108    25    22    1
   109    23    22    1
   110    30    31   ar
   111    26    27   ar
   112   120   119    1
   113    22    21    1
   114    14    11    1
   115    69    68    2
   116    31    32    1
   117    31    29   ar
   118    27    29   ar
   119    11    10    1
   120    11    12    1
   121    66    67    1
   122    13    12    2
   123    68    67    1
   124   104   102   am
   125    70    67    1
   126    70    72    1
   127    70    71    1
   128   103   102    2
   129     6     5    1
   130     6     7    1
   131   102   101    1
   132     5     2    1
   133     8     7   ar
   134     4     3    2
   135     7     9   ar
   136   101    98    1
   137     3     2    1
   138     2     1    1
   139    98    97    1
   140    98    99    1
   141   100    99    2
