@<TRIPOS>MOLECULE
tmp/4nwdA00.pdb
 140 133 0 0 0
SMALL
GASTEIGER

@<TRIPOS>ATOM
      1  N         -9.6110   34.1960  -22.0420 N.3    11  GLU11      -0.1245
      2  CA        -9.9040   32.9790  -21.2820 C.3    11  GLU11       0.1567
      3  C        -11.3660   32.8750  -20.9610 C.2    11  GLU11       0.2260
      4  O        -11.8390   33.6420  -20.1430 O.2    11  GLU11      -0.2867
      5  CB        -9.0980   32.9570  -19.9880 C.3    11  GLU11       0.0388
      6  CG        -8.9660   31.6140  -19.3110 C.3    11  GLU11       0.1160
      7  CD        -8.0410   30.6830  -20.0460 C.2    11  GLU11       0.3649
      8  OE1       -6.8040   30.7930  -19.8710 O.co2  11  GLU11      -0.2457
      9  OE2       -8.5510   29.7900  -20.7590 O.co2  11  GLU11      -0.2457
     10  N        -13.8140   34.3700  -18.5750 N.3    14  PHE14      -0.1241
     11  CA       -13.2690   35.5380  -17.8880 C.3    14  PHE14       0.1605
     12  C        -13.0400   36.7520  -18.8000 C.2    14  PHE14       0.2264
     13  O        -13.4650   37.8630  -18.4580 O.2    14  PHE14      -0.2867
     14  CB       -11.9580   35.1820  -17.1730 C.3    14  PHE14       0.0534
     15  CG       -12.1090   34.1790  -16.0630 C.ar   14  PHE14      -0.0203
     16  CD1      -12.4550   34.5860  -14.7840 C.ar   14  PHE14      -0.0042
     17  CD2      -11.9630   32.8190  -16.3030 C.ar   14  PHE14      -0.0042
     18  CE1      -12.6010   33.6640  -13.7730 C.ar   14  PHE14      -0.0003
     19  CE2      -12.1200   31.9030  -15.2800 C.ar   14  PHE14      -0.0003
     20  CZ       -12.4360   32.3290  -14.0260 C.ar   14  PHE14      -0.0000
     21  N          0.3850   33.5790  -18.4660 N.3    59  TYR59      -0.1241
     22  CA         0.0810   34.1200  -17.1560 C.3    59  TYR59       0.1605
     23  C          1.3740   34.5740  -16.4800 C.2    59  TYR59       0.2264
     24  O          1.4970   35.7460  -16.0620 O.2    59  TYR59      -0.2867
     25  CB        -0.6230   33.0730  -16.3020 C.3    59  TYR59       0.0534
     26  CG        -2.0380   32.8140  -16.7460 C.ar   59  TYR59      -0.0201
     27  CD1       -2.2930   31.9500  -17.8160 C.ar   59  TYR59      -0.0009
     28  CD2       -3.1200   33.4360  -16.1250 C.ar   59  TYR59      -0.0009
     29  CE1       -3.5770   31.7020  -18.2390 C.ar   59  TYR59       0.0417
     30  CE2       -4.4050   33.1910  -16.5410 C.ar   59  TYR59       0.0417
     31  CZ        -4.6260   32.3260  -17.6020 C.ar   59  TYR59       0.1957
     32  OH        -5.9070   32.0680  -18.0250 O.3    59  TYR59      -0.2866
     33  N         -7.9780   35.6300  -14.7020 N.3    86  PRO86      -0.2102
     34  CA        -7.9730   34.6220  -13.6440 C.3    86  PRO86       0.1504
     35  C         -6.5300   34.2690  -13.2640 C.2    86  PRO86       0.2576
     36  O         -6.0210   33.2020  -13.6680 O.2    86  PRO86      -0.2718
     37  CB        -8.6840   33.4310  -14.2910 C.3    86  PRO86       0.0282
     38  CG        -8.4240   33.5820  -15.7620 C.3    86  PRO86       0.0208
     39  CD        -8.4300   35.0770  -15.9980 C.3    86  PRO86       0.0893
     40  N         -5.8760   35.2000  -12.5570 N.am   87  LEU87      -0.1966
     41  CA        -4.4680   35.1090  -12.1770 C.3    87  LEU87       0.1728
     42  C         -4.3180   34.5520  -10.7610 C.2    87  LEU87       0.2616
     43  O         -4.7650   35.1510   -9.7770 O.2    87  LEU87      -0.2715
     44  CB        -3.8260   36.4900  -12.2500 C.3    87  LEU87       0.0311
     45  CG        -2.3420   36.7280  -12.0050 C.3    87  LEU87       0.0022
     46  CD1       -1.5150   36.1050  -13.1050 C.3    87  LEU87       0.0001
     47  CD2       -2.0680   38.2150  -11.8830 C.3    87  LEU87       0.0001
     48  N         -3.7300   33.3750  -10.6550 N.am   88  THR88      -0.1951
     49  CA        -3.6300   32.7070   -9.3610 C.3    88  THR88       0.1897
     50  C         -2.6080   33.3980   -8.4530 C.2    88  THR88       0.2313
     51  O         -1.4750   33.6820   -8.8420 O.2    88  THR88      -0.2863
     52  CB        -3.2810   31.2340   -9.5380 C.3    88  THR88       0.1794
     53  OG1       -4.2050   30.6530  -10.4690 O.3    88  THR88      -0.2208
     54  CG2       -3.3510   30.4940   -8.2190 C.3    88  THR88       0.0378
     55  N          5.0350   33.9290   -6.6940 N.3    93  ARG93      -0.1245
     56  CA         4.7720   35.1560   -7.4380 C.3    93  ARG93       0.1563
     57  C          4.8060   36.4380   -6.6110 C.2    93  ARG93       0.2260
     58  O          5.1290   37.5020   -7.1420 O.2    93  ARG93      -0.2867
     59  CB         3.4500   35.0940   -8.1850 C.3    93  ARG93       0.0307
     60  CG         3.4660   34.2720   -9.4430 C.3    93  ARG93       0.0489
     61  CD         2.0660   34.0740   -9.9380 C.3    93  ARG93       0.2205
     62  NE         2.0910   33.3420  -11.1970 N.pl3  93  ARG93      -0.0865
     63  CZ         1.0210   32.9140  -11.8480 C.cat  93  ARG93       0.5346
     64  NH1       -0.2010   33.0920  -11.3510 N.pl3  93  ARG93       0.1354
     65  NH2        1.1910   32.2870  -12.9850 N.pl3  93  ARG93       0.1354
     66  N         -1.1790   23.4890  -18.3190 N.3   135  VAL135     -0.1245
     67  CA        -0.8510   24.6570  -19.1300 C.3   135  VAL135      0.1561
     68  C          0.5600   25.1640  -18.8470 C.2   135  VAL135      0.2260
     69  O          0.9550   25.3480  -17.6890 O.2   135  VAL135     -0.2867
     70  CB        -1.8430   25.7850  -18.9070 C.3   135  VAL135      0.0252
     71  CG1       -1.3260   27.0820  -19.5500 C.3   135  VAL135      0.0019
     72  CG2       -3.1840   25.3930  -19.4480 C.3   135  VAL135      0.0019
     73  N          1.9050   28.2660  -16.2410 N.3   138  GLY138     -0.1210
     74  CA         0.8600   28.7050  -15.3380 C.3   138  GLY138      0.1956
     75  C          1.0410   28.2330  -13.8990 C.2   138  GLY138      0.2612
     76  O          2.0130   27.5620  -13.5570 O.2   138  GLY138     -0.2717
     77  N          0.1020   28.6210  -13.0430 N.am  139  ALA139     -0.1965
     78  CA         0.1730   28.2950  -11.6230 C.3   139  ALA139      0.1728
     79  C          0.0850   26.7930  -11.3580 C.2   139  ALA139      0.2616
     80  O          0.7100   26.2750  -10.4380 O.2   139  ALA139     -0.2715
     81  CB        -0.9280   29.0220  -10.8640 C.3   139  ALA139      0.0334
     82  N         -0.6870   26.0880  -12.1660 N.am  140  THR140     -0.1951
     83  CA        -0.8520   24.6710  -11.9190 C.3   140  THR140      0.1897
     84  C          0.4680   23.9250  -12.1930 C.2   140  THR140      0.2313
     85  O          0.8520   23.0550  -11.4310 O.2   140  THR140     -0.2863
     86  CB        -1.9910   24.0720  -12.7450 C.3   140  THR140      0.1794
     87  OG1       -3.2260   24.7120  -12.3960 O.3   140  THR140     -0.2208
     88  CG2       -2.0950   22.5840  -12.4730 C.3   140  THR140      0.0378
     89  N         -5.6150   26.5550  -22.2970 N.3   170  ASN170     -0.1240
     90  CA        -6.7590   25.7060  -22.0170 C.3   170  ASN170      0.1653
     91  C         -7.4000   25.1280  -23.2420 C.2   170  ASN170      0.2266
     92  O         -7.7550   23.9520  -23.2650 O.2   170  ASN170     -0.2867
     93  CB        -7.8260   26.4570  -21.2680 C.3   170  ASN170      0.1155
     94  CG        -7.5490   26.5330  -19.8260 C.2   170  ASN170      0.2627
     95  OD1       -6.6090   25.8980  -19.3340 O.2   170  ASN170     -0.2716
     96  ND2       -8.3420   27.3290  -19.1140 N.am  170  ASN170     -0.0877
     97  N         -4.5560   18.7570  -15.9090 N.3   185  LEU185     -0.1231
     98  CA        -4.5380   19.3740  -14.5840 C.3   185  LEU185      0.1693
     99  C         -4.9120   20.8290  -14.6500 C.2   185  LEU185      0.2592
    100  O         -4.1910   21.6480  -15.2040 O.2   185  LEU185     -0.2718
    101  CB        -3.1650   19.2210  -13.9420 C.3   185  LEU185      0.0284
    102  CG        -3.0170   17.8200  -13.3610 C.3   185  LEU185      0.0019
    103  CD1       -1.5750   17.4340  -13.3640 C.3   185  LEU185      0.0001
    104  CD2       -3.6050   17.7970  -11.9650 C.3   185  LEU185      0.0001
    105  N         -6.0770   21.1340  -14.1060 N.am  186  MET186     -0.1965
    106  CA        -6.7070   22.4050  -14.3670 C.3   186  MET186      0.1736
    107  C         -7.4040   22.9530  -13.1070 C.2   186  MET186      0.2616
    108  O         -7.6740   22.2100  -12.1720 O.2   186  MET186     -0.2715
    109  CB        -7.6230   22.2280  -15.5730 C.3   186  MET186      0.0427
    110  CG        -8.5820   23.3290  -15.8350 C.3   186  MET186      0.0599
    111  SD        -9.8800   22.7380  -16.8910 S.3   186  MET186     -0.1393
    112  CE        -9.1850   23.2820  -18.4450 C.3   186  MET186      0.0692
    113  N         -7.7010   24.2460  -13.0840 N.am  187  GLU187     -0.1977
    114  CA        -8.3650   24.8480  -11.9380 C.3   187  GLU187      0.1602
    115  C         -9.8790   24.6350  -11.9200 C.2   187  GLU187      0.2287
    116  O        -10.5280   24.6630  -12.9570 O.2   187  GLU187     -0.2864
    117  CB        -7.9920   26.3210  -11.9250 C.3   187  GLU187      0.0415
    118  CG        -6.5230   26.4700  -11.5610 C.3   187  GLU187      0.1163
    119  CD        -5.9950   27.8830  -11.7130 C.2   187  GLU187      0.3649
    120  OE1       -6.5440   28.6690  -12.5270 O.co2 187  GLU187     -0.2457
    121  OE2       -4.9870   28.1860  -11.0300 O.co2 187  GLU187     -0.2457
    122  N        -12.8630   26.5450  -13.5710 N.3   190  THR190     -0.1218
    123  CA       -12.8060   26.3520  -15.0100 C.3   190  THR190      0.1862
    124  C        -13.3260   24.9650  -15.4330 C.2   190  THR190      0.2287
    125  O        -14.0890   24.8490  -16.3890 O.2   190  THR190     -0.2866
    126  CB       -11.3760   26.4950  -15.5540 C.3   190  THR190      0.1770
    127  OG1      -10.8280   27.7450  -15.1430 O.3   190  THR190     -0.2211
    128  CG2      -11.3800   26.4220  -17.0630 C.3   190  THR190      0.0375
    129  N         -7.9970   33.6800   -6.9920 N.3   213  TYR213     -0.1241
    130  CA        -7.5970   34.6060   -8.0400 C.3   213  TYR213      0.1605
    131  C         -7.5270   36.0210   -7.4900 C.2   213  TYR213      0.2264
    132  O         -8.4260   36.4660   -6.7950 O.2   213  TYR213     -0.2867
    133  CB        -8.6050   34.5560   -9.1840 C.3   213  TYR213      0.0534
    134  CG        -8.6020   33.2620   -9.9870 C.ar  213  TYR213     -0.0201
    135  CD1       -7.4320   32.5550  -10.2050 C.ar  213  TYR213     -0.0009
    136  CD2       -9.7710   32.7940  -10.5770 C.ar  213  TYR213     -0.0009
    137  CE1       -7.4340   31.3960  -10.9440 C.ar  213  TYR213      0.0417
    138  CE2       -9.7790   31.6520  -11.3360 C.ar  213  TYR213      0.0417
    139  CZ        -8.6110   30.9550  -11.5210 C.ar  213  TYR213      0.1957
    140  OH        -8.6040   29.8020  -12.2700 O.3   213  TYR213     -0.2866
@<TRIPOS>BOND
     1    92    91    2
     2    91    90    1
     3    89    90    1
     4     1     2    1
     5    90    93    1
     6     2     3    1
     7     2     5    1
     8    93    94    1
     9     3     4    2
    10     9     7   ar
    11     7     8   ar
    12     7     6    1
    13     5     6    1
    14    94    95    2
    15    94    96   am
    16    71    70    1
    17    72    70    1
    18    67    70    1
    19    67    68    1
    20    67    66    1
    21    68    69    2
    22    12    13    2
    23    12    11    1
    24    10    11    1
    25    21    22    1
    26   112   111    1
    27    29    27   ar
    28    29    31   ar
    29    32    31    1
    30    11    14    1
    31    27    26   ar
    32    31    30   ar
    33    14    15    1
    34    22    23    1
    35    22    25    1
    36   128   126    1
    37   111   110    1
    38    26    25    1
    39    26    28   ar
    40    30    28   ar
    41    23    24    2
    42   125   124    2
    43    17    15   ar
    44    17    19   ar
    45    73    74    1
    46    15    16   ar
    47    39    38    1
    48    39    33    1
    49    97    98    1
    50   110   109    1
    51    38    37    1
    52   109   106    1
    53   126   127    1
    54   126   123    1
    55   124   123    1
    56    74    75    1
    57    19    20   ar
    58   100    99    2
    59   123   122    1
    60    16    18   ar
    61    33    34    1
    62    99    98    1
    63    99   105   am
    64    98   101    1
    65   106   105    1
    66   106   107    1
    67    37    34    1
    68    20    18   ar
    69   101   102    1
    70    75    76    2
    71    75    77   am
    72    36    35    2
    73    34    35    1
    74   103   102    1
    75   102   104    1
    76    35    40   am
    77   107   113   am
    78   107   108    2
    79    46    45    1
    80   113   114    1
    81    77    78    1
    82    65    63    1
    83   116   115    2
    84    86    88    1
    85    86    87    1
    86    86    83    1
    87    40    41    1
    88   120   119   ar
    89   140   139    1
    90    44    41    1
    91    44    45    1
    92    84    83    1
    93    84    85    2
    94    41    42    1
    95    82    83    1
    96    82    79   am
    97    45    47    1
    98   114   117    1
    99   114   115    1
   100   117   118    1
   101    63    64    1
   102    63    62    2
   103   119   118    1
   104   119   121   ar
   105    78    79    1
   106    78    81    1
   107   139   138   ar
   108   139   137   ar
   109    79    80    2
   110   138   136   ar
   111    62    61    1
   112   137   135   ar
   113    42    48   am
   114    42    43    2
   115    48    49    1
   116   136   134   ar
   117    53    52    1
   118   135   134   ar
   119   134   133    1
   120    61    60    1
   121    52    49    1
   122    52    54    1
   123    60    59    1
   124    49    50    1
   125   133   130    1
   126    51    50    2
   127    59    56    1
   128   130   131    1
   129   130   129    1
   130   131   132    2
   131    56    55    1
   132    56    57    1
   133    58    57    2
