@<TRIPOS>MOLECULE
tmp/4nwgA00.pdb
 82 80 0 0 0
SMALL
GASTEIGER

@<TRIPOS>ATOM
      1  N         37.1820   33.4860    0.3640 N.3   288  LYS288     -0.1231
      2  CA        36.9530   34.9270    0.3450 C.3   288  LYS288      0.1693
      3  C         38.1770   35.6890    0.9060 C.2   288  LYS288      0.2592
      4  O         39.1820   35.8060    0.2020 O.2   288  LYS288     -0.2718
      5  CB        35.6300   35.2780    1.0710 C.3   288  LYS288      0.0285
      6  CG        35.1290   36.7050    0.8450 C.3   288  LYS288      0.0035
      7  CD        34.9650   37.4400    2.1700 C.3   288  LYS288      0.0206
      8  CE        34.8910   38.9340    1.9950 C.3   288  LYS288      0.1093
      9  NZ        35.0270   39.6440    3.2940 N.3   288  LYS288     -0.1314
     10  N         38.1000   36.1770    2.1640 N.am  289  LYS289     -0.1966
     11  CA        39.1510   36.9420    2.8320 C.3   289  LYS289      0.1728
     12  C         40.1020   36.0270    3.5940 C.2   289  LYS289      0.2616
     13  O         39.6640   35.2360    4.4310 O.2   289  LYS289     -0.2715
     14  CB        38.5320   37.9950    3.7740 C.3   289  LYS289      0.0311
     15  CG        39.5230   39.0330    4.3110 C.3   289  LYS289      0.0038
     16  CD        39.0290   39.7080    5.5960 C.3   289  LYS289      0.0206
     17  CE        38.1220   40.8930    5.3540 C.3   289  LYS289      0.1093
     18  NZ        37.6270   41.4780    6.6270 N.3   289  LYS289     -0.1314
     19  N         41.4040   36.1470    3.2980 N.am  290  SER290     -0.1950
     20  CA        42.4650   35.3840    3.9520 C.3   290  SER290      0.1924
     21  C         43.2680   36.2910    4.8860 C.2   290  SER290      0.2314
     22  O         43.1650   37.5170    4.8000 O.2   290  SER290     -0.2863
     23  CB        43.3710   34.7210    2.9190 C.3   290  SER290      0.2116
     24  OG        42.6950   33.6600    2.2650 O.3   290  SER290     -0.2180
     25  N         39.8780   46.6650    2.8020 N.3   410  GLN410     -0.1231
     26  CA        40.2130   45.4100    2.1150 C.3   410  GLN410      0.1698
     27  C         39.2720   45.1480    0.9330 C.2   410  GLN410      0.2592
     28  O         39.7430   44.8350   -0.1620 O.2   410  GLN410     -0.2718
     29  CB        40.2010   44.2300    3.1120 C.3   410  GLN410      0.0381
     30  CG        40.5160   42.8490    2.5100 C.3   410  GLN410      0.0905
     31  CD        41.9360   42.6710    2.0100 C.2   410  GLN410      0.2608
     32  OE1       42.8630   43.4130    2.3640 O.2   410  GLN410     -0.2717
     33  NE2       42.1470   41.6370    1.2110 N.am  410  GLN410     -0.0878
     34  N         37.9540   45.3050    1.1590 N.am  411  GLU411     -0.1979
     35  CA        36.9070   45.1100    0.1560 C.3   411  GLU411      0.1602
     36  C         37.0000   46.1230   -0.9940 C.2   411  GLU411      0.2287
     37  O         36.6960   45.7710   -2.1340 O.2   411  GLU411     -0.2864
     38  CB        35.5230   45.1730    0.8120 C.3   411  GLU411      0.0415
     39  CG        34.5720   44.1030    0.3070 C.3   411  GLU411      0.1163
     40  CD        33.0980   44.3510    0.5630 C.2   411  GLU411      0.3649
     41  OE1       32.7340   44.6870    1.7140 O.co2 411  GLU411     -0.2457
     42  OE2       32.2990   44.1730   -0.3840 O.co2 411  GLU411     -0.2457
     43  N         39.7910   47.5100   -2.2120 N.3   413  ILE413     -0.1231
     44  CA        41.0050   47.2890   -3.0070 C.3   413  ILE413      0.1692
     45  C         40.8620   46.0350   -3.8700 C.2   413  ILE413      0.2592
     46  O         40.7110   44.9300   -3.3430 O.2   413  ILE413     -0.2718
     47  CB        42.3050   47.2910   -2.1450 C.3   413  ILE413      0.0266
     48  CG1       42.4250   48.5880   -1.3100 C.3   413  ILE413      0.0019
     49  CG2       43.5530   47.0900   -3.0260 C.3   413  ILE413      0.0020
     50  CD1       43.2430   48.4680   -0.0220 C.3   413  ILE413      0.0001
     51  N         40.9130   46.2220   -5.1970 N.am  414  MET414     -0.1965
     52  CA        40.8060   45.1530   -6.1860 C.3   414  MET414      0.1736
     53  C         42.1030   44.3390   -6.2170 C.2   414  MET414      0.2616
     54  O         43.1930   44.9170   -6.1700 O.2   414  MET414     -0.2715
     55  CB        40.4970   45.7460   -7.5710 C.3   414  MET414      0.0427
     56  CG        39.8310   44.7690   -8.5220 C.3   414  MET414      0.0599
     57  SD        39.3230   45.5340  -10.0850 S.3   414  MET414     -0.1393
     58  CE        37.7800   46.3000   -9.5850 C.3   414  MET414      0.0692
     59  N         41.9710   42.9960   -6.2730 N.am  415  ASP415     -0.1957
     60  CA        43.0660   42.0130   -6.3020 C.3   415  ASP415      0.1840
     61  C         43.9960   42.0600   -5.0690 C.2   415  ASP415      0.2622
     62  O         45.1760   41.7090   -5.1680 O.2   415  ASP415     -0.2715
     63  CB        43.8480   42.0620   -7.6370 C.3   415  ASP415      0.1450
     64  CG        43.0010   41.8030   -8.8680 C.2   415  ASP415      0.3671
     65  OD1       42.3890   40.7140   -8.9500 O.co2 415  ASP415     -0.2456
     66  OD2       42.9740   42.6740   -9.7640 O.co2 415  ASP415     -0.2456
     67  N         43.4480   42.4630   -3.9040 N.am  416  ALA416     -0.1963
     68  CA        44.1940   42.5490   -2.6480 C.3   416  ALA416      0.1728
     69  C         44.4680   41.1630   -2.0680 C.2   416  ALA416      0.2617
     70  O         43.6000   40.2890   -2.1060 O.2   416  ALA416     -0.2715
     71  CB        43.4330   43.3970   -1.6400 C.3   416  ALA416      0.0334
     72  N         45.6780   40.9850   -1.5450 N.am  417  GLY417     -0.1941
     73  CA        46.1160   39.7390   -0.9270 C.3   417  GLY417      0.1998
     74  C         45.6340   39.5790    0.5050 C.2   417  GLY417      0.2480
     75  O         44.8190   40.3810    0.9720 O.2   417  GLY417     -0.2729
     76  N         46.1220   38.5520    1.2420 N.am  418  PRO418     -0.2726
     77  CA        45.6570   38.3570    2.6320 C.3   418  PRO418      0.1402
     78  C         45.9840   39.5050    3.5830 C.2   418  PRO418      0.2269
     79  O         46.9970   40.1780    3.4090 O.2   418  PRO418     -0.2865
     80  CB        46.3290   37.0480    3.0630 C.3   418  PRO418      0.0296
     81  CG        47.4450   36.8480    2.1220 C.3   418  PRO418      0.0237
     82  CD        47.0770   37.5000    0.8360 C.3   418  PRO418      0.0939
@<TRIPOS>BOND
     1    57    58    1
     2    57    56    1
     3    66    64   ar
     4    65    64   ar
     5    64    63    1
     6    56    55    1
     7    63    60    1
     8    55    52    1
     9    60    59    1
    10    60    61    1
    11    59    53   am
    12    53    52    1
    13    53    54    2
    14    52    51    1
    15    51    45   am
    16    62    61    2
    17    61    67   am
    18    67    68    1
    19    45    46    2
    20    45    44    1
    21    49    47    1
    22    44    43    1
    23    44    47    1
    24    68    69    1
    25    68    71    1
    26    47    48    1
    27    37    36    2
    28    70    69    2
    29    69    72   am
    30    72    73    1
    31    48    50    1
    32    36    35    1
    33    73    74    1
    34    42    40   ar
    35    28    27    2
    36    35    38    1
    37    35    34    1
    38     4     3    2
    39    39    40    1
    40    39    38    1
    41     2     1    1
    42     2     3    1
    43     2     5    1
    44    74    75    2
    45    74    76   am
    46    40    41   ar
    47    82    76    1
    48    82    81    1
    49     6     5    1
    50     6     7    1
    51     3    10   am
    52    27    34   am
    53    27    26    1
    54    33    31   am
    55    76    77    1
    56     8     7    1
    57     8     9    1
    58    31    32    2
    59    31    30    1
    60    26    25    1
    61    26    29    1
    62    81    80    1
    63    10    11    1
    64    24    23    1
    65    30    29    1
    66    77    80    1
    67    77    78    1
    68    11    12    1
    69    11    14    1
    70    23    20    1
    71    19    12   am
    72    19    20    1
    73    79    78    2
    74    12    13    2
    75    14    15    1
    76    20    21    1
    77    15    16    1
    78    22    21    2
    79    17    16    1
    80    17    18    1
