@<TRIPOS>MOLECULE
tmp/4nwiB00.pdb
 142 137 0 0 0
SMALL
GASTEIGER

@<TRIPOS>ATOM
      1  N        -34.2490    5.7210  -31.7990 N.3    45  ASP45      -0.1239
      2  CA       -33.4240    5.1610  -30.7340 C.3    45  ASP45       0.1674
      3  C        -33.1380    3.6740  -30.8880 C.2    45  ASP45       0.2266
      4  O        -34.0450    2.8400  -30.8500 O.2    45  ASP45      -0.2867
      5  CB       -34.0300    5.4570  -29.3600 C.3    45  ASP45       0.1410
      6  CG       -33.9200    6.9190  -28.9820 C.2    45  ASP45       0.3668
      7  OD1      -32.7930    7.3710  -28.6900 O.co2  45  ASP45      -0.2456
      8  OD2      -34.9580    7.6150  -28.9800 O.co2  45  ASP45      -0.2456
      9  N        -30.1160    7.6480  -25.0650 N.3    61  SER61      -0.1202
     10  CA       -31.3090    7.8310  -25.8770 C.3    61  SER61       0.2020
     11  C        -31.4830    9.3160  -26.1640 C.2    61  SER61       0.2619
     12  O        -30.6950   10.1360  -25.6940 O.2    61  SER61      -0.2717
     13  CB       -32.5400    7.2920  -25.1510 C.3    61  SER61       0.2103
     14  OG       -32.7910    8.0210  -23.9650 O.3    61  SER61      -0.2182
     15  N        -32.5070    9.6600  -26.9380 N.am   62  SER62      -0.1937
     16  CA       -32.8210   11.0560  -27.2180 C.3    62  SER62       0.2055
     17  C        -33.1370   11.8090  -25.9220 C.2    62  SER62       0.2643
     18  O        -32.6450   12.9240  -25.6860 O.2    62  SER62      -0.2714
     19  CB       -33.9840   11.1400  -28.2050 C.3    62  SER62       0.2130
     20  OG       -34.9750   10.1800  -27.9020 O.3    62  SER62      -0.2179
     21  N        -33.9570   11.1830  -25.0830 N.am   63  PHE63      -0.1973
     22  CA       -34.2510   11.7060  -23.7550 C.3    63  PHE63       0.1639
     23  C        -32.9690   11.8310  -22.9420 C.2    63  PHE63       0.2290
     24  O        -32.7340   12.8520  -22.3050 O.2    63  PHE63      -0.2864
     25  CB       -35.2410   10.8000  -23.0220 C.3    63  PHE63       0.0560
     26  CG       -36.6780   11.2050  -23.1880 C.ar   63  PHE63      -0.0200
     27  CD1      -37.1560   12.3610  -22.5890 C.ar   63  PHE63      -0.0042
     28  CD2      -37.5570   10.4240  -23.9220 C.ar   63  PHE63      -0.0042
     29  CE1      -38.4800   12.7370  -22.7300 C.ar   63  PHE63      -0.0003
     30  CE2      -38.8820   10.7950  -24.0650 C.ar   63  PHE63      -0.0003
     31  CZ       -39.3430   11.9500  -23.4700 C.ar   63  PHE63      -0.0000
     32  N        -31.3750   15.0760  -21.0700 N.3    67  ASN67      -0.1240
     33  CA       -31.0610   15.0990  -19.6410 C.3    67  ASN67       0.1653
     34  C        -29.5990   15.3890  -19.3090 C.2    67  ASN67       0.2266
     35  O        -29.2830   15.8270  -18.2020 O.2    67  ASN67      -0.2867
     36  CB       -31.4640   13.7700  -18.9870 C.3    67  ASN67       0.1155
     37  CG       -32.9520   13.4870  -19.0910 C.2    67  ASN67       0.2627
     38  OD1      -33.7500   14.3760  -19.3920 O.2    67  ASN67      -0.2716
     39  ND2      -33.3350   12.2400  -18.8280 N.am   67  ASN67      -0.0877
     40  N        -36.3360   13.2530  -13.0150 N.3    80  THR80      -0.1218
     41  CA       -36.4510   12.5350  -14.2880 C.3    80  THR80       0.1862
     42  C        -35.7880   11.1490  -14.2190 C.2    80  THR80       0.2287
     43  O        -36.2190   10.2100  -14.8960 O.2    80  THR80      -0.2866
     44  CB       -35.8980   13.3680  -15.4850 C.3    80  THR80       0.1770
     45  OG1      -36.4780   12.9080  -16.7130 O.3    80  THR80      -0.2211
     46  CG2      -34.3820   13.2750  -15.5750 C.3    80  THR80       0.0375
     47  N        -38.1680    9.0580  -12.3090 N.3    83  LEU83      -0.1231
     48  CA       -39.1870    8.7130  -13.2960 C.3    83  LEU83       0.1693
     49  C        -38.7550    7.5300  -14.1510 C.2    83  LEU83       0.2592
     50  O        -39.5020    6.5650  -14.3120 O.2    83  LEU83      -0.2718
     51  CB       -39.4860    9.9110  -14.2000 C.3    83  LEU83       0.0284
     52  CG       -40.4050   10.9940  -13.6400 C.3    83  LEU83       0.0019
     53  CD1      -40.2980   12.2520  -14.4800 C.3    83  LEU83       0.0001
     54  CD2      -41.8460   10.5070  -13.5990 C.3    83  LEU83       0.0001
     55  N        -37.5450    7.6120  -14.7000 N.am   84  TYR84      -0.1976
     56  CA       -37.0180    6.5270  -15.5190 C.3    84  TYR84       0.1639
     57  C        -36.9280    5.2220  -14.7320 C.2    84  TYR84       0.2290
     58  O        -37.4460    4.1980  -15.1620 O.2    84  TYR84      -0.2864
     59  CB       -35.6500    6.8860  -16.1020 C.3    84  TYR84       0.0560
     60  CG       -35.1970    5.9190  -17.1650 C.ar   84  TYR84      -0.0198
     61  CD1      -35.6380    6.0450  -18.4740 C.ar   84  TYR84      -0.0009
     62  CD2      -34.3360    4.8750  -16.8600 C.ar   84  TYR84      -0.0009
     63  CE1      -35.2340    5.1620  -19.4510 C.ar   84  TYR84       0.0417
     64  CE2      -33.9240    3.9860  -17.8300 C.ar   84  TYR84       0.0417
     65  CZ       -34.3780    4.1340  -19.1230 C.ar   84  TYR84       0.1957
     66  OH       -33.9680    3.2500  -20.0900 O.3    84  TYR84      -0.2866
     67  N        -39.4740    2.7820  -16.6580 N.3    88  ARG88      -0.1245
     68  CA       -38.7190    1.9260  -17.5740 C.3    88  ARG88       0.1563
     69  C        -38.9710    0.4260  -17.3350 C.2    88  ARG88       0.2260
     70  O        -39.1170   -0.3250  -18.2960 O.2    88  ARG88      -0.2867
     71  CB       -37.2190    2.2620  -17.5560 C.3    88  ARG88       0.0307
     72  CG       -36.3510    1.3530  -18.4170 C.3    88  ARG88       0.0489
     73  CD       -36.7860    1.3590  -19.8700 C.3    88  ARG88       0.2205
     74  NE       -36.0240    0.3980  -20.6630 N.pl3  88  ARG88      -0.0865
     75  CZ       -36.3100    0.0640  -21.9160 C.cat  88  ARG88       0.5346
     76  NH1      -37.3520    0.6060  -22.5250 N.pl3  88  ARG88       0.1354
     77  NH2      -35.5590   -0.8220  -22.5550 N.pl3  88  ARG88       0.1354
     78  N        -42.4690   -0.4080  -18.6790 N.3    91  GLU91      -0.1245
     79  CA       -42.4400   -0.3470  -20.1330 C.3    91  GLU91       0.1567
     80  C        -42.0080   -1.6740  -20.7610 C.2    91  GLU91       0.2260
     81  O        -42.3690   -1.9750  -21.9010 O.2    91  GLU91      -0.2867
     82  CB       -41.4790    0.7630  -20.5700 C.3    91  GLU91       0.0388
     83  CG       -41.4390    1.0170  -22.0650 C.3    91  GLU91       0.1160
     84  CD       -40.5040    2.1490  -22.4360 C.2    91  GLU91       0.3649
     85  OE1      -40.3750    2.4410  -23.6410 O.co2  91  GLU91      -0.2457
     86  OE2      -39.8950    2.7450  -21.5230 O.co2  91  GLU91      -0.2457
     87  N        -46.2650    8.5470  -17.5690 N.3   104  TRP104     -0.1227
     88  CA       -44.8400    8.8730  -17.6160 C.3   104  TRP104      0.1737
     89  C        -44.5460   10.1020  -18.4740 C.2   104  TRP104      0.2595
     90  O        -43.8280   10.9960  -18.0460 O.2   104  TRP104     -0.2718
     91  CB       -44.0270    7.6690  -18.1130 C.3   104  TRP104      0.0564
     92  CG       -42.5280    7.8450  -18.0090 C.ar  104  TRP104      0.0003
     93  CD1      -41.8580    8.8590  -17.3820 C.ar  104  TRP104      0.0946
     94  CD2      -41.5220    6.9770  -18.5530 C.ar  104  TRP104      0.0152
     95  NE1      -40.5030    8.6750  -17.5040 N.ar  104  TRP104     -0.2442
     96  CE2      -40.2710    7.5290  -18.2130 C.ar  104  TRP104      0.0810
     97  CE3      -41.5610    5.7910  -19.2880 C.ar  104  TRP104      0.0012
     98  CZ2      -39.0660    6.9280  -18.5900 C.ar  104  TRP104      0.0191
     99  CZ3      -40.3680    5.1980  -19.6570 C.ar  104  TRP104      0.0001
    100  CH2      -39.1360    5.7670  -19.3090 C.ar  104  TRP104      0.0015
    101  N        -45.0930   10.1420  -19.6830 N.am  105  TRP105     -0.1976
    102  CA       -44.8450   11.2550  -20.5970 C.3   105  TRP105      0.1640
    103  C        -45.4660   12.5550  -20.0960 C.2   105  TRP105      0.2290
    104  O        -44.8850   13.6280  -20.2490 O.2   105  TRP105     -0.2864
    105  CB       -45.3470   10.9230  -22.0050 C.3   105  TRP105      0.0576
    106  CG       -44.2630   10.4440  -22.9210 C.ar  105  TRP105      0.0006
    107  CD1      -43.5840   11.1840  -23.8440 C.ar  105  TRP105      0.0946
    108  CD2      -43.7250    9.1180  -22.9960 C.ar  105  TRP105      0.0152
    109  NE1      -42.6610   10.4000  -24.4930 N.ar  105  TRP105     -0.2442
    110  CE2      -42.7280    9.1270  -23.9900 C.ar  105  TRP105      0.0810
    111  CE3      -43.9930    7.9250  -22.3210 C.ar  105  TRP105      0.0012
    112  CZ2      -41.9980    7.9880  -24.3240 C.ar  105  TRP105      0.0191
    113  CZ3      -43.2700    6.7980  -22.6530 C.ar  105  TRP105      0.0001
    114  CH2      -42.2840    6.8360  -23.6460 C.ar  105  TRP105      0.0015
    115  N        -43.2880   13.7150  -17.2470 N.3   108  SER108     -0.1217
    116  CA       -42.0410   14.2020  -17.8280 C.3   108  SER108      0.1889
    117  C        -42.2320   15.5810  -18.4470 C.2   108  SER108      0.2288
    118  O        -41.3380   16.4220  -18.3920 O.2   108  SER108     -0.2866
    119  CB       -41.5300   13.2220  -18.8840 C.3   108  SER108      0.2089
    120  OG       -40.3070   13.6640  -19.4420 O.3   108  SER108     -0.2183
    121  N        -40.2340    9.0350  -33.7170 N.3   155  SER155     -0.1202
    122  CA       -39.7110    8.7300  -32.3870 C.3   155  SER155      0.2020
    123  C        -40.6900    9.0850  -31.2670 C.2   155  SER155      0.2619
    124  O        -41.4190   10.0740  -31.3490 O.2   155  SER155     -0.2717
    125  CB       -38.3710    9.4380  -32.1660 C.3   155  SER155      0.2103
    126  OG       -37.9130    9.2690  -30.8400 O.3   155  SER155     -0.2182
    127  N        -40.7030    8.2630  -30.2220 N.am  156  ALA156     -0.1965
    128  CA       -41.5300    8.5270  -29.0510 C.3   156  ALA156      0.1728
    129  C        -40.6990    9.2570  -28.0020 C.2   156  ALA156      0.2616
    130  O        -41.1490    9.4760  -26.8750 O.2   156  ALA156     -0.2715
    131  CB       -42.0840    7.2310  -28.4860 C.3   156  ALA156      0.0334
    132  N        -39.4820    9.6370  -28.3850 N.am  157  GLY157     -0.1955
    133  CA       -38.5680   10.3120  -27.4800 C.3   157  GLY157      0.1869
    134  C        -38.6120   11.8260  -27.5860 C.2   157  GLY157      0.2309
    135  O        -39.6720   12.4080  -27.8310 O.2   157  GLY157     -0.2863
    136  N        -44.4690    5.0570  -26.6100 N.3   200  THR200     -0.1218
    137  CA       -43.9390    3.8550  -27.2410 C.3   200  THR200      0.1862
    138  C        -44.9960    2.9210  -27.8110 C.2   200  THR200      0.2287
    139  O        -44.6960    2.0890  -28.6670 O.2   200  THR200     -0.2866
    140  CB       -43.0530    3.0820  -26.2700 C.3   200  THR200      0.1770
    141  OG1      -43.8160    2.7210  -25.1130 O.3   200  THR200     -0.2211
    142  CG2      -41.9140    3.9560  -25.8460 C.3   200  THR200      0.0375
@<TRIPOS>BOND
     1   121   122    1
     2   122   125    1
     3   122   123    1
     4   125   126    1
     5     1     2    1
     6   124   123    2
     7   123   127   am
     8     3     4    2
     9     3     2    1
    10     2     5    1
    11   127   128    1
    12     5     6    1
    13   128   131    1
    14   128   129    1
    15     6     8   ar
    16     6     7   ar
    17   139   138    2
    18   132   129   am
    19   132   133    1
    20    19    20    1
    21    19    16    1
    22   129   130    2
    23   135   134    2
    24   138   137    1
    25   134   133    1
    26   137   136    1
    27   137   140    1
    28    16    15    1
    29    16    17    1
    30    15    11   am
    31   140   142    1
    32   140   141    1
    33    11    10    1
    34    11    12    2
    35    17    18    2
    36    17    21   am
    37    10    13    1
    38    10     9    1
    39    13    14    1
    40    21    22    1
    41   109   110   ar
    42   109   107   ar
    43   112   110   ar
    44   112   114   ar
    45    30    28   ar
    46    30    31   ar
    47   110   108   ar
    48    28    26   ar
    49   107   106   ar
    50    22    25    1
    51    22    23    1
    52   114   113   ar
    53    85    84   ar
    54    31    29   ar
    55    26    25    1
    56    26    27   ar
    57   108   106   ar
    58   108   111   ar
    59    23    24    2
    60   106   105    1
    61    29    27   ar
    62   113   111   ar
    63    77    75    1
    64    76    75    1
    65    84    83    1
    66    84    86   ar
    67    83    82    1
    68   105   102    1
    69    75    74    2
    70    81    80    2
    71    32    33    1
    72    80    79    1
    73    74    73    1
    74   102   103    1
    75   102   101    1
    76    82    79    1
    77   104   103    2
    78    79    78    1
    79    66    65    1
    80    73    72    1
    81   101    89   am
    82    99   100   ar
    83    99    97   ar
    84    33    34    1
    85    33    36    1
    86    63    65   ar
    87    63    61   ar
    88   120   119    1
    89    38    37    2
    90    34    35    2
    91   100    98   ar
    92    97    94   ar
    93    65    64   ar
    94    37    36    1
    95    37    39   am
    96   119   116    1
    97    98    96   ar
    98    94    96   ar
    99    94    92   ar
   100    61    60   ar
   101    89    90    2
   102    89    88    1
   103   117   118    2
   104   117   116    1
   105    72    71    1
   106    70    69    2
   107    96    95   ar
   108    91    92    1
   109    91    88    1
   110    92    93   ar
   111    64    62   ar
   112   116   115    1
   113    88    87    1
   114    68    71    1
   115    68    69    1
   116    68    67    1
   117    95    93   ar
   118    60    62   ar
   119    60    59    1
   120    45    44    1
   121    59    56    1
   122    46    44    1
   123    56    57    1
   124    56    55    1
   125    44    41    1
   126    58    57    2
   127    43    42    2
   128    55    49   am
   129    53    52    1
   130    50    49    2
   131    41    42    1
   132    41    40    1
   133    51    52    1
   134    51    48    1
   135    49    48    1
   136    52    54    1
   137    48    47    1
