@<TRIPOS>MOLECULE
tmp/4nwkA00.pdb
 190 186 0 0 0
SMALL
GASTEIGER

@<TRIPOS>ATOM
      1  N         48.2840   77.2190   13.8320 N.3    52  GLN52      -0.1231
      2  CA        47.7590   76.8760   12.5130 C.3    52  GLN52       0.1698
      3  C         46.6040   75.8780   12.5780 C.2    52  GLN52       0.2593
      4  O         46.6200   74.9550   13.3830 O.2    52  GLN52      -0.2718
      5  CB        48.8720   76.2920   11.6420 C.3    52  GLN52       0.0381
      6  CG        50.0370   77.2310   11.3880 C.3    52  GLN52       0.0905
      7  CD        50.7990   76.8560   10.1320 C.2    52  GLN52       0.2608
      8  OE1       50.9620   77.6690    9.2270 O.2    52  GLN52      -0.2717
      9  NE2       51.2630   75.6150   10.0700 N.am   52  GLN52      -0.0878
     10  N         45.6080   76.0580   11.7180 N.am   53  THR53      -0.1939
     11  CA        44.5400   75.0730   11.6010 C.3    53  THR53       0.2028
     12  C         44.3710   74.6250   10.1510 C.2    53  THR53       0.2642
     13  O         44.4720   75.4210    9.2210 O.2    53  THR53      -0.2714
     14  CB        43.2010   75.6330   12.1310 C.3    53  THR53       0.1808
     15  OG1       42.1920   74.6200   12.0540 O.3    53  THR53      -0.2208
     16  CG2       42.7660   76.8400   11.3260 C.3    53  THR53       0.0379
     17  N         44.1380   73.3330    9.9690 N.am   54  PHE54      -0.1973
     18  CA        44.0420   72.7450    8.6410 C.3    54  PHE54       0.1639
     19  C         43.2920   71.4230    8.7480 C.2    54  PHE54       0.2290
     20  O         42.5780   71.1950    9.7220 O.2    54  PHE54      -0.2864
     21  CB        45.4440   72.5420    8.0370 C.3    54  PHE54       0.0560
     22  CG        46.4520   71.9670    8.9960 C.ar   54  PHE54      -0.0200
     23  CD1       47.0020   72.7500    9.9990 C.ar   54  PHE54      -0.0042
     24  CD2       46.8370   70.6430    8.9060 C.ar   54  PHE54      -0.0042
     25  CE1       47.9120   72.2210   10.8960 C.ar   54  PHE54      -0.0003
     26  CE2       47.7460   70.1050    9.7990 C.ar   54  PHE54      -0.0003
     27  CZ        48.2810   70.8940   10.7940 C.ar   54  PHE54      -0.0000
     28  N         52.8280   68.7000    5.5780 N.3    67  TYR67      -0.1227
     29  CA        53.9490   69.0640    6.4270 C.3    67  TYR67       0.1736
     30  C         53.9220   70.5500    6.7530 C.2    67  TYR67       0.2595
     31  O         54.2930   70.9480    7.8570 O.2    67  TYR67      -0.2718
     32  CB        55.2830   68.7010    5.7560 C.3    67  TYR67       0.0548
     33  CG        56.4710   69.3550    6.4270 C.ar   67  TYR67      -0.0200
     34  CD1       56.9620   68.8750    7.6340 C.ar   67  TYR67      -0.0009
     35  CD2       57.0500   70.5000    5.8930 C.ar   67  TYR67      -0.0009
     36  CE1       57.9900   69.5230    8.3000 C.ar   67  TYR67       0.0417
     37  CE2       58.0770   71.1570    6.5540 C.ar   67  TYR67       0.0417
     38  CZ        58.5370   70.6650    7.7560 C.ar   67  TYR67       0.1957
     39  OH        59.5200   71.3380    8.4350 O.3    67  TYR67      -0.2866
     40  N         53.4750   71.3770    5.8080 N.am   68  HIS68      -0.1961
     41  CA        53.4950   72.8170    6.0430 C.3    68  HIS68       0.1787
     42  C         52.4200   73.2150    7.0430 C.2    68  HIS68       0.2620
     43  O         52.3350   74.3700    7.4520 O.2    68  HIS68      -0.2715
     44  CB        53.3350   73.6060    4.7290 C.3    68  HIS68       0.0785
     45  CG        51.9280   73.6850    4.2170 C.ar   68  HIS68       0.0821
     46  ND1       51.4430   72.8400    3.2420 N.ar   68  HIS68      -0.2267
     47  CD2       50.9200   74.5410    4.5080 C.ar   68  HIS68       0.1154
     48  CE1       50.1980   73.1720    2.9540 C.ar   68  HIS68       0.1986
     49  NE2       49.8560   74.2020    3.7070 N.ar   68  HIS68      -0.2212
     50  N         51.6040   72.2410    7.4370 N.am   69  GLY69      -0.1954
     51  CA        50.6950   72.4440    8.5490 C.3    69  GLY69       0.1869
     52  C         51.2270   71.8510    9.8440 C.2    69  GLY69       0.2309
     53  O         51.3060   72.5360   10.8680 O.2    69  GLY69      -0.2863
     54  N         58.9600   65.6870    3.6980 N.3    89  VAL89      -0.1231
     55  CA        58.7740   67.1270    3.7520 C.3    89  VAL89       0.1692
     56  C         58.7380   67.7300    2.3540 C.2    89  VAL89       0.2592
     57  O         58.0920   68.7440    2.1280 O.2    89  VAL89      -0.2718
     58  CB        59.8880   67.8090    4.5810 C.3    89  VAL89       0.0266
     59  CG1       59.8610   67.2920    6.0090 C.3    89  VAL89       0.0020
     60  CG2       61.2460   67.5630    3.9420 C.3    89  VAL89       0.0020
     61  N         59.4170   67.0920    1.4080 N.am   90  ASP90      -0.1960
     62  CA        59.4780   67.6240    0.0580 C.3    90  ASP90       0.1840
     63  C         58.1580   67.4430   -0.6810 C.2    90  ASP90       0.2622
     64  O         57.7330   68.3260   -1.4340 O.2    90  ASP90      -0.2715
     65  CB        60.6250   66.9560   -0.6890 C.3    90  ASP90       0.1450
     66  CG        61.9540   67.2380   -0.0410 C.2    90  ASP90       0.3671
     67  OD1       62.2900   68.4310    0.1150 O.co2  90  ASP90      -0.2456
     68  OD2       62.6580   66.2750    0.3290 O.co2  90  ASP90      -0.2456
     69  N         57.5020   66.3100   -0.4400 N.am   91  LYS91      -0.1963
     70  CA        56.1700   66.0610   -0.9800 C.3    91  LYS91       0.1728
     71  C         55.1200   66.8500   -0.2000 C.2    91  LYS91       0.2616
     72  O         53.9710   66.9500   -0.6180 O.2    91  LYS91      -0.2715
     73  CB        55.8490   64.5640   -0.9080 C.3    91  LYS91       0.0311
     74  CG        54.6380   64.1450   -1.7140 C.3    91  LYS91       0.0038
     75  CD        54.5000   62.6320   -1.7470 C.3    91  LYS91       0.0206
     76  CE        55.8450   61.9540   -1.9320 C.3    91  LYS91       0.1093
     77  NZ        56.6190   62.4740   -3.0960 N.3    91  LYS91      -0.1314
     78  N         55.5410   67.4000    0.9380 N.am   92  ASP92      -0.1971
     79  CA        54.6610   68.1270    1.8510 C.3    92  ASP92       0.1709
     80  C         53.6690   67.1800    2.5190 C.2    92  ASP92       0.2293
     81  O         52.5400   67.5650    2.8040 O.2    92  ASP92      -0.2864
     82  CB        53.8990   69.2360    1.1100 C.3    92  ASP92       0.1436
     83  CG        53.3310   70.2860    2.0550 C.2    92  ASP92       0.3671
     84  OD1       53.8090   70.3590    3.2040 O.co2  92  ASP92      -0.2456
     85  OD2       52.4130   71.0410    1.6540 O.co2  92  ASP92      -0.2456
     86  N         46.8420   67.7600  -10.3740 N.3   134  ARG134     -0.1245
     87  CA        46.2320   69.0620  -10.5970 C.3   134  ARG134      0.1563
     88  C         44.8100   68.9640  -11.1380 C.2   134  ARG134      0.2260
     89  O         44.4920   68.0790  -11.9290 O.2   134  ARG134     -0.2867
     90  CB        47.1040   69.8760  -11.5530 C.3   134  ARG134      0.0307
     91  CG        46.6060   71.2850  -11.8120 C.3   134  ARG134      0.0489
     92  CD        47.7120   72.1000  -12.4240 C.3   134  ARG134      0.2205
     93  NE        47.2380   73.3280  -13.0550 N.pl3 134  ARG134     -0.0865
     94  CZ        47.9610   74.4400  -13.1090 C.cat 134  ARG134      0.5346
     95  NH1       49.1730   74.4620  -12.5640 N.pl3 134  ARG134      0.1354
     96  NH2       47.4860   75.5180  -13.7190 N.pl3 134  ARG134      0.1354
     97  N         41.6990   82.7510   -2.7290 N.3   143  ILE143     -0.1245
     98  CA        42.6860   82.0170   -1.9550 C.3   143  ILE143      0.1561
     99  C         42.2840   81.9900   -0.4810 C.2   143  ILE143      0.2260
    100  O         42.3840   80.9590    0.1700 O.2   143  ILE143     -0.2867
    101  CB        44.0730   82.6660   -2.1100 C.3   143  ILE143      0.0252
    102  CG1       44.5350   82.5320   -3.5640 C.3   143  ILE143      0.0019
    103  CG2       45.0770   82.0260   -1.1690 C.3   143  ILE143      0.0019
    104  CD1       44.8160   81.1020   -3.9910 C.3   143  ILE143      0.0001
    105  N         39.9500   79.2240    0.7090 N.3   146  LEU146     -0.1231
    106  CA        40.5190   77.8790    0.6930 C.3   146  LEU146      0.1693
    107  C         41.5570   77.6650    1.7890 C.2   146  LEU146      0.2592
    108  O         41.8610   76.5280    2.1350 O.2   146  LEU146     -0.2718
    109  CB        41.1580   77.5820   -0.6670 C.3   146  LEU146      0.0284
    110  CG        40.2310   77.6890   -1.8790 C.3   146  LEU146      0.0019
    111  CD1       40.9850   77.2560   -3.1280 C.3   146  LEU146      0.0001
    112  CD2       39.0000   76.8210   -1.6680 C.3   146  LEU146      0.0001
    113  N         42.1060   78.7510    2.3250 N.am  147  LYS147     -0.1966
    114  CA        43.1160   78.6380    3.3710 C.3   147  LYS147      0.1728
    115  C         42.5540   77.8640    4.5580 C.2   147  LYS147      0.2617
    116  O         41.4170   78.0910    4.9770 O.2   147  LYS147     -0.2715
    117  CB        43.5730   80.0270    3.8310 C.3   147  LYS147      0.0311
    118  CG        44.5520   80.7030    2.8860 C.3   147  LYS147      0.0038
    119  CD        45.8870   79.9720    2.8510 C.3   147  LYS147      0.0206
    120  CE        46.9440   80.7910    2.1220 C.3   147  LYS147      0.1093
    121  NZ        47.1020   82.1490    2.7150 N.3   147  LYS147     -0.1314
    122  N         43.3600   76.9520    5.0920 N.am  148  GLY148     -0.1940
    123  CA        42.9280   76.1330    6.2050 C.3   148  GLY148      0.2014
    124  C         42.3500   74.8110    5.7360 C.2   148  GLY148      0.2640
    125  O         41.9210   73.9920    6.5450 O.2   148  GLY148     -0.2714
    126  N         42.3310   74.5990    4.4220 N.am  149  SER149     -0.1935
    127  CA        41.7640   73.3750    3.8690 C.3   149  SER149      0.2055
    128  C         42.7960   72.3780    3.3500 C.2   149  SER149      0.2643
    129  O         42.4380   71.2790    2.9450 O.2   149  SER149     -0.2714
    130  CB        40.7680   73.7020    2.7540 C.3   149  SER149      0.2130
    131  OG        39.5560   74.2000    3.2930 O.3   149  SER149     -0.2179
    132  N         44.0730   72.7460    3.3650 N.am  150  SER150     -0.1949
    133  CA        45.1100   71.7720    3.0210 C.3   150  SER150      0.1924
    134  C         44.9220   70.5340    3.8940 C.2   150  SER150      0.2314
    135  O         44.5200   70.6390    5.0520 O.2   150  SER150     -0.2863
    136  CB        46.5080   72.3570    3.2510 C.3   150  SER150      0.2116
    137  OG        46.6930   72.7290    4.6070 O.3   150  SER150     -0.2180
    138  N         44.5720   67.6830   -0.7770 N.3   165  PHE165     -0.1227
    139  CA        44.7600   69.0810   -1.1750 C.3   165  PHE165      0.1736
    140  C         46.0570   69.6170   -0.5690 C.2   165  PHE165      0.2595
    141  O         46.2180   69.6380    0.6500 O.2   165  PHE165     -0.2718
    142  CB        43.5530   69.8980   -0.6890 C.3   165  PHE165      0.0547
    143  CG        43.5740   71.3570   -1.0810 C.ar  165  PHE165     -0.0202
    144  CD1       44.1660   71.7800   -2.2550 C.ar  165  PHE165     -0.0042
    145  CD2       42.9550   72.3000   -0.2760 C.ar  165  PHE165     -0.0042
    146  CE1       44.1370   73.1200   -2.6210 C.ar  165  PHE165     -0.0003
    147  CE2       42.9210   73.6390   -0.6330 C.ar  165  PHE165     -0.0003
    148  CZ        43.5120   74.0510   -1.8080 C.ar  165  PHE165     -0.0000
    149  N         46.9790   70.0460   -1.4250 N.am  166  ARG166     -0.1966
    150  CA        48.2870   70.5030   -0.9690 C.3   166  ARG166      0.1729
    151  C         48.4730   72.0110   -1.0940 C.2   166  ARG166      0.2616
    152  O         48.8820   72.6720   -0.1440 O.2   166  ARG166     -0.2715
    153  CB        49.3980   69.7890   -1.7450 C.3   166  ARG166      0.0348
    154  CG        50.8000   70.2550   -1.3880 C.3   166  ARG166      0.0492
    155  CD        51.8390   69.2780   -1.8990 C.3   166  ARG166      0.2205
    156  NE        51.7660   69.1010   -3.3470 N.pl3 166  ARG166     -0.0865
    157  CZ        52.4020   68.1410   -4.0150 C.cat 166  ARG166      0.5346
    158  NH1       53.1590   67.2700   -3.3630 N.pl3 166  ARG166      0.1354
    159  NH2       52.2860   68.0520   -5.3370 N.pl3 166  ARG166      0.1354
    160  N         48.1750   72.5510   -2.2720 N.am  167  ALA167     -0.1963
    161  CA        48.3980   73.9670   -2.5390 C.3   167  ALA167      0.1728
    162  C         47.3750   74.4760   -3.5430 C.2   167  ALA167      0.2616
    163  O         46.8080   73.7010   -4.3070 O.2   167  ALA167     -0.2715
    164  CB        49.8100   74.1820   -3.0790 C.3   167  ALA167      0.0334
    165  N         47.1340   75.7810   -3.5330 N.am  168  ALA168     -0.1963
    166  CA        46.2470   76.3820   -4.5180 C.3   168  ALA168      0.1728
    167  C         47.0590   76.9800   -5.6570 C.2   168  ALA168      0.2616
    168  O         48.1390   77.5240   -5.4410 O.2   168  ALA168     -0.2715
    169  CB        45.3950   77.4570   -3.8650 C.3   168  ALA168      0.0334
    170  N         46.5370   76.8690   -6.8740 N.am  169  VAL169     -0.1963
    171  CA        47.1230   77.5630   -8.0070 C.3   169  VAL169      0.1727
    172  C         46.5090   78.9550   -8.0680 C.2   169  VAL169      0.2616
    173  O         45.3190   79.1060   -8.3370 O.2   169  VAL169     -0.2715
    174  CB        46.8410   76.8120   -9.3270 C.3   169  VAL169      0.0290
    175  CG1       47.4840   77.5420  -10.4920 C.3   169  VAL169      0.0023
    176  CG2       47.3760   75.3880   -9.2370 C.3   169  VAL169      0.0023
    177  N         47.3330   79.9640   -7.7980 N.am  170  CYS170     -0.1968
    178  CA        46.8770   81.3460   -7.7280 C.3   170  CYS170      0.1712
    179  C         47.2270   82.0440   -9.0300 C.2   170  CYS170      0.2296
    180  O         48.3940   82.1490   -9.3980 O.2   170  CYS170     -0.2864
    181  CB        47.5510   82.0720   -6.5570 C.3   170  CYS170      0.0983
    182  SG        46.9670   83.7660   -6.2880 S.3   170  CYS170     -0.0798
    183  N         46.5310   72.0150   -6.4750 N.3   179  ASP179     -0.1239
    184  CA        47.6150   71.0460   -6.5790 C.3   179  ASP179      0.1674
    185  C         47.3900   70.0640   -5.4350 C.2   179  ASP179      0.2266
    186  O         47.1870   70.4780   -4.3030 O.2   179  ASP179     -0.2867
    187  CB        48.9590   71.7780   -6.4290 C.3   179  ASP179      0.1410
    188  CG        50.1030   70.8570   -6.0360 C.2   179  ASP179      0.3668
    189  OD1       50.3940   69.9020   -6.7810 O.co2 179  ASP179     -0.2456
    190  OD2       50.7250   71.1010   -4.9750 O.co2 179  ASP179     -0.2456
@<TRIPOS>BOND
     1    96    94    1
     2    94    93    2
     3    94    95    1
     4    93    92    1
     5    92    91    1
     6    89    88    2
     7    91    90    1
     8    90    87    1
     9    88    87    1
    10    87    86    1
    11   175   174    1
    12   180   179    2
    13   174   176    1
    14   174   171    1
    15   179   178    1
    16   173   172    2
    17   172   171    1
    18   172   177   am
    19   171   170    1
    20   177   178    1
    21   178   181    1
    22   170   167   am
    23   189   188   ar
    24   184   183    1
    25   184   187    1
    26   184   185    1
    27   181   182    1
    28   187   188    1
    29   188   190   ar
    30   167   168    2
    31   167   166    1
    32   185   186    2
    33   159   157    1
    34   166   169    1
    35   166   165    1
    36   163   162    2
    37   157   158    1
    38   157   156    2
    39   104   102    1
    40   102   101    1
    41   162   165   am
    42   162   161    1
    43   156   155    1
    44   111   110    1
    45    77    76    1
    46   164   161    1
    47    97    98    1
    48   146   144   ar
    49   146   148   ar
    50   161   160    1
    51   160   151   am
    52   144   143   ar
    53   101    98    1
    54   101   103    1
    55    98    99    1
    56    76    75    1
    57   155   154    1
    58   110   112    1
    59   110   109    1
    60   148   147   ar
    61    75    74    1
    62   153   154    1
    63   153   150    1
    64    74    73    1
    65    64    63    2
    66   149   150    1
    67   149   140   am
    68   139   138    1
    69   139   142    1
    70   139   140    1
    71   151   150    1
    72   151   152    2
    73   143   142    1
    74   143   145   ar
    75    70    73    1
    76    70    69    1
    77    70    71    1
    78    65    66    1
    79    65    62    1
    80    63    69   am
    81    63    62    1
    82   109   106    1
    83   147   145   ar
    84    72    71    2
    85   140   141    2
    86    99   100    2
    87    71    78   am
    88    66    67   ar
    89    66    68   ar
    90    62    61    1
    91   106   105    1
    92   106   107    1
    93    78    79    1
    94    82    79    1
    95    82    83    1
    96    61    56   am
    97    85    83   ar
    98   107   108    2
    99   107   113   am
   100    79    80    1
   101    83    84   ar
   102   120   121    1
   103   120   119    1
   104    57    56    2
   105   113   114    1
   106    56    55    1
   107    80    81    2
   108   130   131    1
   109   130   127    1
   110   119   118    1
   111   118   117    1
   112   129   128    2
   113    48    46   ar
   114    48    49   ar
   115   133   136    1
   116   133   132    1
   117   133   134    1
   118    46    45   ar
   119   136   137    1
   120   128   132   am
   121   128   127    1
   122   114   117    1
   123   114   115    1
   124    54    55    1
   125    49    47   ar
   126    55    58    1
   127   127   126    1
   128   134   135    2
   129    60    58    1
   130    45    47   ar
   131    45    44    1
   132   126   124   am
   133   115   116    2
   134   115   122   am
   135    58    59    1
   136    44    41    1
   137   122   123    1
   138    28    29    1
   139   124   123    1
   140   124   125    2
   141    32    33    1
   142    32    29    1
   143    40    41    1
   144    40    30   am
   145    35    33   ar
   146    35    37   ar
   147    41    42    1
   148    33    34   ar
   149    29    30    1
   150    37    38   ar
   151    30    31    2
   152    42    50   am
   153    42    43    2
   154    50    51    1
   155    34    36   ar
   156    38    36   ar
   157    38    39    1
   158    21    18    1
   159    21    22    1
   160    51    52    1
   161    18    19    1
   162    18    17    1
   163    19    20    2
   164    24    22   ar
   165    24    26   ar
   166    22    23   ar
   167    13    12    2
   168     8     7    2
   169    26    27   ar
   170    52    53    2
   171    17    12   am
   172    23    25   ar
   173     9     7   am
   174     7     6    1
   175    12    11    1
   176    27    25   ar
   177    16    14    1
   178     6     5    1
   179    11    10    1
   180    11    14    1
   181     5     2    1
   182    10     3   am
   183    15    14    1
   184     2     3    1
   185     2     1    1
   186     3     4    2
