@<TRIPOS>MOLECULE
tmp/4nwlB00.pdb
 175 169 0 0 0
SMALL
GASTEIGER

@<TRIPOS>ATOM
      1  N         34.3990   -0.2840   59.6090 N.3    53  GLN53      -0.1231
      2  CA        33.1870   -0.1790   58.7930 C.3    53  GLN53       0.1698
      3  C         33.3320    0.7580   57.5940 C.2    53  GLN53       0.2593
      4  O         34.0500    1.7590   57.6580 O.2    53  GLN53      -0.2718
      5  CB        32.0080    0.3000   59.6510 C.3    53  GLN53       0.0381
      6  CG        31.6440   -0.6390   60.7930 C.3    53  GLN53       0.0905
      7  CD        30.4860   -0.1190   61.6240 C.2    53  GLN53       0.2608
      8  OE1       30.6590    0.7610   62.4720 O.2    53  GLN53      -0.2717
      9  NE2       29.2910   -0.6560   61.3790 N.am   53  GLN53      -0.0878
     10  N         32.6210    0.4290   56.5130 N.am   54  THR54      -0.1939
     11  CA        32.5670    1.2610   55.3120 C.3    54  THR54       0.2028
     12  C         31.1190    1.6060   54.9180 C.2    54  THR54       0.2642
     13  O         30.1870    0.8310   55.1420 O.2    54  THR54      -0.2714
     14  CB        33.2680    0.5540   54.1260 C.3    54  THR54       0.1808
     15  OG1       34.6360    0.3000   54.4700 O.3    54  THR54      -0.2208
     16  CG2       33.2430    1.4080   52.8930 C.3    54  THR54       0.0379
     17  N         30.9470    2.7900   54.3510 N.am   55  PHE55      -0.1973
     18  CA        29.6430    3.2800   53.9430 C.3    55  PHE55       0.1639
     19  C         29.8250    4.3830   52.8880 C.2    55  PHE55       0.2290
     20  O         30.9010    4.5210   52.3130 O.2    55  PHE55      -0.2864
     21  CB        28.8550    3.7790   55.1830 C.3    55  PHE55       0.0560
     22  CG        29.6260    4.7300   56.0690 C.ar   55  PHE55      -0.0200
     23  CD1       30.5880    4.2590   56.9530 C.ar   55  PHE55      -0.0042
     24  CD2       29.3870    6.0940   56.0160 C.ar   55  PHE55      -0.0042
     25  CE1       31.3050    5.1440   57.7740 C.ar   55  PHE55      -0.0003
     26  CE2       30.0930    6.9860   56.8300 C.ar   55  PHE55      -0.0003
     27  CZ        31.0550    6.5110   57.7090 C.ar   55  PHE55      -0.0000
     28  N         25.2950   10.0730   60.3210 N.3    68  TYR68      -0.1227
     29  CA        25.9820   10.1720   61.5990 C.3    68  TYR68       0.1736
     30  C         26.3110    8.8200   62.2270 C.2    68  TYR68       0.2595
     31  O         27.3250    8.6870   62.9050 O.2    68  TYR68      -0.2718
     32  CB        25.1520   10.9820   62.5890 C.3    68  TYR68       0.0548
     33  CG        25.8120   11.0930   63.9450 C.ar   68  TYR68      -0.0200
     34  CD1       26.6980   12.1270   64.2220 C.ar   68  TYR68      -0.0009
     35  CD2       25.5620   10.1530   64.9440 C.ar   68  TYR68      -0.0009
     36  CE1       27.3150   12.2290   65.4490 C.ar   68  TYR68       0.0417
     37  CE2       26.1770   10.2440   66.1770 C.ar   68  TYR68       0.0417
     38  CZ        27.0520   11.2840   66.4260 C.ar   68  TYR68       0.1957
     39  OH        27.6610   11.3950   67.6570 O.3    68  TYR68      -0.2866
     40  N         25.4540    7.8240   62.0270 N.am   69  HIS69      -0.1961
     41  CA        25.7090    6.5270   62.6380 C.3    69  HIS69       0.1787
     42  C         26.9380    5.8740   62.0210 C.2    69  HIS69       0.2620
     43  O         27.4920    4.9170   62.5630 O.2    69  HIS69      -0.2715
     44  CB        24.4820    5.6170   62.5320 C.3    69  HIS69       0.0785
     45  CG        24.2200    5.0610   61.1620 C.ar   69  HIS69       0.0821
     46  ND1       23.4020    5.6940   60.2480 N.ar   69  HIS69      -0.2267
     47  CD2       24.5110    3.8500   60.6250 C.ar   69  HIS69       0.1154
     48  CE1       23.1880    4.8930   59.2190 C.ar   69  HIS69       0.1986
     49  NE2       23.8470    3.7680   59.4230 N.ar   69  HIS69      -0.2212
     50  N         27.3650    6.4280   60.8910 N.am   70  GLY70      -0.1954
     51  CA        28.6190    6.0340   60.2880 C.3    70  GLY70       0.1869
     52  C         29.7670    6.9140   60.7340 C.2    70  GLY70       0.2309
     53  O         30.7160    6.4120   61.3220 O.2    70  GLY70      -0.2863
     54  N         22.2840   14.8770   64.8750 N.3    90  VAL90      -0.1231
     55  CA        22.1460   13.5190   65.3860 C.3    90  VAL90       0.1692
     56  C         20.7270   13.0030   65.1830 C.2    90  VAL90       0.2592
     57  O         20.5160   11.8340   64.8510 O.2    90  VAL90      -0.2718
     58  CB        22.4730   13.4690   66.8980 C.3    90  VAL90       0.0266
     59  CG1       22.2250   12.0810   67.4300 C.3    90  VAL90       0.0020
     60  CG2       23.9270   13.9010   67.1450 C.3    90  VAL90       0.0020
     61  N         19.7510   13.8780   65.3920 N.am   91  ASP91      -0.1974
     62  CA        18.3560   13.4800   65.3050 C.3    91  ASP91       0.1709
     63  C         17.9800   13.0930   63.8790 C.2    91  ASP91       0.2293
     64  O         17.1740   12.1890   63.6740 O.2    91  ASP91      -0.2864
     65  CB        17.4640   14.6150   65.8050 C.3    91  ASP91       0.1436
     66  CG        17.8700   15.0970   67.1840 C.2    91  ASP91       0.3671
     67  OD1       17.5670   14.3870   68.1690 O.co2  91  ASP91      -0.2456
     68  OD2       18.5000   16.1770   67.2820 O.co2  91  ASP91      -0.2456
     69  N         20.3340   12.0190   61.8540 N.3    93  ASP93      -0.1239
     70  CA        21.3780   11.0660   61.4810 C.3    93  ASP93       0.1674
     71  C         22.2650   11.6360   60.3750 C.2    93  ASP93       0.2266
     72  O         22.7550   10.8980   59.5140 O.2    93  ASP93      -0.2867
     73  CB        20.7500    9.7470   61.0050 C.3    93  ASP93       0.1410
     74  CG        21.7550    8.6130   60.9160 C.2    93  ASP93       0.3668
     75  OD1       22.8790    8.7670   61.4310 O.co2  93  ASP93      -0.2456
     76  OD2       21.4250    7.5600   60.3350 O.co2  93  ASP93      -0.2456
     77  N         10.1130    7.9780   53.0360 N.3   135  ARG135     -0.1245
     78  CA         9.9260    6.5380   52.8600 C.3   135  ARG135      0.1563
     79  C          9.7140    6.1430   51.4030 C.2   135  ARG135      0.2260
     80  O          9.0820    6.8720   50.6360 O.2   135  ARG135     -0.2867
     81  CB         8.7380    6.0520   53.6960 C.3   135  ARG135      0.0307
     82  CG         8.9750    6.0960   55.1940 C.3   135  ARG135      0.0489
     83  CD         9.8220    4.9210   55.6570 C.3   135  ARG135      0.2205
     84  NE        10.3250    5.1090   57.0170 N.pl3 135  ARG135     -0.0865
     85  CZ         9.8740    4.4590   58.0860 C.cat 135  ARG135      0.5346
     86  NH1        8.8990    3.5650   57.9660 N.pl3 135  ARG135      0.1354
     87  NH2       10.4030    4.7010   59.2780 N.pl3 135  ARG135      0.1354
     88  N         18.3700   -7.6800   53.7100 N.3   144  ILE144     -0.1245
     89  CA        19.0450   -6.6050   54.4340 C.3   144  ILE144      0.1561
     90  C         20.5320   -6.6390   54.1580 C.2   144  ILE144      0.2260
     91  O         21.1690   -5.5990   53.9930 O.2   144  ILE144     -0.2867
     92  CB        18.8460   -6.7340   55.9540 C.3   144  ILE144      0.0252
     93  CG1       17.3550   -6.7130   56.2890 C.3   144  ILE144      0.0019
     94  CG2       19.5860   -5.6130   56.6720 C.3   144  ILE144      0.0019
     95  CD1       17.0530   -7.2060   57.6930 C.3   144  ILE144      0.0001
     96  N         21.8760   -4.4070   51.3850 N.3   147  LEU147     -0.1231
     97  CA        21.8410   -2.9560   51.5040 C.3   147  LEU147      0.1693
     98  C         22.9400   -2.3800   52.4030 C.2   147  LEU147      0.2592
     99  O         23.1820   -1.1750   52.4020 O.2   147  LEU147     -0.2718
    100  CB        20.4750   -2.5170   52.0330 C.3   147  LEU147      0.0284
    101  CG        19.2730   -2.8050   51.1290 C.3   147  LEU147      0.0019
    102  CD1       18.0430   -2.0630   51.6450 C.3   147  LEU147      0.0001
    103  CD2       19.5920   -2.3640   49.7140 C.3   147  LEU147      0.0001
    104  N         23.6000   -3.2470   53.1660 N.am  148  LYS148     -0.1966
    105  CA        24.5220   -2.8180   54.2100 C.3   148  LYS148      0.1728
    106  C         25.7930   -2.2320   53.6210 C.2   148  LYS148      0.2616
    107  O         26.4040   -2.8220   52.7400 O.2   148  LYS148     -0.2715
    108  CB        24.8770   -4.0000   55.1170 C.3   148  LYS148      0.0311
    109  CG        23.6900   -4.6080   55.8400 C.3   148  LYS148      0.0038
    110  CD        23.7590   -4.3230   57.3310 C.3   148  LYS148      0.0206
    111  CE        22.6610   -5.0560   58.0800 C.3   148  LYS148      0.1093
    112  NZ        22.4630   -6.4300   57.5220 N.3   148  LYS148     -0.1314
    113  N         26.1980   -1.0790   54.1320 N.am  149  GLY149     -0.1955
    114  CA        27.3540   -0.4020   53.5850 C.3   149  GLY149      0.1869
    115  C         26.9670    0.6300   52.5480 C.2   149  GLY149      0.2309
    116  O         27.8200    1.2670   51.9380 O.2   149  GLY149     -0.2863
    117  N         24.4290    3.0530   53.2740 N.3   151  SER151     -0.1217
    118  CA        23.8720    4.2390   53.9150 C.3   151  SER151      0.1889
    119  C         24.7780    5.4260   53.5900 C.2   151  SER151      0.2288
    120  O         25.9760    5.2510   53.3820 O.2   151  SER151     -0.2866
    121  CB        23.7680    4.0520   55.4390 C.3   151  SER151      0.2089
    122  OG        25.0220    4.2500   56.0690 O.3   151  SER151     -0.2183
    123  N         20.1420    7.9310   51.6820 N.3   166  PHE166     -0.1227
    124  CA        19.7270    6.6720   52.2830 C.3   166  PHE166      0.1736
    125  C         20.2290    6.5810   53.7350 C.2   166  PHE166      0.2595
    126  O         21.4100    6.7870   54.0080 O.2   166  PHE166     -0.2718
    127  CB        20.2650    5.5060   51.4520 C.3   166  PHE166      0.0547
    128  CG        19.8110    4.1630   51.9350 C.ar  166  PHE166     -0.0202
    129  CD1       18.5770    4.0160   52.5560 C.ar  166  PHE166     -0.0042
    130  CD2       20.6190    3.0460   51.7760 C.ar  166  PHE166     -0.0042
    131  CE1       18.1550    2.7820   53.0110 C.ar  166  PHE166     -0.0003
    132  CE2       20.2060    1.8030   52.2300 C.ar  166  PHE166     -0.0003
    133  CZ        18.9700    1.6740   52.8490 C.ar  166  PHE166     -0.0000
    134  N         19.3220    6.2820   54.6630 N.am  167  ARG167     -0.1966
    135  CA        19.6200    6.3630   56.0920 C.3   167  ARG167      0.1729
    136  C         19.3900    5.0450   56.8260 C.2   167  ARG167      0.2616
    137  O         20.2460    4.5830   57.5840 O.2   167  ARG167     -0.2715
    138  CB        18.7600    7.4480   56.7440 C.3   167  ARG167      0.0348
    139  CG        18.8840    7.5270   58.2640 C.3   167  ARG167      0.0492
    140  CD        18.2010    8.7900   58.8150 C.3   167  ARG167      0.2205
    141  NE        16.7590    8.7960   58.5780 N.pl3 167  ARG167     -0.0865
    142  CZ        15.9780    9.8680   58.7030 C.cat 167  ARG167      0.5346
    143  NH1       16.4980   11.0360   59.0640 N.pl3 167  ARG167      0.1354
    144  NH2       14.6760    9.7760   58.4740 N.pl3 167  ARG167      0.1354
    145  N         18.2210    4.4530   56.6110 N.am  168  ALA168     -0.1963
    146  CA        17.8620    3.2270   57.2990 C.3   168  ALA168      0.1728
    147  C         17.0510    2.3100   56.4030 C.2   168  ALA168      0.2616
    148  O         16.4480    2.7530   55.4240 O.2   168  ALA168     -0.2715
    149  CB        17.0740    3.5530   58.5640 C.3   168  ALA168      0.0334
    150  N         17.0460    1.0260   56.7420 N.am  169  ALA169     -0.1963
    151  CA        16.2500    0.0430   56.0200 C.3   169  ALA169      0.1728
    152  C         15.0540   -0.3910   56.8640 C.2   169  ALA169      0.2616
    153  O         15.1790   -0.6300   58.0660 O.2   169  ALA169     -0.2715
    154  CB        17.1070   -1.1610   55.6690 C.3   169  ALA169      0.0334
    155  N         13.8950   -0.4770   56.2190 N.am  170  VAL170     -0.1963
    156  CA        12.6790   -0.9530   56.8500 C.3   170  VAL170      0.1727
    157  C         12.6580   -2.4540   56.6200 C.2   170  VAL170      0.2616
    158  O         12.3740   -2.9180   55.5190 O.2   170  VAL170     -0.2715
    159  CB        11.4270   -0.3300   56.1860 C.3   170  VAL170      0.0290
    160  CG1       10.1700   -0.7100   56.9690 C.3   170  VAL170      0.0023
    161  CG2       11.5830    1.1850   56.0940 C.3   170  VAL170      0.0023
    162  N         12.9830   -3.2270   57.6440 N.am  171  CYS171     -0.1968
    163  CA        13.1860   -4.6370   57.4100 C.3   171  CYS171      0.1712
    164  C         12.2310   -5.5100   58.1910 C.2   171  CYS171      0.2296
    165  O         11.8830   -5.2300   59.3380 O.2   171  CYS171     -0.2864
    166  CB        14.6370   -5.0320   57.6990 C.3   171  CYS171      0.0983
    167  SG        15.4080   -4.2200   59.1160 S.3   171  CYS171     -0.0798
    168  N         14.3550    4.1460   54.2930 N.3   180  ASP180     -0.1239
    169  CA        14.1000    5.4380   54.8930 C.3   180  ASP180      0.1674
    170  C         15.2650    6.3450   54.5350 C.2   180  ASP180      0.2266
    171  O         16.4310    5.9660   54.6560 O.2   180  ASP180     -0.2867
    172  CB        13.9680    5.2930   56.4080 C.3   180  ASP180      0.1410
    173  CG        13.6420    6.6100   57.0950 C.2   180  ASP180      0.3668
    174  OD1       12.4540    7.0120   57.1050 O.co2 180  ASP180     -0.2456
    175  OD2       14.5830    7.2400   57.6260 O.co2 180  ASP180     -0.2456
@<TRIPOS>BOND
     1   103   101    1
     2    80    79    2
     3   101   102    1
     4   101   100    1
     5    96    97    1
     6    79    78    1
     7   127   128    1
     8   127   124    1
     9    97   100    1
    10    97    98    1
    11   123   124    1
    12   130   128   ar
    13   130   132   ar
    14   128   129   ar
    15   116   115    2
    16   132   133   ar
    17   124   125    1
    18    20    19    2
    19    99    98    2
    20    98   104   am
    21   115   114    1
    22   129   131   ar
    23   107   106    2
    24   133   131   ar
    25    78    77    1
    26    78    81    1
    27    19    18    1
    28    16    14    1
    29   104   105    1
    30   117   118    1
    31   120   119    2
    32   114   113    1
    33   119   118    1
    34   106   113   am
    35   106   105    1
    36    81    82    1
    37    88    89    1
    38   125   126    2
    39   125   134   am
    40   118   121    1
    41    18    17    1
    42    18    21    1
    43    91    90    2
    44    14    15    1
    45    14    11    1
    46    90    89    1
    47   105   108    1
    48   168   169    1
    49    17    12   am
    50    89    92    1
    51   170   171    2
    52   170   169    1
    53   134   135    1
    54   169   172    1
    55    12    13    2
    56    12    11    1
    57   108   109    1
    58    21    22    1
    59    82    83    1
    60    11    10    1
    61   148   147    2
    62   121   122    1
    63   158   157    2
    64    83    84    1
    65   154   151    1
    66   109   110    1
    67    92    93    1
    68    92    94    1
    69    24    22   ar
    70    24    26   ar
    71   151   150    1
    72   151   152    1
    73    22    23   ar
    74   135   138    1
    75   135   136    1
    76   161   159    1
    77   159   156    1
    78   159   160    1
    79   155   156    1
    80   155   152   am
    81    93    95    1
    82   147   150   am
    83   147   146    1
    84   172   173    1
    85    10     3   am
    86   145   136   am
    87   145   146    1
    88   157   156    1
    89   157   162   am
    90   138   139    1
    91   136   137    2
    92    26    27   ar
    93   152   153    2
    94    23    25   ar
    95    84    85    2
    96   173   174   ar
    97   173   175   ar
    98   146   149    1
    99   110   111    1
   100   163   162    1
   101   163   166    1
   102   163   164    1
   103   112   111    1
   104     3     4    2
   105     3     2    1
   106   166   167    1
   107    27    25   ar
   108    86    85    1
   109    85    87    1
   110   164   165    2
   111   139   140    1
   112   144   142    1
   113   141   142    2
   114   141   140    1
   115   142   143    1
   116     2     1    1
   117     2     5    1
   118    48    49   ar
   119    48    46   ar
   120    49    47   ar
   121    72    71    2
   122     5     6    1
   123    46    45   ar
   124    51    52    1
   125    51    50    1
   126    28    29    1
   127    76    74   ar
   128    71    70    1
   129    47    45   ar
   130    52    53    2
   131     6     7    1
   132    50    42   am
   133    74    73    1
   134    74    75   ar
   135    73    70    1
   136    45    44    1
   137     9     7   am
   138    70    69    1
   139    29    30    1
   140    29    32    1
   141     7     8    2
   142    42    43    2
   143    42    41    1
   144    40    30   am
   145    40    41    1
   146    30    31    2
   147    44    41    1
   148    32    33    1
   149    64    63    2
   150    63    62    1
   151    33    34   ar
   152    33    35   ar
   153    34    36   ar
   154    57    56    2
   155    54    55    1
   156    35    37   ar
   157    56    55    1
   158    56    61   am
   159    62    61    1
   160    62    65    1
   161    55    58    1
   162    36    38   ar
   163    65    66    1
   164    37    38   ar
   165    38    39    1
   166    58    60    1
   167    58    59    1
   168    66    68   ar
   169    66    67   ar
