@<TRIPOS>MOLECULE
tmp/4nx0A00.pdb
 104 102 0 0 0
SMALL
GASTEIGER

@<TRIPOS>ATOM
      1  N          1.7640  -25.8690    7.3570 N.3   140  ASP140     -0.1239
      2  CA         1.7610  -24.9820    6.1940 C.3   140  ASP140      0.1674
      3  C          0.3140  -24.6650    5.8690 C.2   140  ASP140      0.2266
      4  O         -0.5870  -25.5550    5.8900 O.2   140  ASP140     -0.2867
      5  CB         2.4540  -25.6570    5.0240 C.3   140  ASP140      0.1410
      6  CG         2.9210  -24.6970    3.9530 C.2   140  ASP140      0.3668
      7  OD1        2.1290  -23.8210    3.3670 O.co2 140  ASP140     -0.2456
      8  OD2        4.1150  -24.8110    3.6670 O.co2 140  ASP140     -0.2456
      9  N         -0.4030  -26.2840    1.7510 N.3   143  SER143     -0.1217
     10  CA         0.3050  -27.4920    1.3390 C.3   143  SER143      0.1889
     11  C         -0.5150  -28.7250    1.6360 C.2   143  SER143      0.2288
     12  O         -0.7890  -29.0410    2.8070 O.2   143  SER143     -0.2866
     13  CB         1.6350  -27.5910    2.0810 C.3   143  SER143      0.2089
     14  OG         2.4880  -28.5700    1.4980 O.3   143  SER143     -0.2183
     15  N          3.9970  -29.6810    6.7600 N.3   154  VAL154     -0.1231
     16  CA         4.6330  -29.0250    7.8400 C.3   154  VAL154      0.1692
     17  C          5.5980  -27.9250    7.3490 C.2   154  VAL154      0.2592
     18  O          6.3900  -28.1130    6.4020 O.2   154  VAL154     -0.2718
     19  CB         5.4050  -30.0330    8.6590 C.3   154  VAL154      0.0266
     20  CG1        6.2520  -29.3500    9.6930 C.3   154  VAL154      0.0020
     21  CG2        4.4320  -30.9270    9.3670 C.3   154  VAL154      0.0020
     22  N          5.5040  -26.7660    7.9730 N.am  155  ASP155     -0.1960
     23  CA         6.2670  -25.5690    7.5780 C.3   155  ASP155      0.1840
     24  C          7.5230  -25.4660    8.3990 C.2   155  ASP155      0.2622
     25  O          7.4750  -25.1020    9.5820 O.2   155  ASP155     -0.2715
     26  CB         5.4400  -24.3750    7.8640 C.3   155  ASP155      0.1450
     27  CG         6.0610  -23.0720    7.3540 C.2   155  ASP155      0.3671
     28  OD1        7.2480  -23.0090    7.0480 O.co2 155  ASP155     -0.2456
     29  OD2        5.3030  -22.0840    7.3820 O.co2 155  ASP155     -0.2456
     30  N          8.6610  -25.7250    7.7600 N.am  156  HIS156     -0.1959
     31  CA         9.9510  -25.7400    8.4430 C.3   156  HIS156      0.1787
     32  C         10.3320  -24.4060    9.0720 C.2   156  HIS156      0.2620
     33  O         11.2490  -24.3710    9.8680 O.2   156  HIS156     -0.2715
     34  CB        11.0680  -26.1000    7.4750 C.3   156  HIS156      0.0785
     35  CG        11.4580  -24.9760    6.5650 C.ar  156  HIS156      0.0821
     36  ND1       12.5780  -24.1900    6.7710 N.ar  156  HIS156     -0.2267
     37  CD2       10.9010  -24.5300    5.4090 C.ar  156  HIS156      0.1154
     38  CE1       12.6670  -23.3040    5.8070 C.ar  156  HIS156      0.1986
     39  NE2       11.6630  -23.4840    4.9740 N.ar  156  HIS156     -0.2212
     40  N          9.6830  -23.3320    8.6770 N.am  157  ARG157     -0.1977
     41  CA         9.9600  -22.0050    9.2620 C.3   157  ARG157      0.1597
     42  C          9.3070  -21.8270   10.6090 C.2   157  ARG157      0.2287
     43  O          9.6530  -20.9270   11.3100 O.2   157  ARG157     -0.2864
     44  CB         9.4890  -20.8770    8.3730 C.3   157  ARG157      0.0334
     45  CG        10.3010  -20.7460    7.1140 C.3   157  ARG157      0.0492
     46  CD         9.6150  -19.8780    6.0840 C.3   157  ARG157      0.2205
     47  NE         8.5090  -20.6950    5.5780 N.pl3 157  ARG157     -0.0865
     48  CZ         7.4990  -20.2990    4.8060 C.cat 157  ARG157      0.5346
     49  NH1        7.4010  -19.0410    4.3910 N.pl3 157  ARG157      0.1354
     50  NH2        6.5830  -21.1980    4.4590 N.pl3 157  ARG157      0.1354
     51  N          2.5670  -28.7080   -6.2680 N.3   191  TYR191     -0.1241
     52  CA         3.6600  -28.0000   -5.6110 C.3   191  TYR191      0.1605
     53  C          5.0710  -28.4120   -6.0420 C.2   191  TYR191      0.2264
     54  O          6.0190  -27.8050   -5.5930 O.2   191  TYR191     -0.2867
     55  CB         3.5810  -28.2310   -4.1250 C.3   191  TYR191      0.0534
     56  CG         2.3300  -27.7510   -3.5190 C.ar  191  TYR191     -0.0201
     57  CD1        2.0920  -26.3640   -3.3330 C.ar  191  TYR191     -0.0009
     58  CD2        1.3720  -28.6220   -3.0960 C.ar  191  TYR191     -0.0009
     59  CE1        0.9030  -25.9540   -2.7150 C.ar  191  TYR191      0.0417
     60  CE2        0.1440  -28.1760   -2.5290 C.ar  191  TYR191      0.0417
     61  CZ        -0.0790  -26.8800   -2.3420 C.ar  191  TYR191      0.1957
     62  OH        -1.2640  -26.4710   -1.7330 O.3   191  TYR191     -0.2866
     63  N          8.5830  -30.6070   -5.7030 N.3   193  THR193     -0.1203
     64  CA         9.2760  -31.4020   -4.7290 C.3   193  THR193      0.1994
     65  C          9.2250  -30.6640   -3.4210 C.2   193  THR193      0.2618
     66  O          9.5130  -29.4930   -3.3480 O.2   193  THR193     -0.2717
     67  CB        10.7200  -31.6490   -5.1940 C.3   193  THR193      0.1784
     68  OG1       10.7180  -32.3530   -6.4440 O.3   193  THR193     -0.2211
     69  CG2       11.4610  -32.4690   -4.1900 C.3   193  THR193      0.0376
     70  N          8.9150  -31.3680   -2.3430 N.am  194  HIS194     -0.1961
     71  CA         8.9200  -30.7580   -0.9940 C.3   194  HIS194      0.1787
     72  C         10.2720  -30.8580   -0.3610 C.2   194  HIS194      0.2621
     73  O         10.5470  -31.7280    0.4890 O.2   194  HIS194     -0.2715
     74  CB         7.8170  -31.4040   -0.1910 C.3   194  HIS194      0.0785
     75  CG         6.4550  -31.0300   -0.6980 C.ar  194  HIS194      0.0821
     76  ND1        5.5860  -31.8760   -1.3760 N.ar  194  HIS194     -0.2267
     77  CD2        5.8490  -29.8400   -0.6540 C.ar  194  HIS194      0.1154
     78  CE1        4.4750  -31.2190   -1.6830 C.ar  194  HIS194      0.1986
     79  NE2        4.6300  -29.9750   -1.2570 N.ar  194  HIS194     -0.2212
     80  N         11.1400  -29.9570   -0.7900 N.am  195  THR195     -0.1937
     81  CA        12.5410  -30.0550   -0.4350 C.3   195  THR195      0.2028
     82  C         12.8210  -29.8530    1.0400 C.2   195  THR195      0.2642
     83  O         13.6750  -30.5100    1.6450 O.2   195  THR195     -0.2714
     84  CB        13.4190  -29.0870   -1.2530 C.3   195  THR195      0.1808
     85  OG1       13.0670  -27.7480   -0.9580 O.3   195  THR195     -0.2208
     86  CG2       13.1990  -29.2700   -2.6860 C.3   195  THR195      0.0379
     87  N         12.1190  -28.9410    1.6520 N.am  196  GLU196     -0.1963
     88  CA        12.4620  -28.5960    3.0480 C.3   196  GLU196      0.1733
     89  C         12.0720  -29.7320    4.0090 C.2   196  GLU196      0.2616
     90  O         12.7350  -29.9670    4.9590 O.2   196  GLU196     -0.2715
     91  CB        11.7630  -27.2840    3.4250 C.3   196  GLU196      0.0429
     92  CG        12.2850  -26.0680    2.6330 C.3   196  GLU196      0.1163
     93  CD        13.7520  -25.7670    2.9620 C.2   196  GLU196      0.3649
     94  OE1       14.1750  -25.9890    4.1090 O.co2 196  GLU196     -0.2457
     95  OE2       14.4550  -25.2440    2.1060 O.co2 196  GLU196     -0.2457
     96  N         10.9540  -30.4130    3.7260 N.am  197  GLU197     -0.1977
     97  CA        10.5570  -31.5410    4.5050 C.3   197  GLU197      0.1602
     98  C         11.4660  -32.7110    4.3160 C.2   197  GLU197      0.2287
     99  O         11.7420  -33.4450    5.2670 O.2   197  GLU197     -0.2864
    100  CB         9.0950  -31.8800    4.2400 C.3   197  GLU197      0.0415
    101  CG         8.2080  -30.9210    5.0550 C.3   197  GLU197      0.1163
    102  CD         6.7340  -31.0450    4.7760 C.2   197  GLU197      0.3649
    103  OE1        6.0300  -31.6150    5.6170 O.co2 197  GLU197     -0.2457
    104  OE2        6.3000  -30.5430    3.7310 O.co2 197  GLU197     -0.2457
@<TRIPOS>BOND
     1    68    67    1
     2    51    52    1
     3    53    52    1
     4    53    54    2
     5    63    64    1
     6    52    55    1
     7    67    64    1
     8    67    69    1
     9    64    65    1
    10    55    56    1
    11    56    57   ar
    12    56    58   ar
    13    65    66    2
    14    65    70   am
    15    57    59   ar
    16    58    60   ar
    17    59    61   ar
    18    86    84    1
    19    60    61   ar
    20    70    71    1
    21    61    62    1
    22    78    76   ar
    23    78    79   ar
    24    76    75   ar
    25    79    77   ar
    26    84    85    1
    27    84    81    1
    28    71    72    1
    29    71    74    1
    30    80    81    1
    31    80    72   am
    32    75    77   ar
    33    75    74    1
    34    81    82    1
    35    72    73    2
    36    82    83    2
    37    82    87   am
    38    10    11    1
    39    10     9    1
    40    10    13    1
    41    14    13    1
    42    11    12    2
    43    87    88    1
    44    95    93   ar
    45    92    93    1
    46    92    91    1
    47    93    94   ar
    48    88    91    1
    49    88    89    1
    50     7     6   ar
    51     8     6   ar
    52    96    89   am
    53    96    97    1
    54   104   102   ar
    55     6     5    1
    56    89    90    2
    57   100    97    1
    58   100   101    1
    59    98    97    1
    60    98    99    2
    61    49    48    1
    62    50    48    1
    63   102   101    1
    64   102   103   ar
    65    48    47    2
    66    39    37   ar
    67    39    38   ar
    68     5     2    1
    69    37    35   ar
    70    47    46    1
    71    38    36   ar
    72     3     4    2
    73     3     2    1
    74    46    45    1
    75     2     1    1
    76    18    17    2
    77    35    36   ar
    78    35    34    1
    79    15    16    1
    80    28    27   ar
    81    45    44    1
    82    17    16    1
    83    17    22   am
    84    27    29   ar
    85    27    26    1
    86    34    31    1
    87    23    26    1
    88    23    22    1
    89    23    24    1
    90    30    24   am
    91    30    31    1
    92    16    19    1
    93    44    41    1
    94    24    25    2
    95    31    32    1
    96    19    21    1
    97    19    20    1
    98    40    32   am
    99    40    41    1
   100    32    33    2
   101    41    42    1
   102    42    43    2
