@<TRIPOS>MOLECULE
tmp/4nx0C00.pdb
 104 102 0 0 0
SMALL
GASTEIGER

@<TRIPOS>ATOM
      1  N        -14.9770  -31.4370   -2.9080 N.3   141  ASP141     -0.1239
      2  CA       -13.8950  -31.7990   -3.7670 C.3   141  ASP141      0.1674
      3  C        -12.7780  -32.2050   -2.8360 C.2   141  ASP141      0.2266
      4  O        -12.6250  -31.6040   -1.8600 O.2   141  ASP141     -0.2867
      5  CB       -13.5120  -30.6150   -4.6280 C.3   141  ASP141      0.1410
      6  CG       -12.7860  -31.0050   -5.8850 C.2   141  ASP141      0.3668
      7  OD1      -11.7270  -31.6140   -5.8610 O.co2 141  ASP141     -0.2456
      8  OD2      -13.3110  -30.7050   -6.9330 O.co2 141  ASP141     -0.2456
      9  N         -9.3420  -29.3360   -3.8390 N.3   144  SER144     -0.1217
     10  CA        -9.7210  -27.9750   -4.1480 C.3   144  SER144      0.1889
     11  C         -9.7360  -27.1370   -2.8550 C.2   144  SER144      0.2288
     12  O        -10.5240  -27.3860   -1.9720 O.2   144  SER144     -0.2866
     13  CB       -11.0900  -27.9100   -4.7980 C.3   144  SER144      0.2089
     14  OG       -11.3300  -26.6120   -5.3250 O.3   144  SER144     -0.2183
     15  N        -16.5630  -27.2650   -3.5460 N.3   155  VAL155     -0.1231
     16  CA       -17.6780  -28.0810   -3.7580 C.3   155  VAL155      0.1692
     17  C        -17.6290  -28.6390   -5.1740 C.2   155  VAL155      0.2592
     18  O        -17.4450  -27.9170   -6.1630 O.2   155  VAL155     -0.2718
     19  CB       -18.9670  -27.2980   -3.5680 C.3   155  VAL155      0.0266
     20  CG1      -20.1880  -28.0480   -3.9790 C.3   155  VAL155      0.0020
     21  CG2      -19.1130  -26.9540   -2.1060 C.3   155  VAL155      0.0020
     22  N        -17.8840  -29.9340   -5.2520 N.am  156  ASP156     -0.1960
     23  CA       -17.8900  -30.6580   -6.5220 C.3   156  ASP156      0.1840
     24  C        -19.2890  -30.7530   -7.1520 C.2   156  ASP156      0.2622
     25  O        -20.1450  -31.5330   -6.6780 O.2   156  ASP156     -0.2715
     26  CB       -17.4260  -32.0660   -6.2250 C.3   156  ASP156      0.1450
     27  CG       -17.2420  -32.9310   -7.5040 C.2   156  ASP156      0.3671
     28  OD1      -17.6940  -32.5610   -8.5890 O.co2 156  ASP156     -0.2456
     29  OD2      -16.7130  -34.0140   -7.3130 O.co2 156  ASP156     -0.2456
     30  N        -19.5180  -29.9800   -8.2260 N.am  157  HIS157     -0.1959
     31  CA       -20.7990  -29.8640   -8.8690 C.3   157  HIS157      0.1787
     32  C        -21.3400  -31.1900   -9.3910 C.2   157  HIS157      0.2620
     33  O        -22.5210  -31.2850   -9.7130 O.2   157  HIS157     -0.2715
     34  CB       -20.7610  -28.9040  -10.0520 C.3   157  HIS157      0.0785
     35  CG       -20.0710  -29.4700  -11.2540 C.ar  157  HIS157      0.0821
     36  ND1      -20.7630  -29.9470  -12.3450 N.ar  157  HIS157     -0.2267
     37  CD2      -18.7530  -29.6410  -11.5320 C.ar  157  HIS157      0.1154
     38  CE1      -19.9060  -30.3780  -13.2560 C.ar  157  HIS157      0.1986
     39  NE2      -18.6780  -30.1940  -12.7910 N.ar  157  HIS157     -0.2212
     40  N        -20.5250  -32.1960   -9.5470 N.am  158  ARG158     -0.1977
     41  CA       -21.0020  -33.4740   -9.9810 C.3   158  ARG158      0.1597
     42  C        -21.7140  -34.2610   -8.8910 C.2   158  ARG158      0.2287
     43  O        -22.3760  -35.2000   -9.1560 O.2   158  ARG158     -0.2864
     44  CB       -19.8620  -34.2870  -10.5410 C.3   158  ARG158      0.0334
     45  CG       -19.2440  -33.6950  -11.7660 C.3   158  ARG158      0.0492
     46  CD       -18.0250  -34.4650  -12.1050 C.3   158  ARG158      0.2205
     47  NE       -16.8030  -33.8640  -11.6150 N.pl3 158  ARG158     -0.0865
     48  CZ       -15.9970  -34.3820  -10.6910 C.cat 158  ARG158      0.5346
     49  NH1      -16.2780  -35.5180  -10.0570 N.pl3 158  ARG158      0.1354
     50  NH2      -14.9050  -33.7340  -10.3820 N.pl3 158  ARG158      0.1354
     51  N         -5.3700  -23.5560   -9.0790 N.3   192  TYR192     -0.1241
     52  CA        -6.4260  -24.1860   -9.9090 C.3   192  TYR192      0.1605
     53  C         -7.0210  -23.3050  -10.9960 C.2   192  TYR192      0.2264
     54  O         -7.7840  -23.7890  -11.8050 O.2   192  TYR192     -0.2867
     55  CB        -7.5690  -24.6080   -9.0160 C.3   192  TYR192      0.0534
     56  CG        -7.1830  -25.5680   -7.9040 C.ar  192  TYR192     -0.0201
     57  CD1       -6.9180  -26.9100   -8.1570 C.ar  192  TYR192     -0.0009
     58  CD2       -7.0670  -25.1270   -6.6130 C.ar  192  TYR192     -0.0009
     59  CE1       -6.6050  -27.7850   -7.0950 C.ar  192  TYR192      0.0417
     60  CE2       -6.6940  -25.9560   -5.5700 C.ar  192  TYR192      0.0417
     61  CZ        -6.4300  -27.2640   -5.8150 C.ar  192  TYR192      0.1957
     62  OH        -6.1380  -28.1180   -4.7730 O.3   192  TYR192     -0.2866
     63  N         -9.5490  -20.5310  -12.7250 N.3   194  THR194     -0.1203
     64  CA       -10.8790  -19.9900  -12.4730 C.3   194  THR194      0.1994
     65  C        -11.7960  -21.1530  -12.1180 C.2   194  THR194      0.2618
     66  O        -11.8220  -22.1530  -12.8140 O.2   194  THR194     -0.2717
     67  CB       -11.3950  -19.2520  -13.7330 C.3   194  THR194      0.1784
     68  OG1      -10.5210  -18.1550  -13.9990 O.3   194  THR194     -0.2211
     69  CG2      -12.7790  -18.7320  -13.4960 C.3   194  THR194      0.0376
     70  N        -12.5690  -21.0160  -11.0430 N.am  195  HIS195     -0.1961
     71  CA       -13.5290  -22.0480  -10.6470 C.3   195  HIS195      0.1787
     72  C        -14.8860  -21.9150  -11.3340 C.2   195  HIS195      0.2621
     73  O        -15.8330  -21.3750  -10.7710 O.2   195  HIS195     -0.2715
     74  CB       -13.6520  -22.0660   -9.1430 C.3   195  HIS195      0.0785
     75  CG       -12.3770  -22.4250   -8.4440 C.ar  195  HIS195      0.0821
     76  ND1      -11.8960  -23.6950   -8.4300 N.ar  195  HIS195     -0.2267
     77  CD2      -11.4820  -21.6850   -7.7440 C.ar  195  HIS195      0.1154
     78  CE1      -10.7630  -23.7380   -7.7670 C.ar  195  HIS195      0.1986
     79  NE2      -10.5100  -22.5380   -7.3020 N.ar  195  HIS195     -0.2212
     80  N        -14.9320  -22.3700  -12.5860 N.am  196  THR196     -0.1937
     81  CA       -15.9770  -22.0360  -13.4780 C.3   196  THR196      0.2028
     82  C        -17.2650  -22.7480  -13.0670 C.2   196  THR196      0.2642
     83  O        -18.3570  -22.1510  -13.1230 O.2   196  THR196     -0.2714
     84  CB       -15.6480  -22.3740  -14.9440 C.3   196  THR196      0.1808
     85  OG1      -15.4520  -23.7640  -15.0530 O.3   196  THR196     -0.2208
     86  CG2      -14.4240  -21.7320  -15.3840 C.3   196  THR196      0.0379
     87  N        -17.1600  -23.9540  -12.5620 N.am  197  GLU197     -0.1963
     88  CA       -18.3670  -24.7160  -12.2630 C.3   197  GLU197      0.1733
     89  C        -19.1030  -24.1390  -11.0280 C.2   197  GLU197      0.2616
     90  O        -20.3330  -24.1170  -10.9890 O.2   197  GLU197     -0.2715
     91  CB       -18.0690  -26.2210  -12.0930 C.3   197  GLU197      0.0429
     92  CG       -17.5410  -26.8980  -13.3440 C.3   197  GLU197      0.1163
     93  CD       -18.6230  -26.9890  -14.4310 C.2   197  GLU197      0.3649
     94  OE1      -19.8190  -27.0160  -14.1390 O.co2 197  GLU197     -0.2457
     95  OE2      -18.3190  -26.9230  -15.6250 O.co2 197  GLU197     -0.2457
     96  N        -18.3440  -23.6460  -10.0590 N.am  198  GLU198     -0.1977
     97  CA       -18.9300  -23.0590   -8.8930 C.3   198  GLU198      0.1602
     98  C        -19.5340  -21.6820   -9.1990 C.2   198  GLU198      0.2287
     99  O        -20.5760  -21.3330   -8.6580 O.2   198  GLU198     -0.2864
    100  CB       -17.9360  -23.0330   -7.7410 C.3   198  GLU198      0.0415
    101  CG       -17.9430  -24.4160   -7.0560 C.3   198  GLU198      0.1163
    102  CD       -16.8470  -24.6290   -6.0130 C.2   198  GLU198      0.3649
    103  OE1      -17.1940  -24.5550   -4.8440 O.co2 198  GLU198     -0.2457
    104  OE2      -15.6830  -24.7350   -6.4170 O.co2 198  GLU198     -0.2457
@<TRIPOS>BOND
     1    95    93   ar
     2    86    84    1
     3    85    84    1
     4    84    81    1
     5    93    94   ar
     6    93    92    1
     7    68    67    1
     8    67    69    1
     9    67    64    1
    10    81    82    1
    11    81    80    1
    12    92    91    1
    13    38    39   ar
    14    38    36   ar
    15    83    82    2
    16    82    87   am
    17    66    65    2
    18    39    37   ar
    19    63    64    1
    20    80    72   am
    21    87    88    1
    22    64    65    1
    23    36    35   ar
    24    88    91    1
    25    88    89    1
    26    65    70   am
    27    46    45    1
    28    46    47    1
    29    54    53    2
    30    45    44    1
    31    47    48    2
    32    37    35   ar
    33    72    73    2
    34    72    71    1
    35    35    34    1
    36    70    71    1
    37    89    90    2
    38    89    96   am
    39    53    52    1
    40    48    50    1
    41    48    49    1
    42    71    74    1
    43    44    41    1
    44    96    97    1
    45    34    31    1
    46    41    40    1
    47    41    42    1
    48    52    51    1
    49    52    55    1
    50    33    32    2
    51    40    32   am
    52    32    31    1
    53    98    97    1
    54    98    99    2
    55    43    42    2
    56    74    75    1
    57    55    56    1
    58    97   100    1
    59    31    30    1
    60    28    27   ar
    61    75    76   ar
    62    75    77   ar
    63    76    78   ar
    64    30    24   am
    65    57    56   ar
    66    57    59   ar
    67    56    58   ar
    68    78    79   ar
    69    77    79   ar
    70   100   101    1
    71    27    29   ar
    72    27    26    1
    73    24    25    2
    74    24    23    1
    75    59    61   ar
    76   101   102    1
    77     8     6   ar
    78    58    60   ar
    79    23    26    1
    80    23    22    1
    81   104   102   ar
    82    18    17    2
    83   102   103   ar
    84     6     7   ar
    85     6     5    1
    86    61    60   ar
    87    61    62    1
    88    14    13    1
    89    22    17   am
    90    17    16    1
    91    13    10    1
    92     5     2    1
    93    10     9    1
    94    10    11    1
    95    20    19    1
    96     2     1    1
    97     2     3    1
    98    16    19    1
    99    16    15    1
   100    19    21    1
   101    11    12    2
   102     3     4    2
