@<TRIPOS>MOLECULE
tmp/4nx2A00.pdb
 130 121 0 0 0
SMALL
GASTEIGER

@<TRIPOS>ATOM
      1  N         18.3390  -21.1140   -2.0170 N.3    32  LEU32      -0.1245
      2  CA        17.5900  -19.8620   -2.0260 C.3    32  LEU32       0.1561
      3  C         16.8570  -19.6320   -3.3340 C.2    32  LEU32       0.2260
      4  O         17.1940  -20.2120   -4.3660 O.2    32  LEU32      -0.2867
      5  CB        18.4700  -18.6550   -1.6460 C.3    32  LEU32       0.0270
      6  CG        19.4400  -17.9280   -2.5850 C.3    32  LEU32       0.0019
      7  CD1       18.7520  -17.1290   -3.6710 C.3    32  LEU32       0.0001
      8  CD2       20.3310  -16.9860   -1.7760 C.3    32  LEU32       0.0001
      9  N         15.0160  -15.8340   -4.9950 N.3    34  GLY34      -0.1210
     10  CA        14.6440  -14.4590   -4.7280 C.3    34  GLY34       0.1956
     11  C         13.4360  -14.0430   -5.5550 C.2    34  GLY34       0.2612
     12  O         13.2640  -14.5020   -6.6830 O.2    34  GLY34      -0.2717
     13  N         12.5940  -13.1810   -4.9970 N.am   35  PHE35      -0.1962
     14  CA        11.4750  -12.6130   -5.7360 C.3    35  PHE35       0.1771
     15  C         11.4350  -11.0920   -5.5890 C.2    35  PHE35       0.2619
     16  O         11.5280  -10.5830   -4.4680 O.2    35  PHE35      -0.2715
     17  CB        10.1480  -13.1220   -5.1700 C.3    35  PHE35       0.0574
     18  CG         9.9260  -14.5960   -5.3170 C.ar   35  PHE35      -0.0200
     19  CD1        9.5710  -15.1450   -6.5400 C.ar   35  PHE35      -0.0042
     20  CD2       10.0290  -15.4280   -4.2180 C.ar   35  PHE35      -0.0042
     21  CE1        9.3430  -16.5100   -6.6620 C.ar   35  PHE35      -0.0003
     22  CE2        9.8020  -16.7890   -4.3320 C.ar   35  PHE35      -0.0003
     23  CZ         9.4560  -17.3300   -5.5580 C.ar   35  PHE35      -0.0000
     24  N         11.2600  -10.3660   -6.6930 N.am   36  GLU36      -0.1977
     25  CA        10.8180   -8.9840   -6.5760 C.3    36  GLU36       0.1602
     26  C          9.4270   -9.0400   -5.9540 C.2    36  GLU36       0.2287
     27  O          8.5730   -9.7840   -6.4350 O.2    36  GLU36      -0.2864
     28  CB        10.7450   -8.3170   -7.9520 C.3    36  GLU36       0.0415
     29  CG        12.1210   -8.1670   -8.6360 C.3    36  GLU36       0.1163
     30  CD        12.0710   -7.3130   -9.8920 C.2    36  GLU36       0.3649
     31  OE1       11.1240   -6.5060  -10.0170 O.co2  36  GLU36      -0.2457
     32  OE2       12.9770   -7.4470  -10.7490 O.co2  36  GLU36      -0.2457
     33  N         14.7160  -14.7280   -0.5860 N.3    65  ILE65      -0.1245
     34  CA        15.1130  -13.3300   -0.6570 C.3    65  ILE65       0.1561
     35  C         13.9280  -12.5000   -1.1530 C.2    65  ILE65       0.2260
     36  O         13.4130  -12.7310   -2.2510 O.2    65  ILE65      -0.2867
     37  CB        16.3060  -13.1210   -1.6000 C.3    65  ILE65       0.0252
     38  CG1       17.5380  -13.8790   -1.0890 C.3    65  ILE65       0.0019
     39  CG2       16.6290  -11.6200   -1.7410 C.3    65  ILE65       0.0019
     40  CD1       18.3150  -13.1370   -0.0320 C.3    65  ILE65       0.0001
     41  N         13.4120   -9.3850   -2.7160 N.3    67  ALA67      -0.1245
     42  CA        14.3730   -8.5200   -3.4080 C.3    67  ALA67       0.1562
     43  C         13.8730   -7.0810   -3.5130 C.2    67  ALA67       0.2260
     44  O         13.5120   -6.6100   -4.6030 O.2    67  ALA67      -0.2867
     45  CB        14.6740   -9.0740   -4.7850 C.3    67  ALA67       0.0290
     46  N         15.5290   -4.1450   -2.9890 N.3    69  LEU69      -0.1231
     47  CA        16.4260   -3.2470   -3.7060 C.3    69  LEU69       0.1693
     48  C         16.3780   -3.5800   -5.1870 C.2    69  LEU69       0.2592
     49  O         16.3220   -2.6810   -6.0380 O.2    69  LEU69      -0.2718
     50  CB        17.8530   -3.3650   -3.1680 C.3    69  LEU69       0.0284
     51  CG        18.4330   -2.1090   -2.5170 C.3    69  LEU69       0.0019
     52  CD1       17.3400   -1.2440   -1.9130 C.3    69  LEU69       0.0001
     53  CD2       19.4450   -2.4840   -1.4420 C.3    69  LEU69       0.0001
     54  N         16.3740   -4.8780   -5.4870 N.am   70  GLY70      -0.1957
     55  CA        16.2270   -5.3440   -6.8560 C.3    70  GLY70       0.1869
     56  C         14.9840   -4.7680   -7.5140 C.2    70  GLY70       0.2309
     57  O         15.0460   -4.2080   -8.6160 O.2    70  GLY70      -0.2863
     58  N         16.6730   -8.1980    0.4960 N.3   105  GLY105     -0.1225
     59  CA        17.9330   -7.9890   -0.1880 C.3   105  GLY105      0.1811
     60  C         18.6500   -6.7680    0.3600 C.2   105  GLY105      0.2280
     61  O         19.8730   -6.7350    0.4180 O.2   105  GLY105     -0.2866
     62  N         14.6010   -9.8540  -17.8850 N.3   137  ILE137     -0.1245
     63  CA        14.2590   -9.3890  -16.5710 C.3   137  ILE137      0.1561
     64  C         13.9050   -7.9060  -16.4790 C.2   137  ILE137      0.2260
     65  O         12.9550   -7.5620  -15.8620 O.2   137  ILE137     -0.2867
     66  CB        15.3920   -9.7250  -15.5950 C.3   137  ILE137      0.0252
     67  CG1       15.4850  -11.2200  -15.4290 C.3   137  ILE137      0.0019
     68  CG2       15.2430   -9.0460  -14.2450 C.3   137  ILE137      0.0019
     69  CD1       16.7080  -11.6800  -14.7530 C.3   137  ILE137      0.0001
     70  N         21.7290   -4.4550  -10.7330 N.3   151  TYR151     -0.1241
     71  CA        20.7870   -5.5280  -10.3760 C.3   151  TYR151      0.1605
     72  C         21.3990   -6.9430  -10.3990 C.2   151  TYR151      0.2264
     73  O         21.3460   -7.6470   -9.3850 O.2   151  TYR151     -0.2867
     74  CB        19.5500   -5.4290  -11.2860 C.3   151  TYR151      0.0534
     75  CG        18.3780   -6.3740  -11.0250 C.ar  151  TYR151     -0.0201
     76  CD1       18.4670   -7.7400  -11.2910 C.ar  151  TYR151     -0.0009
     77  CD2       17.1570   -5.8750  -10.5950 C.ar  151  TYR151     -0.0009
     78  CE1       17.3770   -8.5900  -11.0900 C.ar  151  TYR151      0.0417
     79  CE2       16.0690   -6.7080  -10.3930 C.ar  151  TYR151      0.0417
     80  CZ        16.1780   -8.0610  -10.6410 C.ar  151  TYR151      0.1957
     81  OH        15.0740   -8.8690  -10.4360 O.3   151  TYR151     -0.2866
     82  N         23.9510   -7.5220   -7.6650 N.3   154  MET154     -0.1230
     83  CA        23.2470   -7.6600   -6.3930 C.3   154  MET154      0.1702
     84  C         22.8080   -9.0930   -6.1440 C.2   154  MET154      0.2592
     85  O         22.9670   -9.6370   -5.0530 O.2   154  MET154     -0.2718
     86  CB        22.0070   -6.7550   -6.3660 C.3   154  MET154      0.0401
     87  CG        22.3170   -5.2770   -6.4470 C.3   154  MET154      0.0596
     88  SD        23.6280   -4.8310   -5.3010 S.3   154  MET154     -0.1393
     89  CE        22.9170   -5.4100   -3.7680 C.3   154  MET154      0.0692
     90  N         22.2210   -9.6940   -7.1700 N.am  155  GLN155     -0.1979
     91  CA        21.7040  -11.0510   -7.0440 C.3   155  GLN155      0.1601
     92  C         22.8450  -12.0430   -6.8390 C.2   155  GLN155      0.2287
     93  O         22.7410  -12.9700   -6.0280 O.2   155  GLN155     -0.2864
     94  CB        20.8860  -11.4100   -8.2890 C.3   155  GLN155      0.0394
     95  CG        20.0420  -12.6740   -8.1330 C.3   155  GLN155      0.0908
     96  CD        18.9630  -12.8010   -9.2020 C.2   155  GLN155      0.2608
     97  OE1       18.5060  -11.8010   -9.7550 O.2   155  GLN155     -0.2717
     98  NE2       18.5530  -14.0340   -9.4940 N.am  155  GLN155     -0.0878
     99  N         23.9560  -11.7520   -3.2330 N.3   158  SER158     -0.1202
    100  CA        23.0690  -12.3660   -2.2500 C.3   158  SER158      0.2020
    101  C         23.2920  -13.8750   -2.2080 C.2   158  SER158      0.2618
    102  O         23.2890  -14.4690   -1.1310 O.2   158  SER158     -0.2717
    103  CB        21.5980  -12.0450   -2.5400 C.3   158  SER158      0.2103
    104  OG        21.1130  -12.8510   -3.5920 O.3   158  SER158     -0.2182
    105  N         23.4980  -14.4910   -3.3710 N.am  159  ILE159     -0.1979
    106  CA        23.8180  -15.9190   -3.4140 C.3   159  ILE159      0.1595
    107  C         25.0810  -16.1960   -2.5840 C.2   159  ILE159      0.2287
    108  O         25.1130  -17.1210   -1.7670 O.2   159  ILE159     -0.2864
    109  CB        24.0410  -16.4130   -4.8660 C.3   159  ILE159      0.0276
    110  CG1       22.6980  -16.5240   -5.6040 C.3   159  ILE159      0.0022
    111  CG2       24.7730  -17.7520   -4.8790 C.3   159  ILE159      0.0022
    112  CD1       22.8290  -16.7130   -7.1060 C.3   159  ILE159      0.0001
    113  N         14.3830  -17.4890  -16.8570 N.3   172  GLU172     -0.1231
    114  CA        14.8450  -16.1290  -17.1450 C.3   172  GLU172      0.1699
    115  C         16.0670  -15.7250  -16.2930 C.2   172  GLU172      0.2592
    116  O         16.8470  -14.8480  -16.6830 O.2   172  GLU172     -0.2718
    117  CB        13.6990  -15.1200  -16.9810 C.3   172  GLU172      0.0402
    118  CG        13.3500  -14.7800  -15.5330 C.3   172  GLU172      0.1161
    119  CD        12.4760  -15.8420  -14.8600 C.2   172  GLU172      0.3649
    120  OE1       11.8440  -16.6390  -15.6000 O.co2 172  GLU172     -0.2457
    121  OE2       12.4150  -15.8640  -13.6000 O.co2 172  GLU172     -0.2457
    122  N         16.2380  -16.3800  -15.1450 N.am  173  GLN173     -0.1979
    123  CA        17.3910  -16.1310  -14.2640 C.3   173  GLN173      0.1601
    124  C         18.6840  -16.8310  -14.6950 C.2   173  GLN173      0.2287
    125  O         19.7030  -16.6990  -14.0130 O.2   173  GLN173     -0.2864
    126  CB        17.0850  -16.5930  -12.8260 C.3   173  GLN173      0.0394
    127  CG        15.7890  -16.0570  -12.2180 C.3   173  GLN173      0.0908
    128  CD        15.7720  -14.5470  -12.1610 C.2   173  GLN173      0.2608
    129  OE1       16.7380  -13.9290  -11.7100 O.2   173  GLN173     -0.2717
    130  NE2       14.6830  -13.9400  -12.6340 N.am  173  GLN173     -0.0878
@<TRIPOS>BOND
     1    62    63    1
     2   114   117    1
     3   114   113    1
     4   114   115    1
     5   117   118    1
     6   116   115    2
     7    63    64    1
     8    63    66    1
     9    64    65    2
    10   115   122   am
    11   120   119   ar
    12    66    67    1
    13    66    68    1
    14   118   119    1
    15    67    69    1
    16   122   123    1
    17   119   121   ar
    18   124   123    1
    19   124   125    2
    20   123   126    1
    21   126   127    1
    22   130   128   am
    23   127   128    1
    24   128   129    2
    25    76    78   ar
    26    76    75   ar
    27    74    75    1
    28    74    71    1
    29    78    80   ar
    30    75    77   ar
    31    32    30   ar
    32    70    71    1
    33    80    81    1
    34    80    79   ar
    35    77    79   ar
    36    72    71    1
    37    72    73    2
    38    31    30   ar
    39    30    29    1
    40    97    96    2
    41    98    96   am
    42    96    95    1
    43    29    28    1
    44    57    56    2
    45    94    95    1
    46    94    91    1
    47    28    25    1
    48    82    83    1
    49    56    55    1
    50    90    91    1
    51    90    84   am
    52   112   110    1
    53    91    92    1
    54    55    54    1
    55    92    93    2
    56    24    25    1
    57    24    15   am
    58    12    11    2
    59    21    19   ar
    60    21    23   ar
    61    25    26    1
    62    19    18   ar
    63    87    86    1
    64    87    88    1
    65    27    26    2
    66    83    86    1
    67    83    84    1
    68    84    85    2
    69    49    48    2
    70    14    15    1
    71    14    17    1
    72    14    13    1
    73   110   109    1
    74    15    16    2
    75    23    22   ar
    76    11    13   am
    77    11    10    1
    78    54    48   am
    79    18    17    1
    80    18    20   ar
    81    88    89    1
    82    48    47    1
    83     9    10    1
    84   111   109    1
    85   109   106    1
    86    45    42    1
    87    44    43    2
    88     4     3    2
    89    22    20   ar
    90    47    50    1
    91    47    46    1
    92     7     6    1
    93   104   103    1
    94    43    42    1
    95   106   105    1
    96   106   107    1
    97    42    41    1
    98   105   101   am
    99     3     2    1
   100    99   100    1
   101    50    51    1
   102     6     8    1
   103     6     5    1
   104   107   108    2
   105   103   100    1
   106    51    52    1
   107    51    53    1
   108    36    35    2
   109   100   101    1
   110   101   102    2
   111     2     1    1
   112     2     5    1
   113    39    37    1
   114    37    38    1
   115    37    34    1
   116    35    34    1
   117    38    40    1
   118    34    33    1
   119    59    60    1
   120    59    58    1
   121    60    61    2
