@<TRIPOS>MOLECULE
tmp/4nx4A00.pdb
 145 140 0 0 0
SMALL
GASTEIGER

@<TRIPOS>ATOM
      1  N        -26.3250    1.2710   -5.1870 N.3    23  TRP23      -0.1227
      2  CA       -25.8270    2.6360   -5.1290 C.3    23  TRP23       0.1737
      3  C        -26.9170    3.6340   -4.7180 C.2    23  TRP23       0.2595
      4  O        -26.6950    4.4630   -3.8610 O.2    23  TRP23      -0.2718
      5  CB       -25.2180    3.0090   -6.4830 C.3    23  TRP23       0.0564
      6  CG       -24.8370    4.4510   -6.6620 C.ar   23  TRP23       0.0003
      7  CD1      -25.2910    5.2870   -7.6360 C.ar   23  TRP23       0.0946
      8  CD2      -23.8910    5.2100   -5.8900 C.ar   23  TRP23       0.0152
      9  NE1      -24.6980    6.5160   -7.5240 N.ar   23  TRP23      -0.2442
     10  CE2      -23.8360    6.5020   -6.4570 C.ar   23  TRP23       0.0810
     11  CE3      -23.1010    4.9310   -4.7670 C.ar   23  TRP23       0.0012
     12  CZ2      -23.0220    7.5110   -5.9420 C.ar   23  TRP23       0.0191
     13  CZ3      -22.2910    5.9420   -4.2520 C.ar   23  TRP23       0.0001
     14  CH2      -22.2700    7.2120   -4.8290 C.ar   23  TRP23       0.0015
     15  N        -28.0970    3.5400   -5.3150 N.am   24  VAL24      -0.1980
     16  CA       -29.1910    4.4320   -4.9670 C.3    24  VAL24       0.1595
     17  C        -29.5530    4.2720   -3.5000 C.2    24  VAL24       0.2287
     18  O        -29.7480    5.2640   -2.7840 O.2    24  VAL24      -0.2864
     19  CB       -30.4330    4.1720   -5.8560 C.3    24  VAL24       0.0276
     20  CG1      -31.6680    4.8740   -5.3130 C.3    24  VAL24       0.0022
     21  CG2      -30.1540    4.6370   -7.2700 C.3    24  VAL24       0.0022
     22  N        -26.9250    5.8240   -1.1600 N.3    27  VAL27      -0.1231
     23  CA       -27.0060    7.2630   -1.1690 C.3    27  VAL27       0.1692
     24  C        -28.2140    7.7310   -0.3890 C.2    27  VAL27       0.2591
     25  O        -28.1500    8.7770    0.2620 O.2    27  VAL27      -0.2718
     26  CB       -27.0590    7.7880   -2.5990 C.3    27  VAL27       0.0266
     27  CG1      -27.3090    9.2940   -2.6250 C.3    27  VAL27       0.0020
     28  CG2      -25.7480    7.4430   -3.3120 C.3    27  VAL27       0.0020
     29  N        -29.3070    6.9760   -0.4220 N.am   28  GLU28      -0.1979
     30  CA       -30.4690    7.3140    0.4190 C.3    28  GLU28       0.1602
     31  C        -30.0810    7.3850    1.9070 C.2    28  GLU28       0.2287
     32  O        -30.6680    8.1540    2.6550 O.2    28  GLU28      -0.2864
     33  CB       -31.6130    6.2920    0.2640 C.3    28  GLU28       0.0415
     34  CG       -31.9300    6.0060   -1.2200 C.3    28  GLU28       0.1163
     35  CD       -33.4060    5.9860   -1.6040 C.2    28  GLU28       0.3649
     36  OE1      -33.7310    6.5010   -2.7040 O.co2  28  GLU28      -0.2457
     37  OE2      -34.2230    5.4190   -0.8440 O.co2  28  GLU28      -0.2457
     38  N        -25.6990    9.8010    2.1350 N.3    31  ALA31      -0.1231
     39  CA       -25.4830   10.8470    1.1370 C.3    31  ALA31       0.1694
     40  C        -24.3880   11.8600    1.4690 C.2    31  ALA31       0.2592
     41  O        -23.5700   12.2370    0.6120 O.2    31  ALA31      -0.2718
     42  CB       -26.7810   11.5760    0.9390 C.3    31  ALA31       0.0304
     43  N        -24.4090   12.3370    2.7020 N.am   32  PHE32      -0.1976
     44  CA       -23.4960   13.3810    3.1180 C.3    32  PHE32       0.1639
     45  C        -22.5060   12.8550    4.1320 C.2    32  PHE32       0.2290
     46  O        -21.8740   13.6300    4.8440 O.2    32  PHE32      -0.2864
     47  CB       -24.2900   14.5610    3.6830 C.3    32  PHE32       0.0560
     48  CG       -25.3890   15.0130    2.7820 C.ar   32  PHE32      -0.0200
     49  CD1      -25.1030   15.6420    1.5900 C.ar   32  PHE32      -0.0042
     50  CD2      -26.7050   14.7840    3.1080 C.ar   32  PHE32      -0.0042
     51  CE1      -26.1210   16.0530    0.7430 C.ar   32  PHE32      -0.0003
     52  CE2      -27.7250   15.1930    2.2690 C.ar   32  PHE32      -0.0003
     53  CZ       -27.4340   15.8230    1.0880 C.ar   32  PHE32      -0.0000
     54  N        -19.8200    7.3880    1.9420 N.3    36  VAL36      -0.1245
     55  CA       -20.3090    7.3390    0.5710 C.3    36  VAL36       0.1561
     56  C        -19.1530    7.1410   -0.4110 C.2    36  VAL36       0.2260
     57  O        -19.3270    6.5260   -1.4590 O.2    36  VAL36      -0.2867
     58  CB       -21.1070    8.6060    0.2060 C.3    36  VAL36       0.0252
     59  CG1      -20.1980    9.8400    0.1540 C.3    36  VAL36       0.0019
     60  CG2      -21.8320    8.4170   -1.1190 C.3    36  VAL36       0.0019
     61  N        -24.1290    8.1650  -11.5620 N.3    56  LEU56      -0.1231
     62  CA       -24.4880    9.5210  -11.1510 C.3    56  LEU56       0.1693
     63  C        -25.9110    9.8800  -11.5890 C.2    56  LEU56       0.2592
     64  O        -26.6300   10.5460  -10.8550 O.2    56  LEU56      -0.2718
     65  CB       -23.4860   10.5370  -11.6990 C.3    56  LEU56       0.0284
     66  CG       -22.0730   10.3750  -11.1450 C.3    56  LEU56       0.0019
     67  CD1      -21.1700   11.4460  -11.7240 C.3    56  LEU56       0.0001
     68  CD2      -22.0630   10.3780   -9.5960 C.3    56  LEU56       0.0001
     69  N        -26.3020    9.4570  -12.7820 N.am   57  ASN57      -0.1960
     70  CA       -27.6410    9.7420  -13.2700 C.3    57  ASN57       0.1819
     71  C        -28.7290    9.1960  -12.3530 C.2    57  ASN57       0.2622
     72  O        -29.8350    9.7350  -12.3330 O.2    57  ASN57      -0.2715
     73  CB       -27.8670    9.1600  -14.6720 C.3    57  ASN57       0.1195
     74  CG       -27.1170    9.8840  -15.7550 C.2    57  ASN57       0.2630
     75  OD1      -26.7460   11.0450  -15.6170 O.2    57  ASN57      -0.2716
     76  ND2      -26.8960    9.1850  -16.8640 N.am   57  ASN57      -0.0877
     77  N        -28.4420    8.1210  -11.6130 N.am   58  THR58      -0.1937
     78  CA       -29.4790    7.4970  -10.7770 C.3    58  THR58       0.2028
     79  C        -29.6670    8.2110   -9.4560 C.2    58  THR58       0.2642
     80  O        -30.6310    7.9540   -8.7410 O.2    58  THR58      -0.2714
     81  CB       -29.1720    6.0470  -10.4500 C.3    58  THR58       0.1808
     82  OG1      -28.0350    5.9980   -9.5890 O.3    58  THR58      -0.2208
     83  CG2      -28.9060    5.2480  -11.7090 C.3    58  THR58       0.0379
     84  N        -28.7470    9.0930   -9.1120 N.am   59  VAL59      -0.1963
     85  CA       -28.8420    9.7780   -7.8380 C.3    59  VAL59       0.1727
     86  C        -28.9260   11.2600   -8.0960 C.2    59  VAL59       0.2617
     87  O        -28.4930   12.0630   -7.2840 O.2    59  VAL59      -0.2715
     88  CB       -27.6540    9.4240   -6.9190 C.3    59  VAL59       0.0290
     89  CG1      -27.7470    7.9540   -6.5450 C.3    59  VAL59       0.0023
     90  CG2      -26.3050    9.7540   -7.5890 C.3    59  VAL59       0.0023
     91  N        -29.4970   11.6250   -9.2370 N.am   60  GLY60      -0.1940
     92  CA       -29.6680   13.0230   -9.5800 C.3    60  GLY60       0.2014
     93  C        -30.9020   13.6430   -8.9450 C.2    60  GLY60       0.2639
     94  O        -31.5310   14.5140   -9.5420 O.2    60  GLY60      -0.2714
     95  N        -31.2460   13.2000   -7.7370 N.am   61  GLY61      -0.1939
     96  CA       -32.4250   13.6900   -7.0420 C.3    61  GLY61       0.2014
     97  C        -32.1530   14.8140   -6.0560 C.2    61  GLY61       0.2638
     98  O        -33.0040   15.1230   -5.2200 O.2    61  GLY61      -0.2714
     99  N        -30.9730   15.4250   -6.1460 N.am   62  HIS62      -0.1973
    100  CA       -30.6180   16.5480   -5.2770 C.3    62  HIS62       0.1656
    101  C        -29.7240   17.5240   -6.0320 C.2    62  HIS62       0.2291
    102  O        -28.5340   17.2710   -6.2260 O.2    62  HIS62      -0.2864
    103  CB       -29.9230   16.0450   -4.0080 C.3    62  HIS62       0.0771
    104  CG       -29.8730   17.0480   -2.8980 C.ar   62  HIS62       0.0820
    105  ND1      -29.7750   18.4050   -3.1180 N.ar   62  HIS62      -0.2267
    106  CD2      -29.9100   16.8860   -1.5540 C.ar   62  HIS62       0.1154
    107  CE1      -29.7520   19.0360   -1.9570 C.ar   62  HIS62       0.1986
    108  NE2      -29.8330   18.1370   -0.9920 N.ar   62  HIS62      -0.2212
    109  N        -26.3260   19.2310   -4.4120 N.3    65  ALA65      -0.1231
    110  CA       -25.1740   18.3510   -4.2400 C.3    65  ALA65       0.1694
    111  C        -24.6770   17.9160   -5.5980 C.2    65  ALA65       0.2591
    112  O        -23.4760   17.9100   -5.8450 O.2    65  ALA65      -0.2718
    113  CB       -25.5190   17.1440   -3.3860 C.3    65  ALA65       0.0304
    114  N        -25.6020   17.5660   -6.4870 N.am   66  MET66      -0.1979
    115  CA       -25.1990   17.1210   -7.8070 C.3    66  MET66       0.1605
    116  C        -24.5760   18.3000   -8.5660 C.2    66  MET66       0.2287
    117  O        -23.6350   18.1240   -9.3400 O.2    66  MET66      -0.2864
    118  CB       -26.3790   16.5310   -8.5780 C.3    66  MET66       0.0413
    119  CG       -26.0130   16.0450   -9.9840 C.3    66  MET66       0.0598
    120  SD       -24.7630   14.7240  -10.0330 S.3    66  MET66      -0.1393
    121  CE       -25.7290   13.4000   -9.3090 C.3    66  MET66       0.0692
    122  N        -21.0960   18.5910   -7.4580 N.3    69  LEU69      -0.1245
    123  CA       -20.3070   17.4980   -7.9970 C.3    69  LEU69       0.1561
    124  C        -19.9460   17.8080   -9.4490 C.2    69  LEU69       0.2260
    125  O        -18.7970   17.6550   -9.8620 O.2    69  LEU69      -0.2867
    126  CB       -21.0800   16.1860   -7.8830 C.3    69  LEU69       0.0270
    127  CG       -20.4400   14.9210   -8.4550 C.3    69  LEU69       0.0019
    128  CD1      -18.9540   14.7470   -8.0690 C.3    69  LEU69       0.0001
    129  CD2      -21.2310   13.6960   -8.0300 C.3    69  LEU69       0.0001
    130  N        -17.2990   14.3140   -4.1630 N.3   138  LEU138     -0.1245
    131  CA       -18.0580   13.7560   -3.0430 C.3   138  LEU138      0.1561
    132  C        -17.4870   14.2380   -1.7240 C.2   138  LEU138      0.2260
    133  O        -18.2210   14.5450   -0.8020 O.2   138  LEU138     -0.2867
    134  CB       -18.0510   12.2270   -3.0920 C.3   138  LEU138      0.0270
    135  CG       -18.7300   11.5620   -4.3020 C.3   138  LEU138      0.0019
    136  CD1      -18.5130   10.0590   -4.3240 C.3   138  LEU138      0.0001
    137  CD2      -20.1930   11.8190   -4.2850 C.3   138  LEU138      0.0001
    138  N        -18.7110   17.6420   -0.8930 N.3   141  ILE141     -0.1245
    139  CA       -20.1040   17.6530   -0.4570 C.3   141  ILE141      0.1561
    140  C        -20.2300   17.2240    1.0000 C.2   141  ILE141      0.2260
    141  O        -20.9470   17.8800    1.7650 O.2   141  ILE141     -0.2867
    142  CB       -20.9660   16.7440   -1.3580 C.3   141  ILE141      0.0252
    143  CG1      -21.0100   17.3280   -2.7690 C.3   141  ILE141      0.0019
    144  CG2      -22.3810   16.6050   -0.8060 C.3   141  ILE141      0.0019
    145  CD1      -21.5350   16.3830   -3.7900 C.3   141  ILE141      0.0001
@<TRIPOS>BOND
     1    76    74   am
     2    74    75    2
     3    74    73    1
     4    73    70    1
     5    70    69    1
     6    70    71    1
     7    69    63   am
     8    71    72    2
     9    71    77   am
    10    67    66    1
    11    83    81    1
    12    65    62    1
    13    65    66    1
    14    77    78    1
    15    63    62    1
    16    63    64    2
    17    61    62    1
    18    66    68    1
    19    78    81    1
    20    78    79    1
    21    81    82    1
    22   120   119    1
    23   120   121    1
    24   119   118    1
    25   125   124    2
    26    92    91    1
    27    92    93    1
    28    94    93    2
    29    79    84   am
    30    79    80    2
    31   124   123    1
    32   117   116    2
    33    91    86   am
    34    84    85    1
    35    93    95   am
    36   118   115    1
    37   116   115    1
    38   127   128    1
    39   127   129    1
    40   127   126    1
    41    86    85    1
    42    86    87    2
    43   123   126    1
    44   123   122    1
    45    85    88    1
    46   115   114    1
    47    95    96    1
    48     7     9   ar
    49     7     6   ar
    50    90    88    1
    51     9    10   ar
    52    21    19    1
    53    96    97    1
    54    88    89    1
    55     6     5    1
    56     6     8   ar
    57   114   111   am
    58     5     2    1
    59    10    12   ar
    60    10     8   ar
    61   102   101    2
    62    99    97   am
    63    99   100    1
    64    97    98    2
    65   101   100    1
    66    12    14   ar
    67     8    11   ar
    68    19    20    1
    69    19    16    1
    70   112   111    2
    71   111   110    1
    72    15    16    1
    73    15     3   am
    74   100   103    1
    75     1     2    1
    76     2     3    1
    77    16    17    1
    78    14    13   ar
    79    11    13   ar
    80     3     4    2
    81   109   110    1
    82   136   135    1
    83   135   137    1
    84   135   134    1
    85   110   113    1
    86   130   131    1
    87   103   104    1
    88   145   143    1
    89    17    18    2
    90    28    26    1
    91   105   104   ar
    92   105   107   ar
    93   134   131    1
    94   131   132    1
    95   104   106   ar
    96   143   142    1
    97    36    35   ar
    98    27    26    1
    99    26    23    1
   100   107   108   ar
   101   132   133    2
   102    35    34    1
   103    35    37   ar
   104   106   108   ar
   105    57    56    2
   106   142   144    1
   107   142   139    1
   108    34    33    1
   109    23    22    1
   110    23    24    1
   111    60    58    1
   112   138   139    1
   113   139   140    1
   114    29    24   am
   115    29    30    1
   116    56    55    1
   117    24    25    2
   118    59    58    1
   119    58    55    1
   120    33    30    1
   121    30    31    1
   122    55    54    1
   123    41    40    2
   124    51    53   ar
   125    51    49   ar
   126    42    39    1
   127   140   141    2
   128    53    52   ar
   129    39    40    1
   130    39    38    1
   131    40    43   am
   132    49    48   ar
   133    31    32    2
   134    52    50   ar
   135    43    44    1
   136    48    50   ar
   137    48    47    1
   138    44    47    1
   139    44    45    1
   140    45    46    2
