@<TRIPOS>MOLECULE
tmp/4nxkD00.pdb
 115 112 0 0 0
SMALL
GASTEIGER

@<TRIPOS>ATOM
      1  N          3.3680  -11.9460  -42.7040 N.3   116  ARG116     -0.1245
      2  CA         3.9660  -10.9140  -41.8850 C.3   116  ARG116      0.1563
      3  C          5.4520  -10.8080  -42.2410 C.2   116  ARG116      0.2260
      4  O          6.1420  -11.8230  -42.3680 O.2   116  ARG116     -0.2867
      5  CB         3.8790  -11.3300  -40.4140 C.3   116  ARG116      0.0307
      6  CG         4.5070  -10.3390  -39.4320 C.3   116  ARG116      0.0489
      7  CD         4.5230  -10.9360  -38.0230 C.3   116  ARG116      0.2205
      8  NE         5.2970  -12.1970  -37.9830 N.pl3 116  ARG116     -0.0865
      9  CZ         6.5020  -12.3140  -37.4310 C.cat 116  ARG116      0.5346
     10  NH1        7.0980  -11.2750  -36.8670 N.pl3 116  ARG116      0.1354
     11  NH2        7.1180  -13.4620  -37.4490 N.pl3 116  ARG116      0.1354
     12  N         13.7760   -7.7940  -37.6620 N.3   141  ASP141     -0.1239
     13  CA        13.9510   -8.3790  -36.3620 C.3   141  ASP141      0.1674
     14  C         14.9890   -9.4720  -36.4680 C.2   141  ASP141      0.2266
     15  O         14.9660  -10.2980  -37.3890 O.2   141  ASP141     -0.2867
     16  CB        12.6330   -8.9420  -35.8870 C.3   141  ASP141      0.1410
     17  CG        12.5110   -8.9420  -34.3900 C.2   141  ASP141      0.3668
     18  OD1       13.3140   -9.6570  -33.6470 O.co2 141  ASP141     -0.2456
     19  OD2       11.5850   -8.1930  -33.9790 O.co2 141  ASP141     -0.2456
     20  N         12.8500  -13.3770  -35.1260 N.3   144  SER144     -0.1217
     21  CA        11.4430  -13.4660  -35.4510 C.3   144  SER144      0.1889
     22  C         11.2840  -14.0830  -36.8100 C.2   144  SER144      0.2288
     23  O         11.6680  -13.5320  -37.8180 O.2   144  SER144     -0.2866
     24  CB        10.7470  -12.1100  -35.4320 C.3   144  SER144      0.2089
     25  OG         9.3620  -12.2770  -35.5480 O.3   144  SER144     -0.2183
     26  N          9.5320   -7.8220  -38.9650 N.3   155  VAL155     -0.1231
     27  CA         9.9630   -6.4800  -38.9910 C.3   155  VAL155      0.1692
     28  C          9.8800   -5.8920  -37.6230 C.2   155  VAL155      0.2592
     29  O          8.8910   -6.0630  -36.9380 O.2   155  VAL155     -0.2718
     30  CB         9.0600   -5.6660  -39.9680 C.3   155  VAL155      0.0266
     31  CG1        9.3060   -4.1740  -39.8440 C.3   155  VAL155      0.0020
     32  CG2        9.3090   -6.0800  -41.3770 C.3   155  VAL155      0.0020
     33  N         10.8910   -5.0980  -37.2570 N.am  156  ASP156     -0.1960
     34  CA        11.0410   -4.5280  -35.9350 C.3   156  ASP156      0.1840
     35  C         10.5730   -3.0890  -35.9620 C.2   156  ASP156      0.2622
     36  O         11.2630   -2.1920  -36.4890 O.2   156  ASP156     -0.2715
     37  CB        12.4970   -4.5790  -35.5770 C.3   156  ASP156      0.1450
     38  CG        12.8120   -4.0210  -34.2080 C.2   156  ASP156      0.3671
     39  OD1       11.9480   -3.4190  -33.5580 O.co2 156  ASP156     -0.2456
     40  OD2       13.9790   -4.1880  -33.7870 O.co2 156  ASP156     -0.2456
     41  N          9.4560   -2.8540  -35.2940 N.am  157  HIS157     -0.1959
     42  CA         8.7950   -1.5460  -35.2770 C.3   157  HIS157      0.1787
     43  C          9.6230   -0.4350  -34.7020 C.2   157  HIS157      0.2620
     44  O          9.3420    0.7360  -34.9160 O.2   157  HIS157     -0.2715
     45  CB         7.4570   -1.6180  -34.4970 C.3   157  HIS157      0.0785
     46  CG         7.6100   -1.6380  -33.0110 C.ar  157  HIS157      0.0821
     47  ND1        7.5100   -0.4950  -32.2270 N.ar  157  HIS157     -0.2267
     48  CD2        7.9320   -2.6460  -32.1720 C.ar  157  HIS157      0.1154
     49  CE1        7.7100   -0.8180  -30.9630 C.ar  157  HIS157      0.1986
     50  NE2        7.9780   -2.1160  -30.9060 N.ar  157  HIS157     -0.2212
     51  N         10.6320   -0.7940  -33.9270 N.am  158  ARG158     -0.1977
     52  CA        11.4820    0.1980  -33.3170 C.3   158  ARG158      0.1597
     53  C         12.5080    0.7880  -34.3010 C.2   158  ARG158      0.2287
     54  O         13.1250    1.7710  -34.0090 O.2   158  ARG158     -0.2864
     55  CB        12.2330   -0.4060  -32.1310 C.3   158  ARG158      0.0334
     56  CG        11.3760   -0.7030  -30.9440 C.3   158  ARG158      0.0492
     57  CD        12.1350   -1.5420  -29.9330 C.3   158  ARG158      0.2205
     58  NE        12.2930   -2.8980  -30.4820 N.pl3 158  ARG158     -0.0865
     59  CZ        13.0710   -3.8620  -29.9760 C.cat 158  ARG158      0.5346
     60  NH1       13.8000   -3.6530  -28.8830 N.pl3 158  ARG158      0.1354
     61  NH2       13.1220   -5.0500  -30.5750 N.pl3 158  ARG158      0.1354
     62  N          6.3890  -17.3960  -30.7030 N.3   192  TYR192     -0.1241
     63  CA         6.3670  -15.9940  -30.2460 C.3   192  TYR192      0.1605
     64  C          5.0540  -15.4720  -29.7960 C.2   192  TYR192      0.2264
     65  O          4.9810  -14.3550  -29.2550 O.2   192  TYR192     -0.2867
     66  CB         6.8290  -15.0700  -31.3570 C.3   192  TYR192      0.0534
     67  CG         8.1730  -15.4640  -31.9180 C.ar  192  TYR192     -0.0201
     68  CD1        9.3690  -15.1220  -31.2480 C.ar  192  TYR192     -0.0009
     69  CD2        8.2730  -16.1720  -33.0820 C.ar  192  TYR192     -0.0009
     70  CE1       10.6080  -15.4760  -31.7900 C.ar  192  TYR192      0.0417
     71  CE2        9.5310  -16.5400  -33.6140 C.ar  192  TYR192      0.0417
     72  CZ        10.6820  -16.1840  -32.9670 C.ar  192  TYR192      0.1957
     73  OH        11.9310  -16.5000  -33.4260 O.3   192  TYR192     -0.2866
     74  N          1.6110  -13.5320  -30.0900 N.3   194  THR194     -0.1203
     75  CA         0.8850  -12.5810  -30.9510 C.3   194  THR194      0.1994
     76  C          1.7610  -11.4190  -31.3220 C.2   194  THR194      0.2618
     77  O          2.3290  -10.7250  -30.4760 O.2   194  THR194     -0.2717
     78  CB        -0.4560  -12.0730  -30.3350 C.3   194  THR194      0.1784
     79  OG1       -1.3880  -13.1660  -30.2030 O.3   194  THR194     -0.2211
     80  CG2       -1.1430  -11.0160  -31.2320 C.3   194  THR194      0.0376
     81  N          1.8020  -11.1560  -32.6160 N.am  195  HIS195     -0.1961
     82  CA         2.6260  -10.0450  -33.1280 C.3   195  HIS195      0.1787
     83  C          1.9120   -8.7160  -33.1450 C.2   195  HIS195      0.2621
     84  O          1.5540   -8.2050  -34.1730 O.2   195  HIS195     -0.2715
     85  CB         3.1680  -10.4300  -34.4720 C.3   195  HIS195      0.0785
     86  CG         4.0690  -11.6270  -34.4350 C.ar  195  HIS195      0.0821
     87  ND1        5.3020  -11.6150  -33.8100 N.ar  195  HIS195     -0.2267
     88  CD2        3.9340  -12.8540  -34.9880 C.ar  195  HIS195      0.1154
     89  CE1        5.8810  -12.7990  -33.9750 C.ar  195  HIS195      0.1986
     90  NE2        5.0770  -13.5690  -34.6980 N.ar  195  HIS195     -0.2212
     91  N          1.8140   -8.1360  -31.9720 N.am  196  THR196     -0.1937
     92  CA         0.9680   -7.0290  -31.7510 C.3   196  THR196      0.2028
     93  C          1.5060   -5.7760  -32.4400 C.2   196  THR196      0.2642
     94  O          0.7360   -4.9630  -32.9410 O.2   196  THR196     -0.2714
     95  CB         0.7320   -6.7610  -30.2600 C.3   196  THR196      0.1808
     96  OG1        1.9310   -6.4280  -29.6190 O.3   196  THR196     -0.2208
     97  CG2        0.2050   -7.9870  -29.5810 C.3   196  THR196      0.0379
     98  N          2.8210   -5.6190  -32.4430 N.am  197  GLU197     -0.1963
     99  CA         3.3930   -4.4030  -32.9600 C.3   197  GLU197      0.1733
    100  C          3.2320   -4.3220  -34.4650 C.2   197  GLU197      0.2616
    101  O          2.9830   -3.2720  -35.0310 O.2   197  GLU197     -0.2715
    102  CB         4.8220   -4.2800  -32.5180 C.3   197  GLU197      0.0429
    103  CG         4.9650   -4.0930  -31.0200 C.3   197  GLU197      0.1163
    104  CD         4.3780   -2.7780  -30.5090 C.2   197  GLU197      0.3649
    105  OE1        4.2920   -1.7990  -31.2820 O.co2 197  GLU197     -0.2457
    106  OE2        4.0900   -2.6620  -29.3030 O.co2 197  GLU197     -0.2457
    107  N          3.3550   -5.4590  -35.1340 N.am  198  GLU198     -0.1977
    108  CA         3.1610   -5.5130  -36.5350 C.3   198  GLU198      0.1602
    109  C          1.6780   -5.3560  -36.8720 C.2   198  GLU198      0.2287
    110  O          1.3550   -4.8060  -37.9350 O.2   198  GLU198     -0.2864
    111  CB         3.8080   -6.7770  -37.1700 C.3   198  GLU198      0.0415
    112  CG         5.2920   -6.5110  -37.3220 C.3   198  GLU198      0.1163
    113  CD         6.0830   -7.6990  -37.7840 C.2   198  GLU198      0.3649
    114  OE1        6.4630   -7.7550  -38.9720 O.co2 198  GLU198     -0.2457
    115  OE2        6.4200   -8.5430  -36.9260 O.co2 198  GLU198     -0.2457
@<TRIPOS>BOND
     1     1     2    1
     2     4     3    2
     3     3     2    1
     4     2     5    1
     5    32    30    1
     6     5     6    1
     7    30    31    1
     8    30    27    1
     9     6     7    1
    10    27    26    1
    11    27    28    1
    12   114   113   ar
    13     7     8    1
    14     8     9    2
    15   110   109    2
    16    23    22    2
    17   113   112    1
    18   113   115   ar
    19    12    13    1
    20    28    33   am
    21    28    29    2
    22    11     9    1
    23     9    10    1
    24    15    14    2
    25   112   111    1
    26    33    34    1
    27   111   108    1
    28   109   108    1
    29    22    21    1
    30   108   107    1
    31    36    35    2
    32    14    13    1
    33    13    16    1
    34    35    34    1
    35    35    41   am
    36    34    37    1
    37    16    17    1
    38    37    38    1
    39    25    24    1
    40    21    24    1
    41    21    20    1
    42    41    42    1
    43    42    43    1
    44    42    45    1
    45   107   100   am
    46   101   100    2
    47    88    90   ar
    48    88    86   ar
    49    44    43    2
    50    43    51   am
    51    90    89   ar
    52    45    46    1
    53    85    86    1
    54    85    82    1
    55   100    99    1
    56    86    87   ar
    57    17    19   ar
    58    17    18   ar
    59    53    54    2
    60    53    52    1
    61    38    40   ar
    62    38    39   ar
    63    84    83    2
    64    89    87   ar
    65    51    52    1
    66    71    69   ar
    67    71    72   ar
    68    73    72    1
    69    52    55    1
    70    83    82    1
    71    83    91   am
    72    82    81    1
    73    69    67   ar
    74    46    47   ar
    75    46    48   ar
    76    72    70   ar
    77    99   102    1
    78    99    98    1
    79    94    93    2
    80    81    76   am
    81   102   103    1
    82    98    93   am
    83    93    92    1
    84    47    49   ar
    85    48    50   ar
    86    55    56    1
    87    91    92    1
    88    67    66    1
    89    67    68   ar
    90    70    68   ar
    91    92    95    1
    92    66    63    1
    93    76    75    1
    94    76    77    2
    95   105   104   ar
    96    80    78    1
    97   103   104    1
    98    49    50   ar
    99    75    78    1
   100    75    74    1
   101    56    57    1
   102    62    63    1
   103    61    59    1
   104   104   106   ar
   105    58    59    2
   106    58    57    1
   107    78    79    1
   108    95    96    1
   109    95    97    1
   110    63    64    1
   111    59    60    1
   112    64    65    2
