@<TRIPOS>MOLECULE
tmp/4nxoA04.pdb
 141 129 0 0 0
SMALL
GASTEIGER

@<TRIPOS>ATOM
      1  N        168.3910   26.8230  -89.9610 N.3   723  ARG723     -0.1245
      2  CA       167.5780   26.2310  -88.9010 C.3   723  ARG723      0.1563
      3  C        167.2770   27.2260  -87.7750 C.2   723  ARG723      0.2260
      4  O        167.8640   28.3040  -87.7230 O.2   723  ARG723     -0.2867
      5  CB       168.2840   24.9950  -88.3370 C.3   723  ARG723      0.0307
      6  CG       169.6690   25.3330  -87.8080 C.3   723  ARG723      0.0489
      7  CD       170.2410   23.9960  -87.4240 C.3   723  ARG723      0.2205
      8  NE       171.5080   23.9900  -86.7320 N.pl3 723  ARG723     -0.0865
      9  CZ       171.6280   23.4790  -85.5170 C.cat 723  ARG723      0.5346
     10  NH1      170.5790   22.9950  -84.8570 N.pl3 723  ARG723      0.1354
     11  NH2      172.8330   23.4280  -84.9630 N.pl3 723  ARG723      0.1354
     12  N        177.1820   23.5770  -78.3330 N.3   758  GLN758     -0.1245
     13  CA       177.8410   22.2830  -78.4180 C.3   758  GLN758      0.1566
     14  C        179.2290   22.3650  -79.0440 C.2   758  GLN758      0.2260
     15  O        179.4470   23.0720  -80.0300 O.2   758  GLN758     -0.2867
     16  CB       176.9740   21.3010  -79.2080 C.3   758  GLN758      0.0367
     17  CG       175.6810   20.9210  -78.5150 C.3   758  GLN758      0.0905
     18  CD       174.6990   20.2580  -79.4550 C.2   758  GLN758      0.2608
     19  OE1      175.0910   19.6340  -80.4430 O.2   758  GLN758     -0.2717
     20  NE2      173.4100   20.3990  -79.1610 N.am  758  GLN758     -0.0878
     21  N        180.5750   19.4450  -74.7050 N.3   763  ASN763     -0.1240
     22  CA       179.9000   18.1550  -74.7300 C.3   763  ASN763      0.1653
     23  C        180.3990   17.2240  -73.6350 C.2   763  ASN763      0.2266
     24  O        179.6040   16.6020  -72.9320 O.2   763  ASN763     -0.2867
     25  CB       180.0830   17.4710  -76.0870 C.3   763  ASN763      0.1155
     26  CG       179.3210   18.1570  -77.1960 C.2   763  ASN763      0.2627
     27  OD1      178.6490   19.1620  -76.9730 O.2   763  ASN763     -0.2716
     28  ND2      179.4240   17.6170  -78.4050 N.am  763  ASN763     -0.0877
     29  N        178.5440   15.8580  -70.2750 N.3   767  GLU767     -0.1245
     30  CA       178.2920   14.4260  -70.2470 C.3   767  GLU767      0.1567
     31  C        179.0180   13.7510  -69.0860 C.2   767  GLU767      0.2260
     32  O        178.4290   12.9350  -68.3760 O.2   767  GLU767     -0.2867
     33  CB       178.6940   13.7890  -71.5790 C.3   767  GLU767      0.0388
     34  CG       177.7680   14.1630  -72.7340 C.3   767  GLU767      0.1160
     35  CD       178.1370   13.4730  -74.0370 C.2   767  GLU767      0.3649
     36  OE1      178.8670   12.4570  -73.9920 O.co2 767  GLU767     -0.2457
     37  OE2      177.6770   13.9360  -75.1050 O.co2 767  GLU767     -0.2457
     38  N        169.7730   18.5540  -75.2690 N.3   797  ARG797     -0.1231
     39  CA       170.3290   19.0700  -76.5170 C.3   797  ARG797      0.1694
     40  C        169.2380   19.5560  -77.4560 C.2   797  ARG797      0.2592
     41  O        168.4020   18.7760  -77.9040 O.2   797  ARG797     -0.2718
     42  CB       171.1650   18.0110  -77.2350 C.3   797  ARG797      0.0321
     43  CG       172.6330   18.0080  -76.8920 C.3   797  ARG797      0.0489
     44  CD       172.8840   17.5600  -75.4740 C.3   797  ARG797      0.2205
     45  NE       174.3140   17.3980  -75.2440 N.pl3 797  ARG797     -0.0865
     46  CZ       175.0260   16.3690  -75.6890 C.cat 797  ARG797      0.5346
     47  NH1      174.4370   15.4200  -76.4040 N.pl3 797  ARG797      0.1354
     48  NH2      176.3280   16.2990  -75.4370 N.pl3 797  ARG797      0.1354
     49  N        169.2580   20.8440  -77.7660 N.am  798  ALA798     -0.1966
     50  CA       168.3110   21.3980  -78.7170 C.3   798  ALA798      0.1728
     51  C        168.9490   22.5420  -79.4890 C.2   798  ALA798      0.2616
     52  O        169.5930   23.4150  -78.9030 O.2   798  ALA798     -0.2715
     53  CB       167.0510   21.8680  -78.0060 C.3   798  ALA798      0.0334
     54  N        168.7780   22.5150  -80.8070 N.am  799  ASN799     -0.1958
     55  CA       169.2150   23.5990  -81.6800 C.3   799  ASN799      0.1819
     56  C        170.7110   23.9140  -81.5810 C.2   799  ASN799      0.2621
     57  O        171.1340   25.0460  -81.8170 O.2   799  ASN799     -0.2715
     58  CB       168.3970   24.8500  -81.3740 C.3   799  ASN799      0.1195
     59  CG       166.9040   24.6130  -81.5090 C.2   799  ASN799      0.2630
     60  OD1      166.1450   24.7690  -80.5460 O.2   799  ASN799     -0.2716
     61  ND2      166.4740   24.2330  -82.7080 N.am  799  ASN799     -0.0877
     62  N        171.5060   22.9090  -81.2300 N.am  800  GLY800     -0.1954
     63  CA       172.9460   23.0720  -81.1450 C.3   800  GLY800      0.1869
     64  C        173.4110   23.5630  -79.7890 C.2   800  GLY800      0.2309
     65  O        174.6120   23.6370  -79.5220 O.2   800  GLY800     -0.2863
     66  N        179.7250    5.6260  -74.9440 N.3   851  ARG851     -0.1245
     67  CA       179.8030    6.3960  -76.1800 C.3   851  ARG851      0.1563
     68  C        180.3020    5.5610  -77.3580 C.2   851  ARG851      0.2260
     69  O        179.8680    5.7570  -78.4950 O.2   851  ARG851     -0.2867
     70  CB       180.7040    7.6160  -75.9890 C.3   851  ARG851      0.0307
     71  CG       180.0990    8.7080  -75.1240 C.3   851  ARG851      0.0489
     72  CD       178.8310    9.2760  -75.7550 C.3   851  ARG851      0.2205
     73  NE       179.0390    9.6680  -77.1460 N.pl3 851  ARG851     -0.0865
     74  CZ       179.5200   10.8490  -77.5210 C.cat 851  ARG851      0.5346
     75  NH1      179.8420   11.7530  -76.6050 N.pl3 851  ARG851      0.1354
     76  NH2      179.6820   11.1270  -78.8080 N.pl3 851  ARG851      0.1354
     77  N        172.4510    7.0990  -86.1010 N.3   864  LYS864     -0.1245
     78  CA       173.6760    7.8120  -85.7610 C.3   864  LYS864      0.1561
     79  C        174.0270    8.8240  -86.8480 C.2   864  LYS864      0.2260
     80  O        174.2380   10.0040  -86.5720 O.2   864  LYS864     -0.2867
     81  CB       174.8260    6.8220  -85.5720 C.3   864  LYS864      0.0271
     82  CG       175.7930    7.1560  -84.4530 C.3   864  LYS864      0.0035
     83  CD       176.8370    6.0520  -84.3120 C.3   864  LYS864      0.0206
     84  CE       177.6480    6.1830  -83.0320 C.3   864  LYS864      0.1093
     85  NZ       176.8660    5.8420  -81.8090 N.3   864  LYS864     -0.1314
     86  N        171.3920   11.6250  -87.5250 N.3   867  GLY867     -0.1210
     87  CA       171.3880   12.6110  -86.4600 C.3   867  GLY867      0.1956
     88  C        172.3900   13.7060  -86.7590 C.2   867  GLY867      0.2611
     89  O        172.1190   14.8860  -86.5540 O.2   867  GLY867     -0.2717
     90  N        173.5510   13.3030  -87.2600 N.am  868  GLU868     -0.1979
     91  CA       174.5790   14.2350  -87.6860 C.3   868  GLU868      0.1602
     92  C        174.1350   15.0510  -88.9000 C.2   868  GLU868      0.2287
     93  O        174.6340   16.1500  -89.1370 O.2   868  GLU868     -0.2864
     94  CB       175.8640   13.4790  -88.0120 C.3   868  GLU868      0.0415
     95  CG       176.4080   12.6570  -86.8620 C.3   868  GLU868      0.1163
     96  CD       176.9010   13.5090  -85.7120 C.2   868  GLU868      0.3649
     97  OE1      176.9940   14.7430  -85.8800 O.co2 868  GLU868     -0.2457
     98  OE2      177.2100   12.9380  -84.6450 O.co2 868  GLU868     -0.2457
     99  N        170.9670   17.5810  -87.8980 N.3   871  SER871     -0.1217
    100  CA       171.5220   18.5910  -87.0070 C.3   871  SER871      0.1889
    101  C        172.4520   19.4890  -87.8070 C.2   871  SER871      0.2288
    102  O        172.9230   20.5160  -87.3190 O.2   871  SER871     -0.2866
    103  CB       172.2670   17.9510  -85.8370 C.3   871  SER871      0.2089
    104  OG       173.4690   17.3410  -86.2700 O.3   871  SER871     -0.2183
    105  N        175.3760   19.1220  -88.4140 N.3   873  GLN873     -0.1245
    106  CA       176.7090   19.1830  -87.8310 C.3   873  GLN873      0.1566
    107  C        177.6360   18.2580  -88.6010 C.2   873  GLN873      0.2260
    108  O        178.8370   18.5080  -88.6880 O.2   873  GLN873     -0.2867
    109  CB       176.7020   18.7950  -86.3520 C.3   873  GLN873      0.0367
    110  CG       175.7620   19.6040  -85.4800 C.3   873  GLN873      0.0905
    111  CD       176.0000   19.3590  -83.9960 C.2   873  GLN873      0.2608
    112  OE1      177.0160   18.7790  -83.6000 O.2   873  GLN873     -0.2717
    113  NE2      175.0550   19.7940  -83.1680 N.am  873  GLN873     -0.0878
    114  N        182.4410   11.5730  -84.7200 N.3   878  ARG878     -0.1231
    115  CA       182.2770   12.2580  -83.4450 C.3   878  ARG878      0.1694
    116  C        182.7250   11.4570  -82.2270 C.2   878  ARG878      0.2592
    117  O        183.4020   11.9870  -81.3480 O.2   878  ARG878     -0.2718
    118  CB       180.8170   12.6680  -83.2640 C.3   878  ARG878      0.0321
    119  CG       180.5160   13.2310  -81.8950 C.3   878  ARG878      0.0489
    120  CD       179.0560   13.5570  -81.7770 C.3   878  ARG878      0.2205
    121  NE       178.5980   14.3710  -82.8970 N.pl3 878  ARG878     -0.0865
    122  CZ       178.6960   15.6940  -82.9390 C.cat 878  ARG878      0.5346
    123  NH1      179.2350   16.3450  -81.9180 N.pl3 878  ARG878      0.1354
    124  NH2      178.2540   16.3660  -83.9940 N.pl3 878  ARG878      0.1354
    125  N        182.3510   10.1840  -82.1720 N.am  879  ASP879     -0.1974
    126  CA       182.5540    9.4040  -80.9580 C.3   879  ASP879      0.1709
    127  C        184.0290    9.2370  -80.6060 C.2   879  ASP879      0.2293
    128  O        184.4230    9.4060  -79.4540 O.2   879  ASP879     -0.2864
    129  CB       181.9010    8.0260  -81.0920 C.3   879  ASP879      0.1436
    130  CG       180.3970    8.0690  -80.9000 C.2   879  ASP879      0.3671
    131  OD1      179.8820    9.1020  -80.4220 O.co2 879  ASP879     -0.2456
    132  OD2      179.7300    7.0620  -81.2170 O.co2 879  ASP879     -0.2456
    133  N        185.5650   12.7070  -79.4320 N.3   882  GLU882     -0.1245
    134  CA       185.0670   13.1880  -78.1490 C.3   882  GLU882      0.1567
    135  C        185.4870   12.2770  -77.0000 C.2   882  GLU882      0.2260
    136  O        185.7110   12.7410  -75.8840 O.2   882  GLU882     -0.2867
    137  CB       183.5420   13.3320  -78.1890 C.3   882  GLU882      0.0388
    138  CG       183.0580   14.4810  -79.0680 C.3   882  GLU882      0.1160
    139  CD       181.5560   14.6950  -78.9920 C.2   882  GLU882      0.3649
    140  OE1      180.8720   13.8930  -78.3200 O.co2 882  GLU882     -0.2457
    141  OE2      181.0590   15.6680  -79.6040 O.co2 882  GLU882     -0.2457
@<TRIPOS>BOND
     1     1     2    1
     2    93    92    2
     3     2     5    1
     4     2     3    1
     5    92    91    1
     6   108   107    2
     7   107   106    1
     8   105   106    1
     9     5     6    1
    10    94    91    1
    11    94    95    1
    12    99   100    1
    13   106   109    1
    14     6     7    1
    15   101   102    2
    16   101   100    1
    17     3     4    2
    18    91    90    1
    19    86    87    1
    20     7     8    1
    21    90    88   am
    22   100   103    1
    23    95    96    1
    24    79    80    2
    25    79    78    1
    26    88    89    2
    27    88    87    1
    28     8     9    2
    29   109   110    1
    30   104   103    1
    31    77    78    1
    32    97    96   ar
    33    78    81    1
    34    96    98   ar
    35    81    82    1
    36     9    11    1
    37     9    10    1
    38   110   111    1
    39   114   115    1
    40    82    83    1
    41    83    84    1
    42   111   112    2
    43   111   113   am
    44   124   122    1
    45   115   118    1
    46   115   116    1
    47   118   119    1
    48    84    85    1
    49   122   121    2
    50   122   123    1
    51   121   120    1
    52    61    59   am
    53   116   125   am
    54   116   117    2
    55   125   126    1
    56   119   120    1
    57    57    56    2
    58    55    56    1
    59    55    58    1
    60    55    54    1
    61    56    62   am
    62    59    58    1
    63    59    60    2
    64    62    63    1
    65   132   130   ar
    66    63    64    1
    67   129   126    1
    68   129   130    1
    69   126   127    1
    70   130   131   ar
    71    54    51   am
    72   127   128    2
    73    19    18    2
    74    15    14    2
    75    64    65    2
    76   141   139   ar
    77    51    52    2
    78    51    50    1
    79    18    20   am
    80    18    17    1
    81   133   134    1
    82    16    17    1
    83    16    13    1
    84   138   139    1
    85   138   137    1
    86    14    13    1
    87   139   140   ar
    88    76    74    1
    89    50    53    1
    90    50    49    1
    91    69    68    2
    92    13    12    1
    93    28    26   am
    94   137   134    1
    95   134   135    1
    96    41    40    2
    97    49    40   am
    98    74    73    2
    99    74    75    1
   100    40    39    1
   101    68    67    1
   102    42    43    1
   103    42    39    1
   104    26    27    2
   105    26    25    1
   106    73    72    1
   107   135   136    2
   108    43    44    1
   109    39    38    1
   110    47    46    1
   111    67    70    1
   112    67    66    1
   113    25    22    1
   114    70    71    1
   115    72    71    1
   116    46    48    1
   117    46    45    2
   118    44    45    1
   119    37    35   ar
   120    22    21    1
   121    22    23    1
   122    35    36   ar
   123    35    34    1
   124    23    24    2
   125    34    33    1
   126    33    30    1
   127    29    30    1
   128    30    31    1
   129    31    32    2
