@<TRIPOS>MOLECULE
tmp/4nxoA03.pdb
 101 95 0 0 0
SMALL
GASTEIGER

@<TRIPOS>ATOM
      1  N        156.0120   25.1310  -92.0360 N.3   542  TYR542     -0.1241
      2  CA       155.8850   25.6230  -90.6720 C.3   542  TYR542      0.1605
      3  C        155.8140   27.1530  -90.5940 C.2   542  TYR542      0.2264
      4  O        156.0510   27.7340  -89.5360 O.2   542  TYR542     -0.2867
      5  CB       157.0550   25.0960  -89.8380 C.3   542  TYR542      0.0534
      6  CG       156.8020   25.0010  -88.3490 C.ar  542  TYR542     -0.0201
      7  CD1      155.8070   24.1810  -87.8380 C.ar  542  TYR542     -0.0009
      8  CD2      157.5930   25.7030  -87.4510 C.ar  542  TYR542     -0.0009
      9  CE1      155.5910   24.0880  -86.4710 C.ar  542  TYR542      0.0417
     10  CE2      157.3890   25.6110  -86.0890 C.ar  542  TYR542      0.0417
     11  CZ       156.3900   24.8060  -85.6040 C.ar  542  TYR542      0.1957
     12  OH       156.1910   24.7240  -84.2450 O.3   542  TYR542     -0.2866
     13  N        151.1450   24.7220  -90.7990 N.3   548  SER548     -0.1217
     14  CA       151.6300   23.6090  -90.0030 C.3   548  SER548      0.1889
     15  C        150.5430   22.5290  -89.8820 C.2   548  SER548      0.2288
     16  O        150.8240   21.3370  -89.9960 O.2   548  SER548     -0.2866
     17  CB       152.0720   24.1020  -88.6250 C.3   548  SER548      0.2089
     18  OG       152.8330   23.1160  -87.9520 O.3   548  SER548     -0.2183
     19  N        150.3970   18.6890  -91.7580 N.3   552  TYR552     -0.1241
     20  CA       150.0530   17.5030  -90.9860 C.3   552  TYR552      0.1605
     21  C        148.8720   16.7290  -91.5780 C.2   552  TYR552      0.2264
     22  O        148.9560   15.5130  -91.7670 O.2   552  TYR552     -0.2867
     23  CB       149.7470   17.8910  -89.5390 C.3   552  TYR552      0.0534
     24  CG       149.1790   16.7610  -88.7150 C.ar  552  TYR552     -0.0201
     25  CD1      150.0110   15.8710  -88.0430 C.ar  552  TYR552     -0.0009
     26  CD2      147.8040   16.5830  -88.6120 C.ar  552  TYR552     -0.0009
     27  CE1      149.4830   14.8350  -87.2910 C.ar  552  TYR552      0.0417
     28  CE2      147.2740   15.5550  -87.8700 C.ar  552  TYR552      0.0417
     29  CZ       148.1110   14.6850  -87.2100 C.ar  552  TYR552      0.1957
     30  OH       147.5630   13.6660  -86.4700 O.3   552  TYR552     -0.2866
     31  N        155.2470   15.1340  -91.0210 N.3   580  ASN580     -0.1225
     32  CA       155.4820   16.5500  -91.2640 C.3   580  ASN580      0.1785
     33  C        156.3660   17.1090  -90.1530 C.2   580  ASN580      0.2598
     34  O        156.2660   16.6880  -89.0010 O.2   580  ASN580     -0.2718
     35  CB       154.1610   17.3150  -91.3480 C.3   580  ASN580      0.1169
     36  CG       153.4320   17.3570  -90.0250 C.2   580  ASN580      0.2627
     37  OD1      153.2590   16.3300  -89.3700 O.2   580  ASN580     -0.2716
     38  ND2      153.0000   18.5470  -89.6200 N.am  580  ASN580     -0.0877
     39  N        157.2180   18.0660  -90.5020 N.am  581  THR581     -0.1939
     40  CA       158.1800   18.6260  -89.5560 C.3   581  THR581      0.2028
     41  C        158.1910   20.1500  -89.5780 C.2   581  THR581      0.2642
     42  O        157.3570   20.7820  -90.2350 O.2   581  THR581     -0.2714
     43  CB       159.5960   18.1220  -89.8470 C.3   581  THR581      0.1808
     44  OG1      160.0490   18.6800  -91.0870 O.3   581  THR581     -0.2208
     45  CG2      159.6090   16.6010  -89.9500 C.3   581  THR581      0.0379
     46  N        159.1290   20.7360  -88.8390 N.am  582  ILE582     -0.1977
     47  CA       159.2610   22.1880  -88.7890 C.3   582  ILE582      0.1596
     48  C        160.0830   22.6850  -89.9690 C.2   582  ILE582      0.2287
     49  O        160.2020   23.8910  -90.1920 O.2   582  ILE582     -0.2864
     50  CB       159.9280   22.6560  -87.4860 C.3   582  ILE582      0.0276
     51  CG1      161.3950   22.2240  -87.4510 C.3   582  ILE582      0.0022
     52  CG2      159.1760   22.1190  -86.2840 C.3   582  ILE582      0.0022
     53  CD1      162.1200   22.6580  -86.2020 C.3   582  ILE582      0.0001
     54  N        142.0970   15.0870  -85.5540 N.3   624  TYR624     -0.1241
     55  CA       143.2090   15.9750  -85.2430 C.3   624  TYR624      0.1605
     56  C        142.8050   17.0120  -84.1970 C.2   624  TYR624      0.2264
     57  O        143.5950   17.3540  -83.3140 O.2   624  TYR624     -0.2867
     58  CB       143.7110   16.6620  -86.5160 C.3   624  TYR624      0.0534
     59  CG       144.9110   17.5620  -86.3100 C.ar  624  TYR624     -0.0201
     60  CD1      145.9750   17.1640  -85.5090 C.ar  624  TYR624     -0.0009
     61  CD2      144.9930   18.7980  -86.9400 C.ar  624  TYR624     -0.0009
     62  CE1      147.0780   17.9770  -85.3290 C.ar  624  TYR624      0.0417
     63  CE2      146.0920   19.6200  -86.7650 C.ar  624  TYR624      0.0417
     64  CZ       147.1290   19.2050  -85.9590 C.ar  624  TYR624      0.1957
     65  OH       148.2210   20.0200  -85.7860 O.3   624  TYR624     -0.2866
     66  N        144.6310   17.4270  -80.5190 N.3   628  LEU628     -0.1245
     67  CA       145.1980   18.6260  -79.9100 C.3   628  LEU628      0.1561
     68  C        144.5950   18.8690  -78.5320 C.2   628  LEU628      0.2260
     69  O        145.3110   19.2020  -77.5900 O.2   628  LEU628     -0.2867
     70  CB       144.9770   19.8450  -80.8060 C.3   628  LEU628      0.0270
     71  CG       145.6850   19.8050  -82.1590 C.3   628  LEU628      0.0019
     72  CD1      145.1540   20.9030  -83.0670 C.3   628  LEU628      0.0001
     73  CD2      147.1890   19.9220  -81.9780 C.3   628  LEU628      0.0001
     74  N        160.2400   23.3650  -74.2310 N.3   645  ARG645     -0.1245
     75  CA       160.5760   23.2860  -75.6480 C.3   645  ARG645      0.1563
     76  C        160.1220   24.5410  -76.3720 C.2   645  ARG645      0.2260
     77  O        160.8460   25.0830  -77.2080 O.2   645  ARG645     -0.2867
     78  CB       159.9320   22.0580  -76.2970 C.3   645  ARG645      0.0307
     79  CG       160.6150   21.6000  -77.5820 C.3   645  ARG645      0.0489
     80  CD       159.8320   20.4860  -78.2690 C.3   645  ARG645      0.2205
     81  NE       158.6020   20.9970  -78.8760 N.pl3 645  ARG645     -0.0865
     82  CZ       157.4400   20.3480  -78.8980 C.cat 645  ARG645      0.5346
     83  NH1      157.3380   19.1410  -78.3520 N.pl3 645  ARG645      0.1354
     84  NH2      156.3790   20.9050  -79.4750 N.pl3 645  ARG645      0.1354
     85  N        149.9420   24.3550  -79.0070 N.3   655  LYS655     -0.1245
     86  CA       148.8670   23.4770  -79.4240 C.3   655  LYS655      0.1561
     87  C        147.5710   24.2720  -79.4860 C.2   655  LYS655      0.2260
     88  O        146.6320   23.8920  -80.1850 O.2   655  LYS655     -0.2867
     89  CB       148.7540   22.2800  -78.4770 C.3   655  LYS655      0.0271
     90  CG       149.9250   21.3040  -78.6340 C.3   655  LYS655      0.0035
     91  CD       149.6470   19.9170  -78.0810 C.3   655  LYS655      0.0206
     92  CE       150.7890   18.9600  -78.4210 C.3   655  LYS655      0.1093
     93  NZ       151.1700   19.0120  -79.8650 N.3   655  LYS655     -0.1314
     94  N        147.5600   26.1800  -82.8100 N.3   658  LEU658     -0.1245
     95  CA       147.2830   25.2010  -83.8490 C.3   658  LEU658      0.1561
     96  C        145.7930   24.8860  -83.9720 C.2   658  LEU658      0.2260
     97  O        145.2420   24.9230  -85.0740 O.2   658  LEU658     -0.2867
     98  CB       148.0730   23.9160  -83.5850 C.3   658  LEU658      0.0270
     99  CG       149.5690   23.9990  -83.8970 C.3   658  LEU658      0.0019
    100  CD1      150.2730   22.7010  -83.5470 C.3   658  LEU658      0.0001
    101  CD2      149.7860   24.3410  -85.3610 C.3   658  LEU658      0.0001
@<TRIPOS>BOND
     1     1     2    1
     2    22    21    2
     3    19    20    1
     4    21    20    1
     5    35    32    1
     6    35    36    1
     7    32    31    1
     8    32    33    1
     9    44    43    1
    10    20    23    1
    11    13    14    1
    12     2     3    1
    13     2     5    1
    14     3     4    2
    15    39    33   am
    16    39    40    1
    17    42    41    2
    18    49    48    2
    19    33    34    2
    20    36    38   am
    21    36    37    2
    22    14    15    1
    23    14    17    1
    24    16    15    2
    25    48    47    1
    26    45    43    1
    27    43    40    1
    28     5     6    1
    29    41    40    1
    30    41    46   am
    31    23    24    1
    32    46    47    1
    33    47    50    1
    34    24    26   ar
    35    24    25   ar
    36    17    18    1
    37    26    28   ar
    38     6     7   ar
    39     6     8   ar
    40    25    27   ar
    41    28    29   ar
    42     7     9   ar
    43    50    51    1
    44    50    52    1
    45    51    53    1
    46     8    10   ar
    47    27    29   ar
    48    29    30    1
    49    61    63   ar
    50    61    59   ar
    51    63    64   ar
    52    58    59    1
    53    58    55    1
    54     9    11   ar
    55    59    60   ar
    56    10    11   ar
    57    64    65    1
    58    64    62   ar
    59    11    12    1
    60    54    55    1
    61    60    62   ar
    62   101    99    1
    63    55    56    1
    64    97    96    2
    65    56    57    2
    66    96    95    1
    67    99    98    1
    68    99   100    1
    69    95    98    1
    70    95    94    1
    71    72    71    1
    72    71    73    1
    73    71    70    1
    74    70    67    1
    75    66    67    1
    76    88    87    2
    77    67    68    1
    78    93    92    1
    79    87    86    1
    80    84    82    1
    81    86    85    1
    82    86    89    1
    83    82    81    2
    84    82    83    1
    85    81    80    1
    86    90    89    1
    87    90    91    1
    88    68    69    2
    89    92    91    1
    90    80    79    1
    91    79    78    1
    92    77    76    2
    93    76    75    1
    94    78    75    1
    95    75    74    1
