@<TRIPOS>MOLECULE
tmp/4nxoA01.pdb
 140 133 0 0 0
SMALL
GASTEIGER

@<TRIPOS>ATOM
      1  N        145.5310  -21.2220  -75.6390 N.3   280  LEU280     -0.1231
      2  CA       146.0140  -21.7150  -76.9270 C.3   280  LEU280      0.1693
      3  C        147.5250  -21.8950  -76.9730 C.2   280  LEU280      0.2591
      4  O        148.0880  -22.1420  -78.0390 O.2   280  LEU280     -0.2718
      5  CB       145.5870  -20.7710  -78.0540 C.3   280  LEU280      0.0284
      6  CG       144.0900  -20.5210  -78.2170 C.3   280  LEU280      0.0019
      7  CD1      143.8210  -19.4780  -79.2950 C.3   280  LEU280      0.0001
      8  CD2      143.3740  -21.8200  -78.5370 C.3   280  LEU280      0.0001
      9  N        148.1830  -21.7540  -75.8290 N.am  281  GLN281     -0.1979
     10  CA       149.6410  -21.7780  -75.8010 C.3   281  GLN281      0.1601
     11  C        150.2250  -23.1400  -76.2070 C.2   281  GLN281      0.2287
     12  O        151.2940  -23.2020  -76.8180 O.2   281  GLN281     -0.2864
     13  CB       150.1470  -21.3870  -74.4110 C.3   281  GLN281      0.0394
     14  CG       151.6580  -21.4910  -74.2500 C.3   281  GLN281      0.0908
     15  CD       152.4150  -20.6200  -75.2400 C.2   281  GLN281      0.2608
     16  OE1      151.9210  -19.5780  -75.6730 O.2   281  GLN281     -0.2717
     17  NE2      153.6230  -21.0410  -75.5960 N.am  281  GLN281     -0.0878
     18  N        151.0540  -23.9080  -79.9530 N.3   284  TYR284     -0.1241
     19  CA       151.9190  -22.8650  -80.4880 C.3   284  TYR284      0.1605
     20  C        152.5760  -23.2510  -81.8100 C.2   284  TYR284      0.2264
     21  O        152.9390  -22.3850  -82.6030 O.2   284  TYR284     -0.2867
     22  CB       152.9880  -22.4780  -79.4610 C.3   284  TYR284      0.0534
     23  CG       154.1060  -23.4710  -79.2600 C.ar  284  TYR284     -0.0201
     24  CD1      155.2480  -23.4290  -80.0530 C.ar  284  TYR284     -0.0009
     25  CD2      154.0430  -24.4250  -78.2530 C.ar  284  TYR284     -0.0009
     26  CE1      156.2840  -24.3260  -79.8660 C.ar  284  TYR284      0.0417
     27  CE2      155.0780  -25.3310  -78.0570 C.ar  284  TYR284      0.0417
     28  CZ       156.1940  -25.2760  -78.8670 C.ar  284  TYR284      0.1957
     29  OH       157.2280  -26.1680  -78.6750 O.3   284  TYR284     -0.2866
     30  N        149.7230  -22.4180  -83.9960 N.3   287  ASN287     -0.1240
     31  CA       149.2860  -21.0720  -83.6060 C.3   287  ASN287      0.1653
     32  C        147.9730  -20.6170  -84.2350 C.2   287  ASN287      0.2266
     33  O        147.9530  -19.6720  -85.0250 O.2   287  ASN287     -0.2867
     34  CB       150.3840  -20.0550  -83.9350 C.3   287  ASN287      0.1155
     35  CG       150.2650  -18.7820  -83.1170 C.2   287  ASN287      0.2627
     36  OD1      149.2190  -18.5000  -82.5360 O.2   287  ASN287     -0.2716
     37  ND2      151.3440  -18.0110  -83.0610 N.am  287  ASN287     -0.0877
     38  N        146.9600  -16.7470  -84.0730 N.3   290  HIS290     -0.1241
     39  CA       147.6050  -15.8030  -84.9780 C.3   290  HIS290      0.1621
     40  C        147.0130  -15.8710  -86.3860 C.2   290  HIS290      0.2264
     41  O        146.8640  -14.8450  -87.0450 O.2   290  HIS290     -0.2867
     42  CB       149.1120  -16.0510  -85.0270 C.3   290  HIS290      0.0745
     43  CG       149.8480  -15.1250  -85.9450 C.ar  290  HIS290      0.0817
     44  ND1      149.8180  -13.7550  -85.7990 N.ar  290  HIS290     -0.2268
     45  CD2      150.6390  -15.3720  -87.0170 C.ar  290  HIS290      0.1154
     46  CE1      150.5570  -13.1970  -86.7420 C.ar  290  HIS290      0.1986
     47  NE2      151.0670  -14.1570  -87.4930 N.ar  290  HIS290     -0.2212
     48  N        144.3620  -12.8440  -80.9480 N.3   321  GLN321     -0.1245
     49  CA       144.3410  -13.4130  -79.6100 C.3   321  GLN321      0.1566
     50  C        145.0540  -12.5040  -78.6240 C.2   321  GLN321      0.2260
     51  O        146.0040  -11.8020  -78.9710 O.2   321  GLN321     -0.2867
     52  CB       144.9720  -14.8000  -79.5910 C.3   321  GLN321      0.0367
     53  CG       146.4110  -14.8380  -80.0340 C.3   321  GLN321      0.0905
     54  CD       146.9860  -16.2320  -79.9470 C.2   321  GLN321      0.2608
     55  OE1      146.3910  -17.1190  -79.3300 O.2   321  GLN321     -0.2717
     56  NE2      148.1450  -16.4370  -80.5660 N.am  321  GLN321     -0.0878
     57  N        146.6430  -12.3220  -74.5910 N.3   323  GLU323     -0.1245
     58  CA       147.1140  -13.1280  -73.4750 C.3   323  GLU323      0.1567
     59  C        146.1930  -13.0060  -72.2690 C.2   323  GLU323      0.2260
     60  O        145.5200  -11.9930  -72.0850 O.2   323  GLU323     -0.2867
     61  CB       148.5390  -12.7240  -73.0970 C.3   323  GLU323      0.0388
     62  CG       149.5490  -12.9470  -74.1950 C.3   323  GLU323      0.1160
     63  CD       149.7930  -14.3770  -74.5550 C.2   323  GLU323      0.3649
     64  OE1      149.4240  -15.3020  -73.7840 O.co2 323  GLU323     -0.2457
     65  OE2      150.4650  -14.5630  -75.5810 O.co2 323  GLU323     -0.2457
     66  N        142.5400  -17.4620  -72.2120 N.3   329  MET329     -0.1245
     67  CA       142.9210  -16.3590  -73.0770 C.3   329  MET329      0.1570
     68  C        141.6870  -15.5690  -73.5030 C.2   329  MET329      0.2261
     69  O        140.5690  -15.8510  -73.0660 O.2   329  MET329     -0.2867
     70  CB       143.6670  -16.8650  -74.3070 C.3   329  MET329      0.0387
     71  CG       145.0700  -17.3530  -74.0260 C.3   329  MET329      0.0595
     72  SD       145.9210  -17.7230  -75.5660 S.3   329  MET329     -0.1393
     73  CE       147.5240  -18.2240  -74.9470 C.3   329  MET329      0.0692
     74  N        157.5950  -15.6790  -91.6030 N.3   376  ASN376     -0.1240
     75  CA       158.2900  -15.7720  -90.3240 C.3   376  ASN376      0.1653
     76  C        159.6430  -16.4500  -90.4380 C.2   376  ASN376      0.2266
     77  O        160.5680  -16.1240  -89.6970 O.2   376  ASN376     -0.2867
     78  CB       157.4290  -16.5040  -89.3070 C.3   376  ASN376      0.1155
     79  CG       156.2830  -15.6600  -88.8230 C.2   376  ASN376      0.2627
     80  OD1      156.3240  -14.4340  -88.9220 O.2   376  ASN376     -0.2716
     81  ND2      155.2430  -16.3040  -88.3160 N.am  376  ASN376     -0.0877
     82  N        161.8710  -13.8020  -91.6520 N.3   379  ALA379     -0.1245
     83  CA       162.0310  -12.8850  -90.5300 C.3   379  ALA379      0.1562
     84  C        163.0720  -13.3730  -89.5150 C.2   379  ALA379      0.2260
     85  O        163.8770  -12.5830  -89.0180 O.2   379  ALA379     -0.2867
     86  CB       160.6940  -12.6690  -89.8450 C.3   379  ALA379      0.0290
     87  N        159.4690  -23.2690  -73.6850 N.3   402  TYR402     -0.1241
     88  CA       160.0140  -24.0660  -74.7840 C.3   402  TYR402      0.1605
     89  C        161.2610  -24.8800  -74.4180 C.2   402  TYR402      0.2264
     90  O        162.0000  -24.5350  -73.4940 O.2   402  TYR402     -0.2867
     91  CB       160.3330  -23.1570  -75.9810 C.3   402  TYR402      0.0534
     92  CG       159.1910  -22.2590  -76.4040 C.ar  402  TYR402     -0.0201
     93  CD1      158.0510  -22.7860  -77.0030 C.ar  402  TYR402     -0.0009
     94  CD2      159.2450  -20.8850  -76.1920 C.ar  402  TYR402     -0.0009
     95  CE1      157.0030  -21.9680  -77.3860 C.ar  402  TYR402      0.0417
     96  CE2      158.1980  -20.0570  -76.5690 C.ar  402  TYR402      0.0417
     97  CZ       157.0840  -20.6040  -77.1650 C.ar  402  TYR402      0.1957
     98  OH       156.0470  -19.7860  -77.5430 O.3   402  TYR402     -0.2866
     99  N        161.2880  -20.9380  -81.4810 N.3   410  ALA410     -0.1231
    100  CA       159.9370  -21.3200  -81.0660 C.3   410  ALA410      0.1694
    101  C        158.8660  -20.3030  -81.4630 C.2   410  ALA410      0.2592
    102  O        157.8010  -20.6810  -81.9490 O.2   410  ALA410     -0.2718
    103  CB       159.9010  -21.5540  -79.5590 C.3   410  ALA410      0.0304
    104  N        159.1490  -19.0190  -81.2650 N.am  411  GLU411     -0.1966
    105  CA       158.1490  -17.9830  -81.5070 C.3   411  GLU411      0.1733
    106  C        158.1770  -17.4580  -82.9410 C.2   411  GLU411      0.2616
    107  O        157.4830  -16.5010  -83.2640 O.2   411  GLU411     -0.2715
    108  CB       158.3520  -16.8270  -80.5260 C.3   411  GLU411      0.0429
    109  CG       158.2440  -17.2510  -79.0700 C.3   411  GLU411      0.1163
    110  CD       157.8220  -16.1210  -78.1540 C.2   411  GLU411      0.3649
    111  OE1      158.4510  -15.0430  -78.2200 O.co2 411  GLU411     -0.2457
    112  OE2      156.8660  -16.3120  -77.3680 O.co2 411  GLU411     -0.2457
    113  N        158.9770  -18.0850  -83.7960 N.am  412  TYR412     -0.1960
    114  CA       159.0480  -17.7090  -85.2070 C.3   412  TYR412      0.1771
    115  C        158.5760  -18.8110  -86.1480 C.2   412  TYR412      0.2619
    116  O        157.8690  -18.5500  -87.1190 O.2   412  TYR412     -0.2715
    117  CB       160.4760  -17.3300  -85.5890 C.3   412  TYR412      0.0574
    118  CG       160.9230  -15.9750  -85.1120 C.ar  412  TYR412     -0.0198
    119  CD1      161.4080  -15.7940  -83.8260 C.ar  412  TYR412     -0.0009
    120  CD2      160.8900  -14.8780  -85.9620 C.ar  412  TYR412     -0.0009
    121  CE1      161.8270  -14.5550  -83.3910 C.ar  412  TYR412      0.0417
    122  CE2      161.3100  -13.6360  -85.5390 C.ar  412  TYR412      0.0417
    123  CZ       161.7790  -13.4800  -84.2520 C.ar  412  TYR412      0.1957
    124  OH       162.2030  -12.2450  -83.8210 O.3   412  TYR412     -0.2866
    125  N        158.9760  -20.0460  -85.8600 N.am  413  LEU413     -0.1963
    126  CA       158.8010  -21.1200  -86.8260 C.3   413  LEU413      0.1728
    127  C        157.5290  -21.9180  -86.5720 C.2   413  LEU413      0.2616
    128  O        157.3220  -22.5090  -85.5100 O.2   413  LEU413     -0.2715
    129  CB       160.0330  -22.0270  -86.8160 C.3   413  LEU413      0.0311
    130  CG       161.3280  -21.2250  -87.0200 C.3   413  LEU413      0.0022
    131  CD1      162.5710  -22.0980  -87.0930 C.3   413  LEU413      0.0001
    132  CD2      161.2200  -20.3660  -88.2680 C.3   413  LEU413      0.0001
    133  N        156.6940  -21.9290  -87.6000 N.am  414  LEU414     -0.1977
    134  CA       155.4860  -22.7200  -87.6540 C.3   414  LEU414      0.1596
    135  C        155.7700  -24.0790  -88.2550 C.2   414  LEU414      0.2287
    136  O        156.5650  -24.2020  -89.1890 O.2   414  LEU414     -0.2864
    137  CB       154.4030  -21.9990  -88.4540 C.3   414  LEU414      0.0297
    138  CG       153.9300  -20.6700  -87.8650 C.3   414  LEU414      0.0022
    139  CD1      152.9670  -19.9720  -88.8190 C.3   414  LEU414      0.0001
    140  CD2      153.2890  -20.8930  -86.5050 C.3   414  LEU414      0.0001
@<TRIPOS>BOND
     1    82    83    1
     2    74    75    1
     3    83    86    1
     4    83    84    1
     5    76    75    1
     6    76    77    2
     7    75    78    1
     8    84    85    2
     9    78    79    1
    10   136   135    2
    11    80    79    2
    12    79    81   am
    13   139   138    1
    14   137   138    1
    15   137   134    1
    16   132   130    1
    17   135   134    1
    18   138   140    1
    19   134   133    1
    20   133   127   am
    21    47    45   ar
    22    47    46   ar
    23   116   115    2
    24   131   130    1
    25    41    40    2
    26   130   129    1
    27    45    43   ar
    28   126   129    1
    29   126   127    1
    30   126   125    1
    31    46    44   ar
    32   127   128    2
    33    40    39    1
    34   115   125   am
    35   115   114    1
    36   120   122   ar
    37   120   118   ar
    38    43    44   ar
    39    43    42    1
    40   117   114    1
    41   117   118    1
    42   122   123   ar
    43   114   113    1
    44   118   119   ar
    45    42    39    1
    46    33    32    2
    47    39    38    1
    48   123   124    1
    49   123   121   ar
    50    32    31    1
    51    30    31    1
    52    34    31    1
    53    34    35    1
    54   119   121   ar
    55   113   106   am
    56   107   106    2
    57    35    37   am
    58    35    36    2
    59   106   105    1
    60    21    20    2
    61   102   101    2
    62    20    19    1
    63   105   104    1
    64   105   108    1
    65    99   100    1
    66   101   104   am
    67   101   100    1
    68   100   103    1
    69    48    49    1
    70    56    54   am
    71   108   109    1
    72    19    18    1
    73    19    22    1
    74    24    26   ar
    75    24    23   ar
    76    53    54    1
    77    53    52    1
    78    54    55    2
    79    26    28   ar
    80    49    52    1
    81    49    50    1
    82    22    23    1
    83     7     6    1
    84    23    25   ar
    85   109   110    1
    86    51    50    2
    87    28    29    1
    88    28    27   ar
    89     8     6    1
    90    25    27   ar
    91   111   110   ar
    92     6     5    1
    93   110   112   ar
    94     5     2    1
    95     4     3    2
    96    98    97    1
    97    95    97   ar
    98    95    93   ar
    99    97    96   ar
   100    93    92   ar
   101     3     2    1
   102     3     9   am
   103     2     1    1
   104    12    11    2
   105    96    94   ar
   106    92    94   ar
   107    92    91    1
   108    11    10    1
   109    91    88    1
   110     9    10    1
   111    10    13    1
   112    16    15    2
   113    17    15   am
   114    65    63   ar
   115    72    73    1
   116    72    71    1
   117    15    14    1
   118    88    89    1
   119    88    87    1
   120    57    58    1
   121    63    62    1
   122    63    64   ar
   123    89    90    2
   124    13    14    1
   125    70    71    1
   126    70    67    1
   127    62    61    1
   128    68    67    1
   129    68    69    2
   130    58    61    1
   131    58    59    1
   132    67    66    1
   133    59    60    2
