@<TRIPOS>MOLECULE
tmp/4nxoA00.pdb
 195 191 0 0 0
SMALL
GASTEIGER

@<TRIPOS>ATOM
      1  N        154.8110   -7.0920  -56.9570 N.3    66  HIS66      -0.1241
      2  CA       155.3390   -5.8830  -57.5860 C.3    66  HIS66       0.1621
      3  C        156.2500   -5.1240  -56.6180 C.2    66  HIS66       0.2264
      4  O        157.3530   -4.7120  -56.9780 O.2    66  HIS66      -0.2867
      5  CB       154.1830   -5.0010  -58.0610 C.3    66  HIS66       0.0745
      6  CG       154.6100   -3.6810  -58.6220 C.ar   66  HIS66       0.0817
      7  ND1      153.7790   -2.5810  -58.6410 N.ar   66  HIS66      -0.2268
      8  CD2      155.7740   -3.2820  -59.1900 C.ar   66  HIS66       0.1154
      9  CE1      154.4140   -1.5610  -59.1920 C.ar   66  HIS66       0.1986
     10  NE2      155.6250   -1.9600  -59.5330 N.ar   66  HIS66      -0.2212
     11  N        159.5810   -6.6670  -56.1440 N.3    69  GLN69      -0.1231
     12  CA       160.4670   -6.3650  -57.2600 C.3    69  GLN69       0.1698
     13  C        161.2470   -5.0690  -57.0420 C.2    69  GLN69       0.2592
     14  O        162.4310   -4.9800  -57.3740 O.2    69  GLN69      -0.2718
     15  CB       159.6540   -6.2790  -58.5500 C.3    69  GLN69       0.0381
     16  CG       160.4770   -5.9820  -59.7770 C.3    69  GLN69       0.0905
     17  CD       159.8260   -4.9450  -60.6630 C.2    69  GLN69       0.2608
     18  OE1      160.4220   -3.9140  -60.9570 O.2    69  GLN69      -0.2717
     19  NE2      158.5970   -5.2100  -61.0900 N.am   69  GLN69      -0.0878
     20  N        160.5780   -4.0690  -56.4740 N.am   70  HIS70      -0.1976
     21  CA       161.2340   -2.8190  -56.1100 C.3    70  HIS70       0.1656
     22  C        162.2850   -3.0170  -55.0290 C.2    70  HIS70       0.2291
     23  O        163.3820   -2.4700  -55.1160 O.2    70  HIS70      -0.2864
     24  CB       160.2060   -1.7890  -55.6400 C.3    70  HIS70       0.0771
     25  CG       159.5220   -1.0650  -56.7560 C.ar   70  HIS70       0.0820
     26  ND1      159.4200    0.3080  -56.8000 N.ar   70  HIS70      -0.2267
     27  CD2      158.9140   -1.5230  -57.8750 C.ar   70  HIS70       0.1154
     28  CE1      158.7750    0.6650  -57.8950 C.ar   70  HIS70       0.1986
     29  NE2      158.4570   -0.4270  -58.5650 N.ar   70  HIS70      -0.2212
     30  N        166.2760   -4.3400  -55.2420 N.3    73  PHE73      -0.1241
     31  CA       167.3160   -3.4130  -55.6720 C.3    73  PHE73       0.1605
     32  C        167.9150   -2.6710  -54.4890 C.2    73  PHE73       0.2264
     33  O        168.9220   -1.9790  -54.6270 O.2    73  PHE73      -0.2867
     34  CB       166.7580   -2.4040  -56.6690 C.3    73  PHE73       0.0534
     35  CG       166.3570   -3.0020  -57.9840 C.ar   73  PHE73      -0.0203
     36  CD1      165.0790   -3.5090  -58.1660 C.ar   73  PHE73      -0.0042
     37  CD2      167.2490   -3.0390  -59.0420 C.ar   73  PHE73      -0.0042
     38  CE1      164.7010   -4.0490  -59.3750 C.ar   73  PHE73      -0.0003
     39  CE2      166.8790   -3.5730  -60.2560 C.ar   73  PHE73      -0.0003
     40  CZ       165.6020   -4.0810  -60.4250 C.ar   73  PHE73      -0.0000
     41  N        174.1120   -1.8960  -55.6210 N.3    85  TYR85      -0.1227
     42  CA       173.8410   -2.4730  -56.9350 C.3    85  TYR85       0.1736
     43  C        173.8130   -1.4080  -58.0250 C.2    85  TYR85       0.2596
     44  O        174.5320   -1.5070  -59.0230 O.2    85  TYR85      -0.2718
     45  CB       172.5200   -3.2510  -56.9020 C.3    85  TYR85       0.0548
     46  CG       172.1190   -3.8800  -58.2200 C.ar   85  TYR85      -0.0200
     47  CD1      172.8330   -4.9440  -58.7570 C.ar   85  TYR85      -0.0009
     48  CD2      171.0050   -3.4290  -58.9110 C.ar   85  TYR85      -0.0009
     49  CE1      172.4590   -5.5200  -59.9590 C.ar   85  TYR85       0.0417
     50  CE2      170.6220   -4.0000  -60.1080 C.ar   85  TYR85       0.0417
     51  CZ       171.3490   -5.0430  -60.6290 C.ar   85  TYR85       0.1957
     52  OH       170.9590   -5.6050  -61.8250 O.3    85  TYR85      -0.2866
     53  N        172.9760   -0.3930  -57.8210 N.am   86  SER86      -0.1952
     54  CA       172.8140    0.7000  -58.7740 C.3    86  SER86       0.1924
     55  C        174.1240    1.4440  -58.9990 C.2    86  SER86       0.2314
     56  O        174.4830    1.7670  -60.1320 O.2    86  SER86      -0.2863
     57  CB       171.7370    1.6700  -58.2900 C.3    86  SER86       0.2116
     58  OG       170.4720    1.0340  -58.2580 O.3    86  SER86      -0.2180
     59  N        176.6930   -0.6630  -61.2650 N.3    89  LEU89      -0.1231
     60  CA       176.3550   -0.6690  -62.6840 C.3    89  LEU89       0.1693
     61  C        176.6540    0.6820  -63.3280 C.2    89  LEU89       0.2592
     62  O        177.2040    0.7480  -64.4310 O.2    89  LEU89      -0.2718
     63  CB       174.8850   -1.0360  -62.8850 C.3    89  LEU89       0.0284
     64  CG       174.5270   -2.4760  -62.5260 C.3    89  LEU89       0.0019
     65  CD1      173.0180   -2.6730  -62.5460 C.3    89  LEU89       0.0001
     66  CD2      175.2130   -3.4350  -63.4880 C.3    89  LEU89       0.0001
     67  N        176.3050    1.7530  -62.6190 N.am   90  SER90      -0.1952
     68  CA       176.4910    3.1120  -63.1190 C.3    90  SER90       0.1924
     69  C        177.9550    3.4120  -63.3930 C.2    90  SER90       0.2314
     70  O        178.2880    4.0590  -64.3860 O.2    90  SER90      -0.2863
     71  CB       175.9380    4.1310  -62.1240 C.3    90  SER90       0.2116
     72  OG       176.0660    5.4430  -62.6360 O.3    90  SER90      -0.2180
     73  N        169.9660   -1.1020  -65.3120 N.3    96  SER96      -0.1202
     74  CA       169.1400   -2.2040  -64.8380 C.3    96  SER96       0.2020
     75  C        167.6810   -1.7960  -64.6920 C.2    96  SER96       0.2619
     76  O        167.3610   -0.6390  -64.4440 O.2    96  SER96      -0.2717
     77  CB       169.6780   -2.7390  -63.5070 C.3    96  SER96       0.2103
     78  OG       169.0010   -3.9240  -63.1080 O.3    96  SER96      -0.2182
     79  N        166.7970   -2.7710  -64.8370 N.am   97  ASN97      -0.1960
     80  CA       165.3770   -2.5410  -64.6870 C.3    97  ASN97       0.1819
     81  C        164.6790   -3.8700  -64.4340 C.2    97  ASN97       0.2621
     82  O        165.3290   -4.9070  -64.3570 O.2    97  ASN97      -0.2715
     83  CB       164.8150   -1.8520  -65.9300 C.3    97  ASN97       0.1195
     84  CG       163.6930   -0.8880  -65.6050 C.2    97  ASN97       0.2630
     85  OD1      163.1950   -0.8510  -64.4780 O.2    97  ASN97      -0.2716
     86  ND2      163.2960   -0.0920  -66.5910 N.am   97  ASN97      -0.0877
     87  N        163.3600   -3.8380  -64.2960 N.am   98  ALA98      -0.1963
     88  CA       162.5990   -5.0390  -63.9840 C.3    98  ALA98       0.1728
     89  C        161.1260   -4.8030  -64.2480 C.2    98  ALA98       0.2616
     90  O        160.7000   -3.6590  -64.3870 O.2    98  ALA98      -0.2715
     91  CB       162.8180   -5.4460  -62.5360 C.3    98  ALA98       0.0334
     92  N        160.3450   -5.8750  -64.3260 N.am   99  PHE99      -0.1974
     93  CA       158.9000   -5.7160  -64.4080 C.3    99  PHE99       0.1639
     94  C        158.1560   -6.9040  -63.8230 C.2    99  PHE99       0.2290
     95  O        158.7020   -7.9960  -63.6900 O.2    99  PHE99      -0.2864
     96  CB       158.4510   -5.4790  -65.8530 C.3    99  PHE99       0.0560
     97  CG       158.7060   -6.6310  -66.7750 C.ar   99  PHE99      -0.0200
     98  CD1      157.7890   -7.6620  -66.8840 C.ar   99  PHE99      -0.0042
     99  CD2      159.8450   -6.6690  -67.5580 C.ar   99  PHE99      -0.0042
    100  CE1      158.0140   -8.7220  -67.7430 C.ar   99  PHE99      -0.0003
    101  CE2      160.0730   -7.7200  -68.4230 C.ar   99  PHE99      -0.0003
    102  CZ       159.1560   -8.7480  -68.5140 C.ar   99  PHE99      -0.0000
    103  N        160.2580    3.1440  -50.0150 N.3   140  GLU140     -0.1245
    104  CA       159.9560    2.6930  -51.3700 C.3   140  GLU140      0.1567
    105  C        158.4630    2.4360  -51.5870 C.2   140  GLU140      0.2260
    106  O        158.0110    2.3410  -52.7280 O.2   140  GLU140     -0.2867
    107  CB       160.7560    1.4340  -51.7080 C.3   140  GLU140      0.0388
    108  CG       160.6790    1.0390  -53.1770 C.3   140  GLU140      0.1160
    109  CD       161.3530    2.0480  -54.0960 C.2   140  GLU140      0.3649
    110  OE1      161.9510    3.0200  -53.5900 O.co2 140  GLU140     -0.2457
    111  OE2      161.2780    1.8730  -55.3310 O.co2 140  GLU140     -0.2457
    112  N        153.8830    5.6680  -58.7250 N.3   147  GLU147     -0.1245
    113  CA       153.7230    4.9500  -59.9820 C.3   147  GLU147      0.1567
    114  C        152.2490    4.6810  -60.3030 C.2   147  GLU147      0.2260
    115  O        151.8200    4.8390  -61.4470 O.2   147  GLU147     -0.2867
    116  CB       154.5070    3.6440  -59.9290 C.3   147  GLU147      0.0388
    117  CG       154.4070    2.7760  -61.1700 C.3   147  GLU147      0.1160
    118  CD       155.2000    1.4820  -61.0280 C.2   147  GLU147      0.3649
    119  OE1      155.8440    1.2920  -59.9750 O.co2 147  GLU147     -0.2457
    120  OE2      155.1910    0.6610  -61.9690 O.co2 147  GLU147     -0.2457
    121  N        174.4240   11.0430  -62.2250 N.3   774  SER774     -0.1202
    122  CA       173.2700   10.2890  -62.7060 C.3   774  SER774      0.2020
    123  C        172.6580    9.4290  -61.6030 C.2   774  SER774      0.2618
    124  O        171.5080    9.6390  -61.2050 O.2   774  SER774     -0.2717
    125  CB       173.6580    9.4150  -63.8970 C.3   774  SER774      0.2103
    126  OG       172.5420    8.6770  -64.3590 O.3   774  SER774     -0.2182
    127  N        173.4330    8.4610  -61.1220 N.am  775  GLU775     -0.1979
    128  CA       172.9880    7.5450  -60.0730 C.3   775  GLU775      0.1602
    129  C        172.6760    8.2450  -58.7500 C.2   775  GLU775      0.2287
    130  O        171.6060    8.0320  -58.1730 O.2   775  GLU775     -0.2864
    131  CB       174.0400    6.4550  -59.8400 C.3   775  GLU775      0.0415
    132  CG       173.5360    5.2720  -59.0350 C.3   775  GLU775      0.1163
    133  CD       173.5850    5.5250  -57.5380 C.2   775  GLU775      0.3649
    134  OE1      174.5840    6.1130  -57.0670 O.co2 775  GLU775     -0.2457
    135  OE2      172.6190    5.1460  -56.8380 O.co2 775  GLU775     -0.2457
    136  N        169.3060    9.9570  -58.7190 N.3   778  PHE778     -0.1241
    137  CA       168.1830    9.0380  -58.5600 C.3   778  PHE778      0.1605
    138  C        168.1130    8.5740  -57.1100 C.2   778  PHE778      0.2264
    139  O        167.0360    8.5100  -56.5140 O.2   778  PHE778     -0.2867
    140  CB       168.3000    7.8360  -59.5040 C.3   778  PHE778      0.0534
    141  CG       167.1020    6.9190  -59.4680 C.ar  778  PHE778     -0.0203
    142  CD1      166.9910    5.9310  -58.5030 C.ar  778  PHE778     -0.0042
    143  CD2      166.0800    7.0610  -60.3940 C.ar  778  PHE778     -0.0042
    144  CE1      165.8870    5.1000  -58.4650 C.ar  778  PHE778     -0.0003
    145  CE2      164.9780    6.2310  -60.3640 C.ar  778  PHE778     -0.0003
    146  CZ       164.8820    5.2490  -59.3980 C.ar  778  PHE778     -0.0000
    147  N        164.8900   10.2750  -55.2750 N.3   782  ARG782     -0.1245
    148  CA       163.8190    9.2770  -55.2410 C.3   782  ARG782      0.1563
    149  C        163.9680    8.2300  -54.1390 C.2   782  ARG782      0.2260
    150  O        163.0640    8.0630  -53.3220 O.2   782  ARG782     -0.2867
    151  CB       163.6900    8.5510  -56.5790 C.3   782  ARG782      0.0307
    152  CG       162.6160    7.4730  -56.5190 C.3   782  ARG782      0.0489
    153  CD       162.4570    6.7150  -57.8150 C.3   782  ARG782      0.2205
    154  NE       162.1940    5.3020  -57.5650 N.pl3 782  ARG782     -0.0865
    155  CZ       161.7070    4.4620  -58.4700 C.cat 782  ARG782      0.5346
    156  NH1      161.4070    4.9010  -59.6870 N.pl3 782  ARG782      0.1354
    157  NH2      161.5090    3.1880  -58.1560 N.pl3 782  ARG782      0.1354
    158  N        158.0310    9.0010  -58.2730 N.3   789  TYR789     -0.1227
    159  CA       158.4100    7.8120  -59.0140 C.3   789  TYR789      0.1736
    160  C        159.2800    8.1970  -60.2020 C.2   789  TYR789      0.2595
    161  O        160.2960    7.5620  -60.4790 O.2   789  TYR789     -0.2718
    162  CB       157.1630    7.0620  -59.4770 C.3   789  TYR789      0.0548
    163  CG       157.4420    5.9310  -60.4320 C.ar  789  TYR789     -0.0200
    164  CD1      157.9620    4.7230  -59.9820 C.ar  789  TYR789     -0.0009
    165  CD2      157.1840    6.0700  -61.7870 C.ar  789  TYR789     -0.0009
    166  CE1      158.2130    3.6860  -60.8560 C.ar  789  TYR789      0.0417
    167  CE2      157.4340    5.0400  -62.6680 C.ar  789  TYR789      0.0417
    168  CZ       157.9490    3.8520  -62.1990 C.ar  789  TYR789      0.1957
    169  OH       158.1910    2.8320  -63.0870 O.3   789  TYR789     -0.2866
    170  N        158.8760    9.2540  -60.8960 N.am  790  ILE790     -0.1966
    171  CA       159.6450    9.7620  -62.0230 C.3   790  ILE790      0.1727
    172  C        160.6690   10.8180  -61.5900 C.2   790  ILE790      0.2616
    173  O        160.3160   11.9540  -61.2720 O.2   790  ILE790     -0.2715
    174  CB       158.7260   10.3690  -63.0920 C.3   790  ILE790      0.0290
    175  CG1      157.8180    9.2930  -63.6840 C.3   790  ILE790      0.0022
    176  CG2      159.5500   11.0480  -64.1740 C.3   790  ILE790      0.0023
    177  CD1      156.7220    9.8360  -64.5650 C.3   790  ILE790      0.0001
    178  N        161.9380   10.4270  -61.5800 N.am  791  VAL791     -0.1963
    179  CA       163.0280   11.3220  -61.2270 C.3   791  VAL791      0.1727
    180  C        164.1390   11.1490  -62.2460 C.2   791  VAL791      0.2616
    181  O        164.7370   10.0750  -62.3470 O.2   791  VAL791     -0.2715
    182  CB       163.5590   11.0490  -59.8160 C.3   791  VAL791      0.0290
    183  CG1      164.8310   11.8430  -59.5680 C.3   791  VAL791      0.0023
    184  CG2      162.4930   11.3800  -58.7800 C.3   791  VAL791      0.0023
    185  N        164.4050   12.2060  -63.0050 N.am  792  PHE792     -0.1974
    186  CA       165.3210   12.1230  -64.1370 C.3   792  PHE792      0.1639
    187  C        166.3230   13.2870  -64.1870 C.2   792  PHE792      0.2290
    188  O        165.9740   14.4380  -63.9280 O.2   792  PHE792     -0.2864
    189  CB       164.5040   12.0570  -65.4330 C.3   792  PHE792      0.0560
    190  CG       165.3300   12.0800  -66.6820 C.ar  792  PHE792     -0.0200
    191  CD1      165.8710   10.9110  -67.1920 C.ar  792  PHE792     -0.0042
    192  CD2      165.5530   13.2690  -67.3590 C.ar  792  PHE792     -0.0042
    193  CE1      166.6300   10.9290  -68.3470 C.ar  792  PHE792     -0.0003
    194  CE2      166.3120   13.2950  -68.5160 C.ar  792  PHE792     -0.0003
    195  CZ       166.8500   12.1230  -69.0110 C.ar  792  PHE792     -0.0000
@<TRIPOS>BOND
     1   195   194   ar
     2   195   193   ar
     3   194   192   ar
     4   102   101   ar
     5   102   100   ar
     6   101    99   ar
     7   193   191   ar
     8   100    98   ar
     9    99    97   ar
    10   192   190   ar
    11   191   190   ar
    12    98    97   ar
    13    97    96    1
    14   190   189    1
    15    86    84   am
    16    83    84    1
    17    83    80    1
    18    96    93    1
    19    84    85    2
    20   189   186    1
    21    73    74    1
    22    74    75    1
    23    74    77    1
    24    79    75   am
    25    79    80    1
    26    75    76    2
    27    80    81    1
    28   177   175    1
    29    81    82    2
    30    81    87   am
    31    62    61    2
    32    93    92    1
    33    93    94    1
    34    90    89    2
    35    70    69    2
    36   126   125    1
    37    92    89   am
    38    87    88    1
    39    89    88    1
    40   187   186    1
    41   187   188    2
    42   176   174    1
    43   186   185    1
    44    88    91    1
    45   125   122    1
    46    94    95    2
    47   175   174    1
    48    77    78    1
    49    66    64    1
    50    69    68    1
    51    61    60    1
    52    61    67   am
    53    68    67    1
    54    68    71    1
    55   174   171    1
    56   169   168    1
    57   185   180   am
    58    63    60    1
    59    63    64    1
    60   122   121    1
    61   122   123    1
    62    60    59    1
    63   167   168   ar
    64   167   165   ar
    65    72    71    1
    66    65    64    1
    67   181   180    2
    68   180   179    1
    69   168   166   ar
    70   171   172    1
    71   171   170    1
    72   120   118   ar
    73    52    51    1
    74   165   163   ar
    75   123   124    2
    76   123   127   am
    77   172   178   am
    78   172   173    2
    79   178   179    1
    80   115   114    2
    81   179   182    1
    82   117   118    1
    83   117   116    1
    84   127   128    1
    85    19    17   am
    86   118   119   ar
    87    18    17    2
    88   170   160   am
    89   166   164   ar
    90    17    16    1
    91    51    50   ar
    92    51    49   ar
    93   161   160    2
    94   163   164   ar
    95   163   162    1
    96    40    39   ar
    97    40    38   ar
    98   143   145   ar
    99   143   141   ar
   100   145   146   ar
   101   114   113    1
   102    39    37   ar
   103   160   159    1
   104    56    55    2
   105    50    48   ar
   106   128   131    1
   107   128   129    1
   108   113   116    1
   109   113   112    1
   110    49    47   ar
   111   131   132    1
   112   182   183    1
   113   182   184    1
   114    16    15    1
   115   156   155    1
   116    10     9   ar
   117    10     8   ar
   118   140   141    1
   119   140   137    1
   120   162   159    1
   121   141   142   ar
   122   146   144   ar
   123    38    36   ar
   124     9     7   ar
   125     8     6   ar
   126    37    35   ar
   127   132   133    1
   128    44    43    2
   129   159   158    1
   130    55    54    1
   131    48    46   ar
   132    54    57    1
   133    54    53    1
   134    47    46   ar
   135   129   130    2
   136   136   137    1
   137     7     6   ar
   138     6     5    1
   139    29    28   ar
   140    29    27   ar
   141   137   138    1
   142    15    12    1
   143   142   144   ar
   144   155   157    1
   145   155   154    2
   146    57    58    1
   147    46    45    1
   148    36    35   ar
   149     5     2    1
   150    43    53   am
   151    43    42    1
   152    35    34    1
   153    28    26   ar
   154    27    25   ar
   155   153   154    1
   156   153   152    1
   157     2     1    1
   158     2     3    1
   159   133   134   ar
   160   133   135   ar
   161    14    13    2
   162    12    13    1
   163    12    11    1
   164   138   139    2
   165    13    20   am
   166     4     3    2
   167    42    45    1
   168    42    41    1
   169    26    25   ar
   170    25    24    1
   171    34    31    1
   172   151   152    1
   173   151   148    1
   174    20    21    1
   175    21    24    1
   176    21    22    1
   177    31    30    1
   178    31    32    1
   179   111   109   ar
   180   147   148    1
   181   148   149    1
   182    23    22    2
   183    33    32    2
   184   149   150    2
   185   109   110   ar
   186   109   108    1
   187   108   107    1
   188   106   105    2
   189   107   104    1
   190   105   104    1
   191   104   103    1
