@<TRIPOS>MOLECULE
tmp/4nxoB01.pdb
 135 129 0 0 0
SMALL
GASTEIGER

@<TRIPOS>ATOM
      1  N        161.6830   82.6850 -120.6270 N.3   280  LEU280     -0.1231
      2  CA       160.3170   83.0150 -120.2280 C.3   280  LEU280      0.1693
      3  C        160.2380   83.5890 -118.8160 C.2   280  LEU280      0.2591
      4  O        159.1470   83.7960 -118.2900 O.2   280  LEU280     -0.2718
      5  CB       159.4180   81.7790 -120.3200 C.3   280  LEU280      0.0284
      6  CG       159.3470   81.0650 -121.6710 C.3   280  LEU280      0.0019
      7  CD1      158.4850   79.8090 -121.5740 C.3   280  LEU280      0.0001
      8  CD2      158.8560   81.9950 -122.7690 C.3   280  LEU280      0.0001
      9  N        161.3890   83.8610 -118.2110 N.am  281  GLN281     -0.1979
     10  CA       161.4270   84.2830 -116.8130 C.3   281  GLN281      0.1601
     11  C        160.7140   85.6130 -116.5610 C.2   281  GLN281      0.2287
     12  O        160.1490   85.8190 -115.4890 O.2   281  GLN281     -0.2864
     13  CB       162.8750   84.3660 -116.3270 C.3   281  GLN281      0.0394
     14  CG       163.0310   84.9560 -114.9330 C.3   281  GLN281      0.0908
     15  CD       162.2480   84.1950 -113.8820 C.2   281  GLN281      0.2608
     16  OE1      162.0120   82.9930 -114.0130 O.2   281  GLN281     -0.2717
     17  NE2      161.8440   84.8940 -112.8260 N.am  281  GLN281     -0.0878
     18  N        156.8470   85.5330 -115.6400 N.3   284  TYR284     -0.1241
     19  CA       156.5870   84.6510 -114.5080 C.3   284  TYR284      0.1605
     20  C        155.1760   84.8100 -113.9300 C.2   284  TYR284      0.2264
     21  O        154.6370   83.8740 -113.3410 O.2   284  TYR284     -0.2867
     22  CB       157.6310   84.8760 -113.4120 C.3   284  TYR284      0.0534
     23  CG       157.4790   86.1700 -112.6460 C.ar  284  TYR284     -0.0201
     24  CD1      158.0800   87.3420 -113.0950 C.ar  284  TYR284     -0.0009
     25  CD2      156.7510   86.2170 -111.4650 C.ar  284  TYR284     -0.0009
     26  CE1      157.9490   88.5280 -112.3910 C.ar  284  TYR284      0.0417
     27  CE2      156.6170   87.3960 -110.7530 C.ar  284  TYR284      0.0417
     28  CZ       157.2140   88.5480 -111.2220 C.ar  284  TYR284      0.1957
     29  OH       157.0750   89.7210 -110.5140 O.3   284  TYR284     -0.2866
     30  N        153.3220   82.6050 -116.5300 N.3   287  ASN287     -0.1240
     31  CA       154.0020   81.3210 -116.6730 C.3   287  ASN287      0.1653
     32  C        153.4530   80.4530 -117.8080 C.2   287  ASN287      0.2266
     33  O        152.9390   79.3610 -117.5680 O.2   287  ASN287     -0.2867
     34  CB       153.9280   80.5440 -115.3580 C.3   287  ASN287      0.1155
     35  CG       155.0280   79.5120 -115.2310 C.2   287  ASN287      0.2627
     36  OD1      155.6770   79.1480 -116.2150 O.2   287  ASN287     -0.2716
     37  ND2      155.2400   79.0270 -114.0170 N.am  287  ASN287     -0.0877
     38  N        154.5990   76.7390 -117.9950 N.3   290  HIS290     -0.1241
     39  CA       153.9510   75.8300 -117.0520 C.3   290  HIS290      0.1621
     40  C        152.5860   75.3590 -117.5410 C.2   290  HIS290      0.2264
     41  O        152.2350   74.1920 -117.3780 O.2   290  HIS290     -0.2867
     42  CB       153.8050   76.5050 -115.6850 C.3   290  HIS290      0.0745
     43  CG       153.0730   75.6780 -114.6740 C.ar  290  HIS290      0.0817
     44  ND1      153.4820   74.4160 -114.3010 N.ar  290  HIS290     -0.2268
     45  CD2      151.9570   75.9400 -113.9520 C.ar  290  HIS290      0.1154
     46  CE1      152.6480   73.9330 -113.3960 C.ar  290  HIS290      0.1986
     47  NE2      151.7130   74.8380 -113.1670 N.ar  290  HIS290     -0.2212
     48  N        158.7990   73.2560 -119.3160 N.3   321  GLN321     -0.1245
     49  CA       159.9370   74.1380 -119.5470 C.3   321  GLN321      0.1566
     50  C        161.1220   73.7850 -118.6620 C.2   321  GLN321      0.2260
     51  O        160.9560   73.3020 -117.5430 O.2   321  GLN321     -0.2867
     52  CB       159.5450   75.5940 -119.3210 C.3   321  GLN321      0.0367
     53  CG       159.0710   75.9030 -117.9220 C.3   321  GLN321      0.0905
     54  CD       158.7050   77.3630 -117.7600 C.2   321  GLN321      0.2608
     55  OE1      159.0200   78.1890 -118.6170 O.2   321  GLN321     -0.2717
     56  NE2      158.0340   77.6900 -116.6600 N.am  321  GLN321     -0.0878
     57  N        165.0470   75.1900 -117.2800 N.3   323  GLU323     -0.1245
     58  CA       165.9180   76.3440 -117.1000 C.3   323  GLU323      0.1567
     59  C        167.1240   76.2660 -118.0240 C.2   323  GLU323      0.2260
     60  O        167.5620   75.1780 -118.3940 O.2   323  GLU323     -0.2867
     61  CB       166.3840   76.4440 -115.6460 C.3   323  GLU323      0.0388
     62  CG       165.2630   76.6480 -114.6580 C.3   323  GLU323      0.1160
     63  CD       164.5450   77.9540 -114.7700 C.2   323  GLU323      0.3649
     64  OE1      165.0520   78.9090 -115.4160 O.co2 323  GLU323     -0.2457
     65  OE2      163.5040   78.0510 -114.1020 O.co2 323  GLU323     -0.2457
     66  N        166.0630   79.3450 -122.8150 N.3   329  MET329     -0.1245
     67  CA       165.4960   78.2290 -122.0590 C.3   329  MET329      0.1570
     68  C        165.2490   77.0380 -122.9720 C.2   329  MET329      0.2261
     69  O        165.5430   77.0830 -124.1650 O.2   329  MET329     -0.2867
     70  CB       164.1870   78.6310 -121.3780 C.3   329  MET329      0.0387
     71  CG       164.3410   79.5630 -120.1940 C.3   329  MET329      0.0595
     72  SD       162.7590   79.8320 -119.3730 S.3   329  MET329     -0.1393
     73  CE       162.0590   78.1810 -119.4360 C.3   329  MET329      0.0692
     74  N        147.3400   76.7610 -107.1720 N.3   376  ASN376     -0.1240
     75  CA       148.5440   77.3990 -106.6440 C.3   376  ASN376      0.1653
     76  C        148.2520   78.3820 -105.5150 C.2   376  ASN376      0.2266
     77  O        149.0510   78.5280 -104.5870 O.2   376  ASN376     -0.2867
     78  CB       149.3000   78.1110 -107.7580 C.3   376  ASN376      0.1155
     79  CG       149.9720   77.1480 -108.7080 C.2   376  ASN376      0.2627
     80  OD1      150.1930   75.9830 -108.3760 O.2   376  ASN376     -0.2716
     81  ND2      150.3070   77.6290 -109.8990 N.am  376  ASN376     -0.0877
     82  N        162.9620   89.1520 -108.3420 N.3   402  TYR402     -0.1241
     83  CA       161.6570   89.7170 -108.0100 C.3   402  TYR402      0.1605
     84  C        161.7450   90.8780 -107.0320 C.2   402  TYR402      0.2264
     85  O        162.6820   90.9640 -106.2360 O.2   402  TYR402     -0.2867
     86  CB       160.7390   88.6450 -107.4160 C.3   402  TYR402      0.0534
     87  CG       160.6820   87.3550 -108.1940 C.ar  402  TYR402     -0.0201
     88  CD1      160.1210   87.3080 -109.4600 C.ar  402  TYR402     -0.0009
     89  CD2      161.1470   86.1730 -107.6400 C.ar  402  TYR402     -0.0009
     90  CE1      160.0560   86.1240 -110.1700 C.ar  402  TYR402      0.0417
     91  CE2      161.0810   84.9840 -108.3360 C.ar  402  TYR402      0.0417
     92  CZ       160.5340   84.9630 -109.6020 C.ar  402  TYR402      0.1957
     93  OH       160.4660   83.7790 -110.3060 O.3   402  TYR402     -0.2866
     94  N        155.9460   85.2690 -105.4500 N.3   410  ALA410     -0.1231
     95  CA       156.2790   85.2970 -106.8770 C.3   410  ALA410      0.1694
     96  C        156.2230   83.9410 -107.5860 C.2   410  ALA410      0.2592
     97  O        155.6460   83.8300 -108.6670 O.2   410  ALA410     -0.2718
     98  CB       157.6590   85.9170 -107.0700 C.3   410  ALA410      0.0304
     99  N        156.8040   82.9110 -106.9830 N.am  411  GLU411     -0.1966
    100  CA       156.8900   81.6170 -107.6560 C.3   411  GLU411      0.1733
    101  C        155.7100   80.6960 -107.3640 C.2   411  GLU411      0.2616
    102  O        155.7330   79.5200 -107.7280 O.2   411  GLU411     -0.2715
    103  CB       158.1980   80.9150 -107.2970 C.3   411  GLU411      0.0429
    104  CG       159.4190   81.7240 -107.6950 C.3   411  GLU411      0.1163
    105  CD       160.6150   80.8590 -108.0110 C.2   411  GLU411      0.3649
    106  OE1      160.9470   79.9740 -107.1910 O.co2 411  GLU411     -0.2457
    107  OE2      161.2210   81.0700 -109.0860 O.co2 411  GLU411     -0.2457
    108  N        154.6760   81.2310 -106.7220 N.am  412  TYR412     -0.1960
    109  CA       153.4940   80.4360 -106.4090 C.3   412  TYR412      0.1771
    110  C        152.2360   80.8940 -107.1630 C.2   412  TYR412      0.2619
    111  O        151.4660   80.0680 -107.6400 O.2   412  TYR412     -0.2715
    112  CB       153.2330   80.4660 -104.9000 C.3   412  TYR412      0.0574
    113  CG       154.2060   79.6310 -104.1010 C.ar  412  TYR412     -0.0198
    114  CD1      155.4330   80.1450 -103.7080 C.ar  412  TYR412     -0.0009
    115  CD2      153.9030   78.3210 -103.7510 C.ar  412  TYR412     -0.0009
    116  CE1      156.3280   79.3800 -102.9800 C.ar  412  TYR412      0.0417
    117  CE2      154.7880   77.5510 -103.0250 C.ar  412  TYR412      0.0417
    118  CZ       155.9990   78.0840 -102.6430 C.ar  412  TYR412      0.1957
    119  OH       156.8820   77.3170 -101.9200 O.3   412  TYR412     -0.2866
    120  N        152.0450   82.2040 -107.2880 N.am  413  LEU413     -0.1963
    121  CA       150.7780   82.7660 -107.7640 C.3   413  LEU413      0.1728
    122  C        150.7220   83.0840 -109.2550 C.2   413  LEU413      0.2616
    123  O        151.6320   83.7070 -109.7940 O.2   413  LEU413     -0.2715
    124  CB       150.4430   84.0420 -106.9880 C.3   413  LEU413      0.0311
    125  CG       150.4400   83.9300 -105.4640 C.3   413  LEU413      0.0022
    126  CD1      149.9830   85.2430 -104.8470 C.3   413  LEU413      0.0001
    127  CD2      149.5730   82.7690 -104.9910 C.3   413  LEU413      0.0001
    128  N        149.6780   82.6210 -109.9360 N.am  414  LEU414     -0.1977
    129  CA       149.4510   83.1080 -111.2880 C.3   414  LEU414      0.1596
    130  C        148.5730   84.3480 -111.1800 C.2   414  LEU414      0.2287
    131  O        147.4770   84.2900 -110.6220 O.2   414  LEU414     -0.2864
    132  CB       148.7830   82.0470 -112.1610 C.3   414  LEU414      0.0297
    133  CG       149.5940   80.7830 -112.4050 C.3   414  LEU414      0.0022
    134  CD1      148.7640   79.7500 -113.1480 C.3   414  LEU414      0.0001
    135  CD2      150.8430   81.1450 -113.1850 C.3   414  LEU414      0.0001
@<TRIPOS>BOND
     1    69    68    2
     2    68    67    1
     3    66    67    1
     4     8     6    1
     5    67    70    1
     6     6     7    1
     7     6     5    1
     8    70    71    1
     9     1     2    1
    10     5     2    1
    11     2     3    1
    12    71    72    1
    13    49    52    1
    14    49    48    1
    15    49    50    1
    16    73    72    1
    17    52    53    1
    18     3     4    2
    19     3     9   am
    20    50    51    2
    21    55    54    2
    22    60    59    2
    23     9    10    1
    24    59    58    1
    25    38    39    1
    26    53    54    1
    27    32    33    2
    28    32    31    1
    29    54    56   am
    30    40    41    2
    31    40    39    1
    32    57    58    1
    33    58    61    1
    34    39    42    1
    35    10    11    1
    36    10    13    1
    37    31    30    1
    38    31    34    1
    39    11    12    2
    40    13    14    1
    41    36    35    2
    42    42    43    1
    43    61    62    1
    44    18    19    1
    45    64    63   ar
    46    34    35    1
    47    35    37   am
    48    14    15    1
    49    63    62    1
    50    63    65   ar
    51    43    44   ar
    52    43    45   ar
    53    19    20    1
    54    19    22    1
    55    44    46   ar
    56    16    15    2
    57    45    47   ar
    58    20    21    2
    59    15    17   am
    60    22    23    1
    61    46    47   ar
    62   135   133    1
    63   134   133    1
    64    24    23   ar
    65    24    26   ar
    66    23    25   ar
    67   133   132    1
    68    26    28   ar
    69   132   129    1
    70    25    27   ar
    71   129   130    1
    72   129   128    1
    73    28    27   ar
    74    28    29    1
    75   130   131    2
    76    93    92    1
    77    90    92   ar
    78    90    88   ar
    79   128   122   am
    80    81    79   am
    81   123   122    2
    82    92    91   ar
    83    88    87   ar
    84   122   121    1
    85   107   105   ar
    86    79    80    2
    87    79    78    1
    88    97    96    2
    89    82    83    1
    90    91    89   ar
    91    87    89   ar
    92    87    86    1
    93   105   104    1
    94   105   106   ar
    95    83    86    1
    96    83    84    1
    97   121   120    1
    98   121   124    1
    99    78    75    1
   100   102   101    2
   101   104   103    1
   102   100   101    1
   103   100   103    1
   104   100    99    1
   105   111   110    2
   106    96    99   am
   107    96    95    1
   108   101   108   am
   109   120   110   am
   110    74    75    1
   111   110   109    1
   112    98    95    1
   113    84    85    2
   114   124   125    1
   115    95    94    1
   116   108   109    1
   117    75    76    1
   118   109   112    1
   119    76    77    2
   120   125   127    1
   121   125   126    1
   122   112   113    1
   123   113   115   ar
   124   113   114   ar
   125   115   117   ar
   126   114   116   ar
   127   117   118   ar
   128   116   118   ar
   129   118   119    1
