@<TRIPOS>MOLECULE
tmp/4nxqB00.pdb
 132 128 0 0 0
SMALL
GASTEIGER

@<TRIPOS>ATOM
      1  N         42.9710   -3.2610   28.2800 N.3    14  LYS14      -0.1245
      2  CA        42.0090   -2.2180   27.9190 C.3    14  LYS14       0.1561
      3  C         41.1780   -2.5790   26.6830 C.2    14  LYS14       0.2260
      4  O         40.0450   -2.1370   26.5420 O.2    14  LYS14      -0.2867
      5  CB        42.7320   -0.8900   27.7020 C.3    14  LYS14       0.0271
      6  CG        42.9730   -0.1600   29.0130 C.3    14  LYS14       0.0035
      7  CD        43.6190    1.1870   28.8240 C.3    14  LYS14       0.0206
      8  CE        43.9270    1.7850   30.1880 C.3    14  LYS14       0.1093
      9  NZ        42.7300    1.6590   31.0590 N.3    14  LYS14      -0.1314
     10  N         38.3290    2.3270   30.9610 N.3    21  THR21      -0.1203
     11  CA        38.5190    2.1460   32.4090 C.3    21  THR21       0.1994
     12  C         38.1980    0.7060   32.8390 C.2    21  THR21       0.2618
     13  O         37.3290    0.0520   32.2620 O.2    21  THR21      -0.2717
     14  CB        37.6280    3.1330   33.2260 C.3    21  THR21       0.1784
     15  OG1       37.5790    2.7310   34.6010 O.3    21  THR21      -0.2211
     16  CG2       36.2140    3.1110   32.7110 C.3    21  THR21       0.0376
     17  N         38.8570    0.2390   33.8940 N.am   22  TYR22      -0.1961
     18  CA        38.6920   -1.1490   34.3470 C.3    22  TYR22       0.1771
     19  C         37.5260   -1.3380   35.3170 C.2    22  TYR22       0.2620
     20  O         37.0500   -2.4530   35.5210 O.2    22  TYR22      -0.2715
     21  CB        39.9750   -1.6540   35.0070 C.3    22  TYR22       0.0574
     22  CG        41.1400   -1.7750   34.0620 C.ar   22  TYR22      -0.0198
     23  CD1       41.0730   -2.6120   32.9450 C.ar   22  TYR22      -0.0009
     24  CD2       42.3330   -1.1070   34.3130 C.ar   22  TYR22      -0.0009
     25  CE1       42.1590   -2.7350   32.0650 C.ar   22  TYR22       0.0417
     26  CE2       43.4270   -1.2290   33.4490 C.ar   22  TYR22       0.0417
     27  CZ        43.3370   -2.0410   32.3260 C.ar   22  TYR22       0.1957
     28  OH        44.4330   -2.1730   31.4740 O.3    22  TYR22      -0.2866
     29  N         37.0850   -0.2440   35.9220 N.am   23  GLY23      -0.1940
     30  CA        35.9380   -0.2700   36.8090 C.3    23  GLY23       0.2014
     31  C         36.2280   -0.7470   38.2170 C.2    23  GLY23       0.2639
     32  O         35.5190   -1.6100   38.7240 O.2    23  GLY23      -0.2714
     33  N         37.2560   -0.1840   38.8570 N.am   24  PHE24      -0.1959
     34  CA        37.4710   -0.4140   40.2910 C.3    24  PHE24       0.1771
     35  C         38.2140    0.7500   40.9330 C.2    24  PHE24       0.2620
     36  O         38.8170    1.5710   40.2340 O.2    24  PHE24      -0.2715
     37  CB        38.2170   -1.7390   40.5420 C.3    24  PHE24       0.0574
     38  CG        39.6710   -1.7300   40.1470 C.ar   24  PHE24      -0.0200
     39  CD1       40.0510   -1.9450   38.8280 C.ar   24  PHE24      -0.0042
     40  CD2       40.6600   -1.5620   41.1040 C.ar   24  PHE24      -0.0042
     41  CE1       41.3910   -1.9700   38.4660 C.ar   24  PHE24      -0.0003
     42  CE2       42.0080   -1.5820   40.7550 C.ar   24  PHE24      -0.0003
     43  CZ        42.3760   -1.7900   39.4290 C.ar   24  PHE24      -0.0000
     44  N         38.1390    0.8370   42.2610 N.am   25  SER25      -0.1936
     45  CA        38.8990    1.8380   43.0020 C.3    25  SER25       0.2055
     46  C         39.7750    1.1910   44.0760 C.2    25  SER25       0.2643
     47  O         39.4310    0.1320   44.5810 O.2    25  SER25      -0.2714
     48  CB        37.9540    2.8690   43.6240 C.3    25  SER25       0.2130
     49  OG        37.0740    2.2700   44.5590 O.3    25  SER25      -0.2179
     50  N         40.9040    1.8330   44.3910 N.am   26  LEU26      -0.1963
     51  CA        41.8730    1.3700   45.3920 C.3    26  LEU26       0.1728
     52  C         42.0900    2.4190   46.4800 C.2    26  LEU26       0.2617
     53  O         42.0810    3.6120   46.1960 O.2    26  LEU26      -0.2715
     54  CB        43.2270    1.0490   44.7490 C.3    26  LEU26       0.0311
     55  CG        43.2790   -0.0130   43.6580 C.3    26  LEU26       0.0022
     56  CD1       44.7030   -0.1500   43.1360 C.3    26  LEU26       0.0001
     57  CD2       42.7530   -1.3570   44.1690 C.3    26  LEU26       0.0001
     58  N         42.2530    1.9780   47.7240 N.am   27  SER27      -0.1936
     59  CA        42.7060    2.8520   48.8080 C.3    27  SER27       0.2055
     60  C         44.0960    2.4570   49.2630 C.2    27  SER27       0.2644
     61  O         44.3630    1.2710   49.4360 O.2    27  SER27      -0.2714
     62  CB        41.7460    2.7910   50.0050 C.3    27  SER27       0.2130
     63  OG        40.4230    3.1690   49.6500 O.3    27  SER27      -0.2179
     64  N         44.9420    3.4480   49.5370 N.am   28  SER28      -0.1935
     65  CA        46.2930    3.2310   50.0700 C.3    28  SER28       0.2055
     66  C         46.3340    3.6040   51.5690 C.2    28  SER28       0.2642
     67  O         45.8510    4.6620   51.9720 O.2    28  SER28      -0.2714
     68  CB        47.3030    4.0700   49.2900 C.3    28  SER28       0.2130
     69  OG        48.6270    3.8380   49.7390 O.3    28  SER28      -0.2179
     70  N         46.8930    2.7390   52.4070 N.am   29  VAL29      -0.1977
     71  CA        46.9180    3.0370   53.8320 C.3    29  VAL29       0.1596
     72  C         48.1240    2.3860   54.4900 C.2    29  VAL29       0.2287
     73  O         48.6250    1.3700   53.9930 O.2    29  VAL29      -0.2864
     74  CB        45.6170    2.5650   54.5420 C.3    29  VAL29       0.0276
     75  CG1       45.5630    1.0410   54.6070 C.3    29  VAL29       0.0022
     76  CG2       45.5390    3.1260   55.9330 C.3    29  VAL29       0.0022
     77  N         47.6020   -1.7020   49.8760 N.3    37  LEU37      -0.1245
     78  CA        46.5690   -1.2950   48.9120 C.3    37  LEU37       0.1561
     79  C         45.3460   -2.2070   48.9990 C.2    37  LEU37       0.2260
     80  O         45.4850   -3.4290   48.8510 O.2    37  LEU37      -0.2867
     81  CB        47.1060   -1.3350   47.4790 C.3    37  LEU37       0.0270
     82  CG        48.1210   -0.2860   47.0260 C.3    37  LEU37       0.0019
     83  CD1       48.7500   -0.6840   45.7130 C.3    37  LEU37       0.0001
     84  CD2       47.3900    1.0410   46.8460 C.3    37  LEU37       0.0001
     85  N         38.5730   -0.8470   47.1610 N.3    40  ASN40      -0.1225
     86  CA        37.5010   -0.1100   47.8220 C.3    40  ASN40       0.1785
     87  C         36.1780   -0.4700   47.1660 C.2    40  ASN40       0.2597
     88  O         35.1850   -0.7310   47.8380 O.2    40  ASN40      -0.2718
     89  CB        37.7720    1.4060   47.7230 C.3    40  ASN40       0.1169
     90  CG        36.8010    2.2490   48.5410 C.2    40  ASN40       0.2627
     91  OD1       35.6000    1.9760   48.5890 O.2    40  ASN40      -0.2716
     92  ND2       37.3230    3.2950   49.1840 N.am   40  ASN40      -0.0877
     93  N         36.1780   -0.5080   45.8370 N.am   41  SER41      -0.1952
     94  CA        34.9570   -0.7820   45.1050 C.3    41  SER41       0.1924
     95  C         35.2420   -1.4120   43.7700 C.2    41  SER41       0.2314
     96  O         36.3060   -1.1740   43.1850 O.2    41  SER41      -0.2863
     97  CB        34.1650    0.5100   44.8790 C.3    41  SER41       0.2116
     98  OG        34.7270    1.2600   43.8160 O.3    41  SER41      -0.2180
     99  N         52.0270    6.7890   43.4790 N.3    72  SER72      -0.1217
    100  CA        50.8240    7.0890   42.7030 C.3    72  SER72       0.1889
    101  C         51.1750    7.3900   41.2410 C.2    72  SER72       0.2288
    102  O         50.3520    7.2040   40.3540 O.2    72  SER72      -0.2866
    103  CB        50.0350    8.2450   43.3180 C.3    72  SER72       0.2089
    104  OG        50.7690    9.4420   43.2690 O.3    72  SER72      -0.2183
    105  N         51.5980    4.0500   39.5270 N.3    75  MET75      -0.1230
    106  CA        50.2980    3.4010   39.3710 C.3    75  MET75       0.1702
    107  C         49.4810    4.0110   38.2380 C.2    75  MET75       0.2592
    108  O         48.8480    3.2870   37.4740 O.2    75  MET75      -0.2718
    109  CB        49.4770    3.4650   40.6650 C.3    75  MET75       0.0401
    110  CG        49.9190    2.4700   41.7070 C.3    75  MET75       0.0596
    111  SD        48.6710    2.2820   42.9870 S.3    75  MET75      -0.1393
    112  CE        48.6470    3.9340   43.6830 C.3    75  MET75       0.0692
    113  N         49.4660    5.3360   38.1480 N.am   76  GLU76      -0.1979
    114  CA        48.7570    6.0080   37.0630 C.3    76  GLU76       0.1602
    115  C         49.3470    5.6010   35.7170 C.2    76  GLU76       0.2287
    116  O         48.6230    5.3890   34.7460 O.2    76  GLU76      -0.2864
    117  CB        48.8230    7.5300   37.2320 C.3    76  GLU76       0.0415
    118  CG        48.0370    8.0670   38.4240 C.3    76  GLU76       0.1163
    119  CD        46.5270    8.0370   38.1980 C.2    76  GLU76       0.3649
    120  OE1       46.0900    7.9120   37.0250 O.co2  76  GLU76      -0.2457
    121  OE2       45.7780    8.1620   39.1930 O.co2  76  GLU76      -0.2457
    122  N         48.2810    1.8640   34.9150 N.3    79  PHE79      -0.1241
    123  CA        46.8710    1.6660   34.5950 C.3    79  PHE79       0.1605
    124  C         46.4160    2.4530   33.3670 C.2    79  PHE79       0.2264
    125  O         45.2610    2.3520   32.9490 O.2    79  PHE79      -0.2867
    126  CB        45.9980    2.0020   35.8090 C.3    79  PHE79       0.0534
    127  CG        46.0400    0.9440   36.8740 C.ar   79  PHE79      -0.0203
    128  CD1       45.4380   -0.2860   36.6600 C.ar   79  PHE79      -0.0042
    129  CD2       46.6990    1.1530   38.0650 C.ar   79  PHE79      -0.0042
    130  CE1       45.4750   -1.2740   37.6170 C.ar   79  PHE79      -0.0003
    131  CE2       46.7340    0.1580   39.0310 C.ar   79  PHE79      -0.0003
    132  CZ        46.1200   -1.0560   38.8000 C.ar   79  PHE79      -0.0000
@<TRIPOS>BOND
     1     4     3    2
     2     3     2    1
     3     5     2    1
     4     5     6    1
     5     2     1    1
     6     7     6    1
     7     7     8    1
     8     8     9    1
     9    10    11    1
    10    28    27    1
    11    25    27   ar
    12    25    23   ar
    13    13    12    2
    14    27    26   ar
    15    11    12    1
    16    11    14    1
    17    16    14    1
    18    12    17   am
    19    23    22   ar
    20   125   124    2
    21    14    15    1
    22   124   123    1
    23    26    24   ar
    24    17    18    1
    25    22    24   ar
    26    22    21    1
    27    18    21    1
    28    18    19    1
    29   123   122    1
    30   123   126    1
    31   116   115    2
    32    19    20    2
    33    19    29   am
    34   115   114    1
    35   126   127    1
    36    29    30    1
    37   128   127   ar
    38   128   130   ar
    39    30    31    1
    40   127   129   ar
    41   120   119   ar
    42   114   117    1
    43   114   113    1
    44   117   118    1
    45   108   107    2
    46   130   132   ar
    47   129   131   ar
    48   113   107   am
    49   119   118    1
    50   119   121   ar
    51    31    32    2
    52    31    33   am
    53   107   106    1
    54    41    39   ar
    55    41    43   ar
    56   132   131   ar
    57    39    38   ar
    58    33    34    1
    59   106   105    1
    60   106   109    1
    61    43    42   ar
    62    38    37    1
    63    38    40   ar
    64    36    35    2
    65    34    37    1
    66    34    35    1
    67   102   101    2
    68   109   110    1
    69    42    40   ar
    70    35    44   am
    71   101   100    1
    72   110   111    1
    73    44    45    1
    74   100   103    1
    75   100    99    1
    76   111   112    1
    77    45    48    1
    78    45    46    1
    79    56    55    1
    80    96    95    2
    81   104   103    1
    82    48    49    1
    83    55    57    1
    84    55    54    1
    85    95    94    1
    86    98    97    1
    87    46    50   am
    88    46    47    2
    89    50    51    1
    90    54    51    1
    91    97    94    1
    92    94    93    1
    93    51    52    1
    94    83    82    1
    95    93    87   am
    96    53    52    2
    97    52    58   am
    98    84    82    1
    99    82    81    1
   100    85    86    1
   101    87    86    1
   102    87    88    2
   103    81    78    1
   104    89    86    1
   105    89    90    1
   106    58    59    1
   107    90    91    2
   108    90    92   am
   109    59    60    1
   110    59    62    1
   111    80    79    2
   112    78    79    1
   113    78    77    1
   114    60    61    2
   115    60    64   am
   116    68    69    1
   117    68    65    1
   118    64    65    1
   119    63    62    1
   120    65    66    1
   121    66    67    2
   122    66    70   am
   123    70    71    1
   124    71    72    1
   125    71    74    1
   126    73    72    2
   127    74    75    1
   128    74    76    1
