@<TRIPOS>MOLECULE
tmp/4nxrA00.pdb
 169 163 0 0 0
SMALL
GASTEIGER

@<TRIPOS>ATOM
      1  N         -7.8120   -7.4300   -4.6540 N.3    14  LYS14      -0.1245
      2  CA        -7.2990   -6.3630   -3.8080 C.3    14  LYS14       0.1561
      3  C         -7.5270   -6.6350   -2.3150 C.2    14  LYS14       0.2260
      4  O         -6.7370   -6.1700   -1.4830 O.2    14  LYS14      -0.2867
      5  CB        -7.9240   -5.0200   -4.2070 C.3    14  LYS14       0.0271
      6  CG        -7.3690   -4.4750   -5.5270 C.3    14  LYS14       0.0035
      7  CD        -8.0410   -3.1700   -5.9090 C.3    14  LYS14       0.0206
      8  CE        -7.6280   -2.7040   -7.3090 C.3    14  LYS14       0.1093
      9  NZ        -8.5720   -1.6280   -7.7990 N.3    14  LYS14      -0.1314
     10  N         -4.5590   -2.3390   -0.9030 N.3    20  ASP20      -0.1225
     11  CA        -5.3400   -2.2920   -2.1330 C.3    20  ASP20       0.1805
     12  C         -4.4620   -2.1070   -3.3580 C.2    20  ASP20       0.2598
     13  O         -4.9030   -1.5500   -4.3670 O.2    20  ASP20      -0.2718
     14  CB        -6.3960   -1.1770   -2.0750 C.3    20  ASP20       0.1424
     15  CG        -7.7920   -1.7080   -1.7940 C.2    20  ASP20       0.3668
     16  OD1       -7.9190   -2.7990   -1.1820 O.co2  20  ASP20      -0.2456
     17  OD2       -8.7670   -1.0380   -2.1930 O.co2  20  ASP20      -0.2456
     18  N         -3.2110   -2.5500   -3.2720 N.am   21  THR21      -0.1939
     19  CA        -2.3470   -2.5470   -4.4410 C.3    21  THR21       0.2028
     20  C         -1.7380   -3.9380   -4.5690 C.2    21  THR21       0.2642
     21  O         -1.3820   -4.5540   -3.5710 O.2    21  THR21      -0.2714
     22  CB        -1.2410   -1.4560   -4.3760 C.3    21  THR21       0.1808
     23  OG1       -0.2130   -1.8440   -3.4610 O.3    21  THR21      -0.2208
     24  CG2       -1.8180   -0.1020   -3.9480 C.3    21  THR21       0.0379
     25  N         -1.6810   -4.4360   -5.8010 N.am   22  TYR22      -0.1959
     26  CA        -1.1520   -5.7750   -6.1010 C.3    22  TYR22       0.1771
     27  C          0.3650   -5.8110   -6.0480 C.2    22  TYR22       0.2620
     28  O          0.9710   -6.8620   -5.8840 O.2    22  TYR22      -0.2715
     29  CB        -1.5940   -6.2330   -7.4930 C.3    22  TYR22       0.0574
     30  CG        -3.0940   -6.2900   -7.7410 C.ar   22  TYR22      -0.0198
     31  CD1       -3.9080   -7.1290   -6.9900 C.ar   22  TYR22      -0.0009
     32  CD2       -3.6800   -5.5450   -8.7650 C.ar   22  TYR22      -0.0009
     33  CE1       -5.2680   -7.2100   -7.2320 C.ar   22  TYR22       0.0417
     34  CE2       -5.0450   -5.6120   -9.0120 C.ar   22  TYR22       0.0417
     35  CZ        -5.8330   -6.4560   -8.2390 C.ar   22  TYR22       0.1957
     36  OH        -7.1960   -6.5370   -8.4720 O.3    22  TYR22      -0.2866
     37  N          0.9910   -4.6600   -6.2340 N.am   23  GLY23      -0.1940
     38  CA         2.4360   -4.5920   -6.1220 C.3    23  GLY23       0.2014
     39  C          3.1640   -5.0110   -7.3890 C.2    23  GLY23       0.2639
     40  O          4.2020   -5.6830   -7.3290 O.2    23  GLY23      -0.2714
     41  N          2.6230   -4.6160   -8.5390 N.am   24  PHE24      -0.1959
     42  CA         3.3630   -4.7370   -9.7980 C.3    24  PHE24       0.1771
     43  C          2.9200   -3.6680  -10.7760 C.2    24  PHE24       0.2620
     44  O          1.9200   -2.9820  -10.5550 O.2    24  PHE24      -0.2715
     45  CB         3.2000   -6.1320  -10.4130 C.3    24  PHE24       0.0574
     46  CG         1.8430   -6.3960  -11.0410 C.ar   24  PHE24      -0.0200
     47  CD1        0.7190   -6.5910  -10.2540 C.ar   24  PHE24      -0.0042
     48  CD2        1.7150   -6.5040  -12.4170 C.ar   24  PHE24      -0.0042
     49  CE1       -0.5110   -6.8620  -10.8340 C.ar   24  PHE24      -0.0003
     50  CE2        0.4900   -6.7720  -13.0080 C.ar   24  PHE24      -0.0003
     51  CZ        -0.6250   -6.9520  -12.2140 C.ar   24  PHE24      -0.0000
     52  N          3.6710   -3.4980  -11.8520 N.am   25  SER25      -0.1936
     53  CA         3.2270   -2.5680  -12.8610 C.3    25  SER25       0.2055
     54  C          3.1080   -3.3060  -14.1950 C.2    25  SER25       0.2643
     55  O          3.6410   -4.4040  -14.3340 O.2    25  SER25      -0.2714
     56  CB         4.1810   -1.3680  -12.9490 C.3    25  SER25       0.2130
     57  OG         5.4210   -1.7360  -13.4970 O.3    25  SER25      -0.2179
     58  N          2.3700   -2.7250  -15.1400 N.am   26  LEU26      -0.1963
     59  CA         2.2610   -3.2640  -16.4990 C.3    26  LEU26       0.1728
     60  C          2.8320   -2.2390  -17.4530 C.2    26  LEU26       0.2617
     61  O          2.3880   -1.0800  -17.4440 O.2    26  LEU26      -0.2715
     62  CB         0.8090   -3.5650  -16.9010 C.3    26  LEU26       0.0311
     63  CG        -0.0560   -4.6030  -16.1840 C.3    26  LEU26       0.0022
     64  CD1       -0.5780   -4.0550  -14.8630 C.3    26  LEU26       0.0001
     65  CD2       -1.2200   -5.0030  -17.0560 C.3    26  LEU26       0.0001
     66  N          3.8030   -2.6620  -18.2590 N.am   27  SER27      -0.1936
     67  CA         4.4550   -1.8100  -19.2500 C.3    27  SER27       0.2055
     68  C          3.8270   -2.0110  -20.6130 C.2    27  SER27       0.2644
     69  O          3.8270   -3.1130  -21.1360 O.2    27  SER27      -0.2714
     70  CB         5.9530   -2.1170  -19.3410 C.3    27  SER27       0.2130
     71  OG         6.6360   -1.8480  -18.1230 O.3    27  SER27      -0.2179
     72  N          3.2930   -0.9450  -21.1880 N.am   28  SER28      -0.1935
     73  CA         2.7990   -1.0200  -22.5410 C.3    28  SER28       0.2055
     74  C          3.9220   -0.6070  -23.4730 C.2    28  SER28       0.2643
     75  O          4.4200    0.5180  -23.3830 O.2    28  SER28      -0.2714
     76  CB         1.5720   -0.1320  -22.7340 C.3    28  SER28       0.2130
     77  OG         1.1950   -0.1160  -24.1060 O.3    28  SER28      -0.2179
     78  N          4.3360   -1.5160  -24.3560 N.am   29  VAL29      -0.1963
     79  CA         5.4720   -1.2300  -25.2160 C.3    29  VAL29       0.1727
     80  C          5.1980   -1.5470  -26.6790 C.2    29  VAL29       0.2616
     81  O          4.3150   -2.3390  -27.0110 O.2    29  VAL29      -0.2715
     82  CB         6.7400   -2.0110  -24.7900 C.3    29  VAL29       0.0290
     83  CG1        7.0120   -1.8630  -23.2920 C.3    29  VAL29       0.0023
     84  CG2        6.6240   -3.4790  -25.1750 C.3    29  VAL29       0.0023
     85  N          5.9540   -0.8880  -27.5500 N.am   30  GLU30      -0.1977
     86  CA         6.0280   -1.2670  -28.9540 C.3    30  GLU30       0.1602
     87  C          7.3770   -1.9170  -29.1330 C.2    30  GLU30       0.2287
     88  O          8.4090   -1.3020  -28.8780 O.2    30  GLU30      -0.2864
     89  CB         5.8660   -0.0620  -29.8830 C.3    30  GLU30       0.0415
     90  CG         6.0640   -0.3760  -31.3710 C.3    30  GLU30       0.1163
     91  CD         7.4680   -0.0180  -31.8530 C.2    30  GLU30       0.3649
     92  OE1        8.0050    1.0210  -31.4060 O.co2  30  GLU30      -0.2457
     93  OE2        8.0410   -0.7800  -32.6630 O.co2  30  GLU30      -0.2457
     94  N          2.7540   -4.3960  -30.5530 N.3    35  ARG35      -0.1245
     95  CA         2.3300   -3.9420  -29.2310 C.3    35  ARG35       0.1563
     96  C          2.2690   -5.0960  -28.2260 C.2    35  ARG35       0.2260
     97  O          1.6250   -6.1240  -28.4740 O.2    35  ARG35      -0.2867
     98  CB         0.9770   -3.2330  -29.3260 C.3    35  ARG35       0.0307
     99  CG         1.0450   -1.9920  -30.2170 C.3    35  ARG35       0.0489
    100  CD         0.3520   -0.7910  -29.5870 C.3    35  ARG35       0.2205
    101  NE         0.8820   -0.5010  -28.2560 N.pl3  35  ARG35      -0.0865
    102  CZ         1.8450    0.3840  -28.0020 C.cat  35  ARG35       0.5346
    103  NH1        2.3960    1.0890  -28.9890 N.pl3  35  ARG35       0.1354
    104  NH2        2.2540    0.5660  -26.7530 N.pl3  35  ARG35       0.1354
    105  N          2.2970   -6.2350  -23.7610 N.3    37  LEU37      -0.1245
    106  CA         2.1410   -5.8230  -22.3810 C.3    37  LEU37       0.1561
    107  C          3.0690   -6.6830  -21.5550 C.2    37  LEU37       0.2260
    108  O          3.0570   -7.8990  -21.6730 O.2    37  LEU37      -0.2867
    109  CB         0.6970   -5.9850  -21.8940 C.3    37  LEU37       0.0270
    110  CG        -0.3650   -4.9120  -22.1400 C.3    37  LEU37       0.0019
    111  CD1       -1.7330   -5.3880  -21.6220 C.3    37  LEU37       0.0001
    112  CD2        0.0200   -3.6140  -21.4640 C.3    37  LEU37       0.0001
    113  N          6.1290   -5.5690  -14.9160 N.3    40  ASN40      -0.1225
    114  CA         7.3040   -4.8220  -14.4750 C.3    40  ASN40       0.1785
    115  C          7.1370   -4.4690  -12.9910 C.2    40  ASN40       0.2597
    116  O          6.0570   -4.6960  -12.4070 O.2    40  ASN40      -0.2718
    117  CB         7.4760   -3.5570  -15.3220 C.3    40  ASN40       0.1169
    118  CG         8.9240   -3.1900  -15.5470 C.2    40  ASN40       0.2627
    119  OD1        9.8060   -3.5760  -14.7810 O.2    40  ASN40      -0.2716
    120  ND2        9.1800   -2.4400  -16.6150 N.am   40  ASN40      -0.0877
    121  N          8.2000   -3.9520  -12.3750 N.am   41  SER41      -0.1952
    122  CA         8.1340   -3.3550  -11.0310 C.3    41  SER41       0.1924
    123  C          7.4220   -4.2160   -9.9970 C.2    41  SER41       0.2314
    124  O          6.5190   -3.7260   -9.3050 O.2    41  SER41      -0.2863
    125  CB         7.4360   -1.9960  -11.0810 C.3    41  SER41       0.2116
    126  OG         7.8690   -1.2390  -12.1940 O.3    41  SER41      -0.2180
    127  N          6.9840   -5.6430   -6.6150 N.3    43  LYS43      -0.1245
    128  CA         7.4100   -5.4200   -5.2450 C.3    43  LYS43       0.1561
    129  C          7.6800   -6.7460   -4.5480 C.2    43  LYS43       0.2260
    130  O          6.8620   -7.6700   -4.5940 O.2    43  LYS43      -0.2867
    131  CB         6.3600   -4.6240   -4.4640 C.3    43  LYS43       0.0271
    132  CG         6.1580   -3.1940   -4.9860 C.3    43  LYS43       0.0035
    133  CD         5.0930   -2.4550   -4.1650 C.3    43  LYS43       0.0206
    134  CE         4.7350   -1.1210   -4.7890 C.3    43  LYS43       0.1093
    135  NZ         3.6230   -0.4790   -4.0310 N.3    43  LYS43      -0.1314
    136  N         -6.7490    1.4460  -23.8700 N.3    72  SER72      -0.1217
    137  CA        -6.4820    2.0700  -22.5810 C.3    72  SER72       0.1889
    138  C         -7.7680    2.2160  -21.7770 C.2    72  SER72       0.2288
    139  O         -7.7370    2.1580  -20.5530 O.2    72  SER72      -0.2866
    140  CB        -5.7940    3.4290  -22.7560 C.3    72  SER72       0.2089
    141  OG        -6.6000    4.3190  -23.5060 O.3    72  SER72      -0.2183
    142  N         -8.1890   -1.1150  -20.0850 N.3    75  MET75      -0.1230
    143  CA        -7.1530   -1.2370  -19.0600 C.3    75  MET75       0.1702
    144  C         -7.5660   -0.5210  -17.7800 C.2    75  MET75       0.2592
    145  O         -7.4640   -1.0630  -16.6820 O.2    75  MET75      -0.2718
    146  CB        -5.8230   -0.6560  -19.5670 C.3    75  MET75       0.0401
    147  CG        -5.1970   -1.4200  -20.7120 C.3    75  MET75       0.0596
    148  SD        -4.5930   -3.0340  -20.1900 S.3    75  MET75      -0.1393
    149  CE        -3.2530   -2.5290  -19.1160 C.3    75  MET75       0.0692
    150  N         -8.0100    0.7220  -17.9260 N.am   76  GLU76      -0.1979
    151  CA        -8.3750    1.5070  -16.7620 C.3    76  GLU76       0.1602
    152  C         -9.6000    0.9080  -16.0860 C.2    76  GLU76       0.2287
    153  O         -9.6750    0.8340  -14.8670 O.2    76  GLU76      -0.2864
    154  CB        -8.6180    2.9590  -17.1650 C.3    76  GLU76       0.0415
    155  CG        -7.3390    3.6710  -17.5820 C.3    76  GLU76       0.1163
    156  CD        -7.5900    5.0830  -18.0500 C.2    76  GLU76       0.3649
    157  OE1       -8.7500    5.5380  -17.9470 O.co2  76  GLU76      -0.2457
    158  OE2       -6.6280    5.7330  -18.5300 O.co2  76  GLU76      -0.2457
    159  N         -8.4790   -2.3420  -14.1290 N.3    79  PHE79      -0.1241
    160  CA        -7.6850   -2.1950  -12.9120 C.3    79  PHE79       0.1605
    161  C         -8.3350   -1.2600  -11.8820 C.2    79  PHE79       0.2264
    162  O         -7.8020   -1.0560  -10.7970 O.2    79  PHE79      -0.2867
    163  CB        -6.2580   -1.7770  -13.2830 C.3    79  PHE79       0.0534
    164  CG        -5.4690   -2.9230  -13.8660 C.ar   79  PHE79      -0.0203
    165  CD1       -4.9560   -3.9120  -13.0410 C.ar   79  PHE79      -0.0042
    166  CD2       -5.3260   -3.0650  -15.2290 C.ar   79  PHE79      -0.0042
    167  CE1       -4.2760   -4.9980  -13.5700 C.ar   79  PHE79      -0.0003
    168  CE2       -4.6550   -4.1420  -15.7620 C.ar   79  PHE79      -0.0003
    169  CZ        -4.1260   -5.1150  -14.9310 C.ar   79  PHE79      -0.0000
@<TRIPOS>BOND
     1    93    91   ar
     2    91    92   ar
     3    91    90    1
     4    90    89    1
     5    94    95    1
     6    99   100    1
     7    99    98    1
     8    89    86    1
     9   100   101    1
    10    98    95    1
    11    95    96    1
    12    87    86    1
    13    87    88    2
    14   103   102    1
    15    86    85    1
    16    97    96    2
    17   101   102    2
    18   102   104    1
    19    85    80   am
    20    81    80    2
    21    80    79    1
    22    79    82    1
    23    79    78    1
    24    84    82    1
    25    82    83    1
    26    78    74   am
    27    77    76    1
    28   136   137    1
    29   105   106    1
    30   141   140    1
    31    74    75    2
    32    74    73    1
    33   140   137    1
    34    76    73    1
    35   137   138    1
    36    73    72    1
    37   106   109    1
    38   106   107    1
    39   110   109    1
    40   110   111    1
    41   110   112    1
    42   138   139    2
    43   108   107    2
    44    72    68   am
    45    69    68    2
    46   147   148    1
    47   147   146    1
    48    68    67    1
    49   148   149    1
    50   142   143    1
    51   146   143    1
    52    70    67    1
    53    70    71    1
    54    67    66    1
    55   143   144    1
    56   158   156   ar
    57    66    60   am
    58   156   157   ar
    59   156   155    1
    60   150   144   am
    61   150   151    1
    62   144   145    2
    63   155   154    1
    64    60    61    2
    65    60    59    1
    66   154   151    1
    67    65    63    1
    68    62    59    1
    69    62    63    1
    70   151   152    1
    71   120   118   am
    72    59    58    1
    73    63    64    1
    74   152   153    2
    75   168   166   ar
    76   168   169   ar
    77   118   117    1
    78   118   119    2
    79   117   114    1
    80   166   164   ar
    81    58    54   am
    82   169   167   ar
    83   113   114    1
    84   114   115    1
    85    55    54    2
    86    54    53    1
    87   159   160    1
    88   164   163    1
    89   164   165   ar
    90   167   165   ar
    91    57    56    1
    92   163   160    1
    93    50    48   ar
    94    50    51   ar
    95   115   116    2
    96   115   121   am
    97    56    53    1
    98   160   161    1
    99    53    52    1
   100    48    46   ar
   101   121   122    1
   102    51    49   ar
   103   126   125    1
   104   161   162    2
   105    52    43   am
   106   125   122    1
   107    46    45    1
   108    46    47   ar
   109   122   123    1
   110    49    47   ar
   111    43    44    2
   112    43    42    1
   113    45    42    1
   114   123   124    2
   115    42    41    1
   116    34    32   ar
   117    34    35   ar
   118    32    30   ar
   119    41    39   am
   120    36    35    1
   121    35    33   ar
   122     9     8    1
   123    30    29    1
   124    30    31   ar
   125    29    26    1
   126    39    40    2
   127    39    38    1
   128     8     7    1
   129    33    31   ar
   130   127   128    1
   131    37    38    1
   132    37    27   am
   133    26    27    1
   134    26    25    1
   135    27    28    2
   136     7     6    1
   137    25    20   am
   138     6     5    1
   139   128   129    1
   140   128   131    1
   141   132   131    1
   142   132   133    1
   143   134   133    1
   144   134   135    1
   145     1     2    1
   146   130   129    2
   147    20    19    1
   148    20    21    2
   149    19    22    1
   150    19    18    1
   151    22    24    1
   152    22    23    1
   153    13    12    2
   154     5     2    1
   155     2     3    1
   156    12    18   am
   157    12    11    1
   158     3     4    2
   159    17    15   ar
   160    11    14    1
   161    11    10    1
   162    14    15    1
   163    15    16   ar
