@<TRIPOS>MOLECULE
tmp/4nxsB02.pdb
 137 130 0 0 0
SMALL
GASTEIGER

@<TRIPOS>ATOM
      1  N         49.2970  -48.3910   21.0430 N.3    16  TRP16      -0.1241
      2  CA        48.2290  -48.7020   20.0940 C.3    16  TRP16       0.1605
      3  C         47.8720  -47.6200   19.0740 C.2    16  TRP16       0.2264
      4  O         47.8080  -47.9040   17.8840 O.2    16  TRP16      -0.2867
      5  CB        46.9410  -49.0880   20.8160 C.3    16  TRP16       0.0550
      6  CG        45.9070  -49.4550   19.8050 C.ar   16  TRP16       0.0003
      7  CD1       44.8090  -48.7280   19.4470 C.ar   16  TRP16       0.0946
      8  CD2       45.9240  -50.6040   18.9510 C.ar   16  TRP16       0.0152
      9  NE1       44.1200  -49.3750   18.4480 N.ar   16  TRP16      -0.2442
     10  CE2       44.7880  -50.5260   18.1230 C.ar   16  TRP16       0.0810
     11  CE3       46.7830  -51.7000   18.8190 C.ar   16  TRP16       0.0012
     12  CZ2       44.4840  -51.5070   17.1810 C.ar   16  TRP16       0.0191
     13  CZ3       46.4820  -52.6690   17.8830 C.ar   16  TRP16       0.0001
     14  CH2       45.3420  -52.5670   17.0760 C.ar   16  TRP16       0.0015
     15  N         50.3840  -53.1370   23.6990 N.3    61  ASP61      -0.1225
     16  CA        49.0010  -53.4040   23.3250 C.3    61  ASP61       0.1805
     17  C         48.9280  -54.6790   22.4870 C.2    61  ASP61       0.2597
     18  O         49.8210  -55.5240   22.5540 O.2    61  ASP61      -0.2718
     19  CB        48.4050  -52.2190   22.5600 C.3    61  ASP61       0.1424
     20  CG        46.9170  -52.0540   22.8050 C.2    61  ASP61       0.3668
     21  OD1       46.1250  -52.8210   22.2170 O.co2  61  ASP61      -0.2456
     22  OD2       46.5390  -51.1550   23.5850 O.co2  61  ASP61      -0.2456
     23  N         47.8610  -54.8120   21.7050 N.am   62  ASP62      -0.1974
     24  CA        47.6440  -55.9890   20.8660 C.3    62  ASP62       0.1709
     25  C         48.7850  -56.2260   19.8730 C.2    62  ASP62       0.2293
     26  O         49.5730  -55.3190   19.5960 O.2    62  ASP62      -0.2864
     27  CB        46.3160  -55.8530   20.1140 C.3    62  ASP62       0.1436
     28  CG        45.7460  -57.1920   19.6820 C.2    62  ASP62       0.3671
     29  OD1       46.4480  -58.2160   19.8190 O.co2  62  ASP62      -0.2456
     30  OD2       44.5890  -57.2220   19.2140 O.co2  62  ASP62      -0.2456
     31  N         48.9690  -57.0160   27.0510 N.3   103  TYR103     -0.1241
     32  CA        47.5930  -57.0240   26.5640 C.3   103  TYR103      0.1605
     33  C         47.0340  -58.4380   26.3900 C.2   103  TYR103      0.2264
     34  O         47.7140  -59.3250   25.8750 O.2   103  TYR103     -0.2867
     35  CB        47.5340  -56.2420   25.2430 C.3   103  TYR103      0.0534
     36  CG        46.2650  -56.3760   24.4270 C.ar  103  TYR103     -0.0201
     37  CD1       46.0480  -57.4830   23.6130 C.ar  103  TYR103     -0.0009
     38  CD2       45.2980  -55.3810   24.4460 C.ar  103  TYR103     -0.0009
     39  CE1       44.9000  -57.6040   22.8620 C.ar  103  TYR103      0.0417
     40  CE2       44.1460  -55.4930   23.6930 C.ar  103  TYR103      0.0417
     41  CZ        43.9530  -56.6070   22.9020 C.ar  103  TYR103      0.1957
     42  OH        42.8100  -56.7300   22.1470 O.3   103  TYR103     -0.2866
     43  N         41.4710  -58.7170   19.5040 N.3   111  CYS111     -0.1221
     44  CA        40.7360  -58.0270   18.4490 C.3   111  CYS111      0.1808
     45  C         41.4540  -58.1770   17.1110 C.2   111  CYS111      0.2601
     46  O         40.8240  -58.1530   16.0550 O.2   111  CYS111     -0.2717
     47  CB        40.5470  -56.5500   18.7900 C.3   111  CYS111      0.0970
     48  SG        39.4740  -56.2560   20.2140 S.3   111  CYS111     -0.0800
     49  N         42.7730  -58.3430   17.1610 N.am  112  ALA112     -0.1979
     50  CA        43.5640  -58.5330   15.9480 C.3   112  ALA112      0.1597
     51  C         43.8020  -60.0060   15.6120 C.2   112  ALA112      0.2287
     52  O         44.7110  -60.3320   14.8490 O.2   112  ALA112     -0.2864
     53  CB        44.8900  -57.8090   16.0720 C.3   112  ALA112      0.0319
     54  N         46.2530  -54.8520   30.3030 N.3   137  LYS137     -0.1245
     55  CA        45.1310  -54.2910   29.5640 C.3   137  LYS137      0.1561
     56  C         44.2960  -55.4360   29.0030 C.2   137  LYS137      0.2260
     57  O         44.7820  -56.2390   28.2070 O.2   137  LYS137     -0.2867
     58  CB        45.6160  -53.3690   28.4470 C.3   137  LYS137      0.0271
     59  CG        44.4980  -52.7650   27.6140 C.3   137  LYS137      0.0035
     60  CD        45.0390  -51.7430   26.6300 C.3   137  LYS137      0.0206
     61  CE        43.9730  -51.3130   25.6380 C.3   137  LYS137      0.1093
     62  NZ        44.5180  -50.3770   24.6180 N.3   137  LYS137     -0.1314
     63  N         41.1690  -56.7440   26.9500 N.3   139  ASP139     -0.1239
     64  CA        40.2050  -56.3670   25.9200 C.3   139  ASP139      0.1674
     65  C         38.9940  -57.2980   25.8950 C.2   139  ASP139      0.2266
     66  O         39.0030  -58.3570   26.5230 O.2   139  ASP139     -0.2867
     67  CB        40.8790  -56.3490   24.5510 C.3   139  ASP139      0.1410
     68  CG        40.3470  -55.2520   23.6530 C.2   139  ASP139      0.3668
     69  OD1       39.2520  -54.7280   23.9390 O.co2 139  ASP139     -0.2456
     70  OD2       41.0260  -54.9110   22.6630 O.co2 139  ASP139     -0.2456
     71  N         37.0430  -58.1970   22.8050 N.3   141  CYS141     -0.1235
     72  CA        36.6180  -58.6470   21.4810 C.3   141  CYS141      0.1677
     73  C         36.2900  -60.1360   21.4400 C.2   141  CYS141      0.2270
     74  O         36.7070  -60.8970   22.3110 O.2   141  CYS141     -0.2867
     75  CB        37.6880  -58.3290   20.4360 C.3   141  CYS141      0.0956
     76  SG        37.5530  -56.6770   19.7190 S.3   141  CYS141     -0.0801
     77  N         38.3050  -53.2210   29.7260 N.3   172  GLU172     -0.1245
     78  CA        37.4720  -52.5880   28.7120 C.3   172  GLU172      0.1567
     79  C         36.0530  -53.1180   28.8720 C.2   172  GLU172      0.2260
     80  O         35.2200  -53.0110   27.9710 O.2   172  GLU172     -0.2867
     81  CB        38.0100  -52.8580   27.3080 C.3   172  GLU172      0.0388
     82  CG        39.4340  -52.3700   27.0980 C.3   172  GLU172      0.1160
     83  CD        39.7160  -52.0060   25.6560 C.2   172  GLU172      0.3649
     84  OE1       38.7690  -51.5990   24.9510 O.co2 172  GLU172     -0.2457
     85  OE2       40.8830  -52.1230   25.2280 O.co2 172  GLU172     -0.2457
     86  N         32.8040  -50.9200   28.1630 N.3   175  LEU175     -0.1231
     87  CA        32.6850  -50.5790   26.7460 C.3   175  LEU175      0.1693
     88  C         31.9820  -51.6800   25.9490 C.2   175  LEU175      0.2592
     89  O         31.1150  -51.4010   25.1220 O.2   175  LEU175     -0.2718
     90  CB        34.0660  -50.2990   26.1480 C.3   175  LEU175      0.0284
     91  CG        34.1420  -50.0790   24.6340 C.3   175  LEU175      0.0019
     92  CD1       33.2200  -48.9500   24.1960 C.3   175  LEU175      0.0001
     93  CD2       35.5750  -49.7980   24.2070 C.3   175  LEU175      0.0001
     94  N         32.3620  -52.9270   26.2050 N.am  176  TYR176     -0.1976
     95  CA        31.7840  -54.0740   25.5070 C.3   176  TYR176      0.1639
     96  C         30.4500  -54.5180   26.1000 C.2   176  TYR176      0.2290
     97  O         29.8330  -55.4660   25.6150 O.2   176  TYR176     -0.2864
     98  CB        32.7660  -55.2450   25.5100 C.3   176  TYR176      0.0560
     99  CG        33.9750  -55.0270   24.6310 C.ar  176  TYR176     -0.0198
    100  CD1       35.1390  -54.4700   25.1420 C.ar  176  TYR176     -0.0009
    101  CD2       33.9490  -55.3740   23.2870 C.ar  176  TYR176     -0.0009
    102  CE1       36.2440  -54.2680   24.3390 C.ar  176  TYR176      0.0417
    103  CE2       35.0490  -55.1780   22.4770 C.ar  176  TYR176      0.0417
    104  CZ        36.1950  -54.6260   23.0080 C.ar  176  TYR176      0.1957
    105  OH        37.2930  -54.4290   22.2030 O.3   176  TYR176     -0.2866
    106  N         37.7820  -48.6380   30.4030 N.3   196  ARG196     -0.1245
    107  CA        37.4220  -47.8970   29.1990 C.3   196  ARG196      0.1563
    108  C         35.9070  -47.8020   29.0350 C.2   196  ARG196      0.2260
    109  O         35.2130  -48.8170   29.0600 O.2   196  ARG196     -0.2867
    110  CB        38.0430  -48.5620   27.9700 C.3   196  ARG196      0.0307
    111  CG        39.5170  -48.2590   27.7710 C.3   196  ARG196      0.0489
    112  CD        39.6950  -46.9540   27.0200 C.3   196  ARG196      0.2205
    113  NE        38.8400  -46.9110   25.8380 N.pl3 196  ARG196     -0.0865
    114  CZ        39.1270  -47.5110   24.6860 C.cat 196  ARG196      0.5346
    115  NH1       40.2520  -48.2000   24.5550 N.pl3 196  ARG196      0.1354
    116  NH2       38.2870  -47.4220   23.6650 N.pl3 196  ARG196      0.1354
    117  N         34.2090  -45.5670   22.7650 N.3   199  ALA199     -0.1231
    118  CA        34.9420  -46.0420   21.5910 C.3   199  ALA199      0.1694
    119  C         36.3670  -45.4970   21.5230 C.2   199  ALA199      0.2592
    120  O         36.6670  -44.4460   22.0900 O.2   199  ALA199     -0.2718
    121  CB        34.1860  -45.6780   20.3230 C.3   199  ALA199      0.0304
    122  N         37.2350  -46.2330   20.8320 N.am  200  ASP200     -0.1974
    123  CA        38.6400  -45.8610   20.6720 C.3   200  ASP200      0.1709
    124  C         38.8510  -44.4220   20.2320 C.2   200  ASP200      0.2293
    125  O         38.1370  -43.9060   19.3740 O.2   200  ASP200     -0.2864
    126  CB        39.3310  -46.7750   19.6600 C.3   200  ASP200      0.1436
    127  CG        39.3700  -48.2160   20.1000 C.2   200  ASP200      0.3671
    128  OD1       39.0060  -48.5020   21.2610 O.co2 200  ASP200     -0.2456
    129  OD2       39.7820  -49.0590   19.2780 O.co2 200  ASP200     -0.2456
    130  N         43.6130  -43.0330   25.3670 N.3   236  MET236     -0.1245
    131  CA        44.9800  -42.5140   25.3640 C.3   236  MET236      0.1570
    132  C         45.1200  -41.0230   25.0660 C.2   236  MET236      0.2261
    133  O         44.2600  -40.4160   24.4300 O.2   236  MET236     -0.2867
    134  CB        45.8140  -43.2960   24.3460 C.3   236  MET236      0.0387
    135  CG        45.8900  -44.7890   24.6200 C.3   236  MET236      0.0595
    136  SD        46.3830  -45.7380   23.1670 S.3   236  MET236     -0.1393
    137  CE        44.7910  -46.0970   22.4300 C.3   236  MET236      0.0692
@<TRIPOS>BOND
     1    52    51    2
     2    51    50    1
     3    50    53    1
     4    50    49    1
     5    46    45    2
     6    14    12   ar
     7    14    13   ar
     8    45    49   am
     9    45    44    1
    10    12    10   ar
    11    13    11   ar
    12     4     3    2
    13    10     9   ar
    14    10     8   ar
    15     9     7   ar
    16    44    47    1
    17    44    43    1
    18    47    48    1
    19    11     8   ar
    20     8     6   ar
    21     3     2    1
    22    30    28   ar
    23   129   127   ar
    24   125   124    2
    25     7     6   ar
    26    26    25    2
    27   126   127    1
    28   126   123    1
    29    28    29   ar
    30    28    27    1
    31    76    48    1
    32    76    75    1
    33     6     5    1
    34    25    24    1
    35     2     5    1
    36     2     1    1
    37   127   128   ar
    38    27    24    1
    39   124   123    1
    40   121   118    1
    41    75    72    1
    42   123   122    1
    43   122   119   am
    44    24    23    1
    45    73    72    1
    46    73    74    2
    47    72    71    1
    48   119   118    1
    49   119   120    2
    50   118   117    1
    51    23    17   am
    52    42    41    1
    53   105   104    1
    54    21    20   ar
    55   137   136    1
    56   103   104   ar
    57   103   101   ar
    58    17    18    2
    59    17    16    1
    60    19    20    1
    61    19    16    1
    62    70    68   ar
    63    20    22   ar
    64    39    41   ar
    65    39    37   ar
    66    41    40   ar
    67   104   102   ar
    68   136   135    1
    69   101    99   ar
    70    16    15    1
    71    37    36   ar
    72    68    69   ar
    73    68    67    1
    74   116   114    1
    75    40    38   ar
    76    92    91    1
    77    93    91    1
    78   102   100   ar
    79   134   135    1
    80   134   131    1
    81    36    38   ar
    82    36    35    1
    83   133   132    2
    84    67    64    1
    85   115   114    1
    86    62    61    1
    87    99   100   ar
    88    99    98    1
    89    91    90    1
    90   114   113    2
    91    84    83   ar
    92   132   131    1
    93    89    88    2
    94    85    83   ar
    95    35    32    1
    96   131   130    1
    97    95    98    1
    98    95    96    1
    99    95    94    1
   100    97    96    2
   101    61    60    1
   102    83    82    1
   103   113   112    1
   104    34    33    2
   105    65    64    1
   106    65    66    2
   107    64    63    1
   108    88    94   am
   109    88    87    1
   110    90    87    1
   111    33    32    1
   112    32    31    1
   113    60    59    1
   114    87    86    1
   115   112   111    1
   116    82    81    1
   117    81    78    1
   118    59    58    1
   119   111   110    1
   120   110   107    1
   121    80    79    2
   122    57    56    2
   123    58    55    1
   124    78    79    1
   125    78    77    1
   126    56    55    1
   127   108   109    2
   128   108   107    1
   129   107   106    1
   130    55    54    1
