@<TRIPOS>MOLECULE
tmp/4nxvC00.pdb
 155 145 0 0 0
SMALL
GASTEIGER

@<TRIPOS>ATOM
      1  N        -15.7840   11.0280   18.3850 N.3    62  SER62      -0.1202
      2  CA       -15.2240    9.7260   18.0680 C.3    62  SER62       0.2020
      3  C        -14.3980    9.8420   16.7930 C.2    62  SER62       0.2619
      4  O        -14.6810   10.6870   15.9430 O.2    62  SER62      -0.2717
      5  CB       -16.3470    8.7020   17.8760 C.3    62  SER62       0.2103
      6  OG       -15.8430    7.4620   17.4150 O.3    62  SER62      -0.2182
      7  N        -13.3690    9.0100   16.6730 N.am   63  GLY63      -0.1942
      8  CA       -12.6070    8.9180   15.4410 C.3    63  GLY63       0.2014
      9  C        -11.1090    9.0540   15.6250 C.2    63  GLY63       0.2639
     10  O        -10.6170    9.1960   16.7430 O.2    63  GLY63      -0.2714
     11  N        -10.3910    9.0240   14.5080 N.am   64  SER64      -0.1949
     12  CA        -8.9330    9.0040   14.5130 C.3    64  SER64       0.1924
     13  C         -8.3380   10.2260   15.2000 C.2    64  SER64       0.2314
     14  O         -7.3660   10.1090   15.9480 O.2    64  SER64      -0.2863
     15  CB        -8.4110    8.9050   13.0780 C.3    64  SER64       0.2116
     16  OG        -8.9650    9.9210   12.2630 O.3    64  SER64      -0.2180
     17  N         -5.1180    9.9430   13.4570 N.3    70  GLN70      -0.1245
     18  CA        -5.3540   10.7400   12.2570 C.3    70  GLN70       0.1566
     19  C         -4.0220   11.2490   11.7090 C.2    70  GLN70       0.2260
     20  O         -3.1200   11.5750   12.4810 O.2    70  GLN70      -0.2867
     21  CB        -6.2890   11.9120   12.5640 C.3    70  GLN70       0.0367
     22  CG        -6.6130   12.7640   11.3500 C.3    70  GLN70       0.0905
     23  CD        -8.0260   13.3260   11.3700 C.2    70  GLN70       0.2608
     24  OE1       -8.2370   14.5180   11.1470 O.2    70  GLN70      -0.2717
     25  NE2       -9.0030   12.4630   11.6150 N.am   70  GLN70      -0.0878
     26  N        -11.0060   16.1650   10.1830 N.3    76  HIS76      -0.1241
     27  CA       -12.2890   15.4830   10.3380 C.3    76  HIS76       0.1621
     28  C        -12.4330   14.6770   11.6270 C.2    76  HIS76       0.2264
     29  O        -11.4600   14.1460   12.1670 O.2    76  HIS76      -0.2867
     30  CB       -12.5780   14.5940    9.1220 C.3    76  HIS76       0.0745
     31  CG       -11.7820   13.3270    9.0870 C.ar   76  HIS76       0.0817
     32  ND1      -10.4790   13.2760    8.6360 N.ar   76  HIS76      -0.2268
     33  CD2      -12.1120   12.0590    9.4260 C.ar   76  HIS76       0.1154
     34  CE1      -10.0390   12.0320    8.7090 C.ar   76  HIS76       0.1986
     35  NE2      -11.0110   11.2740    9.1850 N.ar   76  HIS76      -0.2212
     36  N        -15.8730   12.5320   14.1290 N.3    78  GLN78      -0.1245
     37  CA       -17.2790   12.1490   14.2510 C.3    78  GLN78       0.1566
     38  C        -17.8860   12.6120   15.5640 C.2    78  GLN78       0.2260
     39  O        -17.2710   12.4840   16.6220 O.2    78  GLN78      -0.2867
     40  CB       -17.4440   10.6290   14.1540 C.3    78  GLN78       0.0367
     41  CG       -17.3770   10.0730   12.7450 C.3    78  GLN78       0.0905
     42  CD       -15.9660   10.0560   12.1940 C.2    78  GLN78       0.2608
     43  OE1      -15.0530    9.5210   12.8190 O.2    78  GLN78      -0.2717
     44  NE2      -15.7790   10.6460   11.0210 N.am   78  GLN78      -0.0878
     45  N        -20.8540   11.2580   17.5610 N.3    80  ILE80      -0.1245
     46  CA       -21.7990   10.1570   17.6510 C.3    80  ILE80       0.1561
     47  C        -23.1130   10.6980   18.2020 C.2    80  ILE80       0.2260
     48  O        -23.1150   11.4960   19.1350 O.2    80  ILE80      -0.2867
     49  CB       -21.2710    9.0360   18.5570 C.3    80  ILE80       0.0252
     50  CG1      -19.9020    8.5540   18.0570 C.3    80  ILE80       0.0019
     51  CG2      -22.2760    7.8820   18.6240 C.3    80  ILE80       0.0019
     52  CD1      -19.9060    8.0150   16.6210 C.3    80  ILE80       0.0001
     53  N        -18.8150   15.2970   11.1100 N.3   186  ASP186     -0.1239
     54  CA       -19.9860   14.6020   10.5900 C.3   186  ASP186      0.1674
     55  C        -20.7310   13.9170   11.7290 C.2   186  ASP186      0.2266
     56  O        -20.1280   13.2760   12.5940 O.2   186  ASP186     -0.2867
     57  CB       -19.6060   13.6060    9.4860 C.3   186  ASP186      0.1410
     58  CG       -18.8540   12.4030   10.0120 C.2   186  ASP186      0.3668
     59  OD1      -17.7010   12.5700   10.4590 O.co2 186  ASP186     -0.2456
     60  OD2      -19.4100   11.2850    9.9610 O.co2 186  ASP186     -0.2456
     61  N        -23.1030   11.2090   13.3650 N.3   188  LEU188     -0.1245
     62  CA       -23.2380    9.7860   13.1110 C.3   188  LEU188      0.1561
     63  C        -24.2320    9.1500   14.0840 C.2   188  LEU188      0.2260
     64  O        -23.8550    8.7610   15.1910 O.2   188  LEU188     -0.2867
     65  CB       -21.8610    9.1320   13.2320 C.3   188  LEU188      0.0270
     66  CG       -21.7480    7.6490   12.8980 C.3   188  LEU188      0.0019
     67  CD1      -22.3780    7.3280   11.5400 C.3   188  LEU188      0.0001
     68  CD2      -20.2810    7.2600   12.9260 C.3   188  LEU188      0.0001
     69  N        -24.0420    1.9480   13.7530 N.3   199  VAL199     -0.1245
     70  CA       -23.9690    3.3330   13.3110 C.3   199  VAL199      0.1561
     71  C        -24.6480    3.5060   11.9640 C.2   199  VAL199      0.2260
     72  O        -24.8000    2.5540   11.1980 O.2   199  VAL199     -0.2867
     73  CB       -22.5170    3.8230   13.2080 C.3   199  VAL199      0.0252
     74  CG1      -21.8830    3.8810   14.5950 C.3   199  VAL199      0.0019
     75  CG2      -21.7160    2.9270   12.2590 C.3   199  VAL199      0.0019
     76  N        -23.9200    4.5980    8.9180 N.3   201  LYS201     -0.1245
     77  CA       -23.0350    4.8200    7.7800 C.3   201  LYS201      0.1561
     78  C        -23.5610    3.9800    6.6090 C.2   201  LYS201      0.2260
     79  O        -23.4660    2.7550    6.6440 O.2   201  LYS201     -0.2867
     80  CB       -21.5990    4.4150    8.1340 C.3   201  LYS201      0.0271
     81  CG       -20.5950    4.6440    7.0200 C.3   201  LYS201      0.0035
     82  CD       -20.1580    6.1020    6.9610 C.3   201  LYS201      0.0206
     83  CE       -19.0390    6.3360    5.9450 C.3   201  LYS201      0.1093
     84  NZ       -17.9900    5.2790    5.9900 N.3   201  LYS201     -0.1314
     85  N        -25.0220   -0.1540    9.9220 N.3   213  ARG213     -0.1231
     86  CA       -23.6910   -0.7420    9.8840 C.3   213  ARG213      0.1694
     87  C        -23.2420   -1.1100   11.2920 C.2   213  ARG213      0.2592
     88  O        -23.4420   -0.3430   12.2340 O.2   213  ARG213     -0.2718
     89  CB       -22.6940    0.2390    9.2630 C.3   213  ARG213      0.0321
     90  CG       -21.2990   -0.3260    9.0700 C.3   213  ARG213      0.0489
     91  CD       -20.3640    0.7250    8.4910 C.3   213  ARG213      0.2205
     92  NE       -20.8410    1.2340    7.2030 N.pl3 213  ARG213     -0.0865
     93  CZ       -20.3920    0.8400    6.0130 C.cat 213  ARG213      0.5346
     94  NH1      -19.4370   -0.0750    5.9160 N.pl3 213  ARG213      0.1354
     95  NH2      -20.9010    1.3690    4.9080 N.pl3 213  ARG213      0.1354
     96  N        -22.6380   -2.2840   11.4370 N.am  214  LEU214     -0.1966
     97  CA       -22.0530   -2.6780   12.7100 C.3   214  LEU214      0.1728
     98  C        -20.8580   -1.7790   13.0000 C.2   214  LEU214      0.2617
     99  O        -20.0220   -1.5530   12.1250 O.2   214  LEU214     -0.2715
    100  CB       -21.6130   -4.1440   12.6710 C.3   214  LEU214      0.0311
    101  CG       -21.1100   -4.7460   13.9870 C.3   214  LEU214      0.0022
    102  CD1      -22.1580   -4.6240   15.0990 C.3   214  LEU214      0.0001
    103  CD2      -20.7230   -6.2020   13.7760 C.3   214  LEU214      0.0001
    104  N        -20.7810   -1.2610   14.2220 N.am  215  SER215     -0.1936
    105  CA       -19.6640   -0.4110   14.6180 C.3   215  SER215      0.2055
    106  C        -18.4610   -1.2790   14.9670 C.2   215  SER215      0.2643
    107  O        -18.4530   -1.9500   15.9980 O.2   215  SER215     -0.2714
    108  CB       -20.0490    0.4620   15.8130 C.3   215  SER215      0.2130
    109  OG       -18.9500    1.2430   16.2440 O.3   215  SER215     -0.2179
    110  N        -17.4520   -1.2690   14.1000 N.am  216  LEU216     -0.1963
    111  CA       -16.2660   -2.1000   14.2870 C.3   216  LEU216      0.1728
    112  C        -15.1370   -1.3040   14.9310 C.2   216  LEU216      0.2616
    113  O        -14.3030   -1.8650   15.6410 O.2   216  LEU216     -0.2715
    114  CB       -15.7910   -2.6550   12.9380 C.3   216  LEU216      0.0311
    115  CG       -16.8410   -3.3670   12.0780 C.3   216  LEU216      0.0022
    116  CD1      -16.3010   -3.6090   10.6710 C.3   216  LEU216      0.0001
    117  CD2      -17.2950   -4.6780   12.7190 C.3   216  LEU216      0.0001
    118  N        -15.1250    0.0050   14.6940 N.am  217  ARG217     -0.1964
    119  CA       -13.9760    0.8410   15.0460 C.3   217  ARG217      0.1714
    120  C        -13.4890    0.7350   16.5000 C.2   217  ARG217      0.2458
    121  O        -12.2880    0.5790   16.7300 O.2   217  ARG217     -0.2730
    122  CB       -14.2290    2.3140   14.7030 C.3   217  ARG217      0.0347
    123  CG       -12.9400    3.1090   14.6820 C.3   217  ARG217      0.0492
    124  CD       -13.1300    4.5910   14.4700 C.3   217  ARG217      0.2205
    125  NE       -11.8220    5.2320   14.4280 N.pl3 217  ARG217     -0.0865
    126  CZ       -11.1210    5.5880   15.4990 C.cat 217  ARG217      0.5346
    127  NH1      -11.6050    5.4010   16.7190 N.pl3 217  ARG217      0.1354
    128  NH2       -9.9300    6.1430   15.3460 N.pl3 217  ARG217      0.1354
    129  N        -14.4020    0.8450   17.4830 N.am  218  PRO218     -0.2727
    130  CA       -13.9440    0.8240   18.8810 C.3   218  PRO218      0.1402
    131  C        -13.2050   -0.4560   19.2710 C.2   218  PRO218      0.2269
    132  O        -12.1700   -0.3860   19.9350 O.2   218  PRO218     -0.2865
    133  CB       -15.2460    0.9380   19.6770 C.3   218  PRO218      0.0296
    134  CG       -16.2050    1.6100   18.7460 C.3   218  PRO218      0.0237
    135  CD       -15.8550    1.0750   17.3880 C.3   218  PRO218      0.0939
    136  N         -1.9440    4.7030    6.3490 N.3   243  LYS243     -0.1245
    137  CA        -3.0300    5.6590    6.1510 C.3   243  LYS243      0.1561
    138  C         -2.5440    6.9010    5.4040 C.2   243  LYS243      0.2260
    139  O         -3.2070    7.3810    4.4820 O.2   243  LYS243     -0.2867
    140  CB        -3.6320    6.0710    7.4950 C.3   243  LYS243      0.0271
    141  CG        -4.3470    4.9510    8.2240 C.3   243  LYS243      0.0035
    142  CD        -4.8180    5.3990    9.5960 C.3   243  LYS243      0.0206
    143  CE        -5.9680    6.3880    9.4960 C.3   243  LYS243      0.1093
    144  NZ        -6.4120    6.8700   10.8290 N.3   243  LYS243     -0.1314
    145  N         -9.2610    3.1020    6.7900 N.3   257  ALA257     -0.1231
    146  CA        -8.4820    2.8780    7.9980 C.3   257  ALA257      0.1694
    147  C         -8.8570    1.5440    8.6300 C.2   257  ALA257      0.2592
    148  O         -8.0060    0.8510    9.1890 O.2   257  ALA257     -0.2718
    149  CB        -8.7150    4.0140    8.9750 C.3   257  ALA257      0.0304
    150  N        -10.1330    1.1840    8.5330 N.am  258  SER258     -0.1952
    151  CA       -10.6180   -0.0690    9.1000 C.3   258  SER258      0.1924
    152  C         -9.9790   -1.2500    8.3900 C.2   258  SER258      0.2314
    153  O         -9.5110   -2.1920    9.0290 O.2   258  SER258     -0.2863
    154  CB       -12.1410   -0.1660    8.9910 C.3   258  SER258      0.2116
    155  OG       -12.5850   -1.4710    9.3270 O.3   258  SER258     -0.2180
@<TRIPOS>BOND
     1   139   138    2
     2    95    93    1
     3   138   137    1
     4    94    93    1
     5    83    84    1
     6    83    82    1
     7    93    92    2
     8   137   136    1
     9   137   140    1
    10    78    79    2
    11    78    77    1
    12   145   146    1
    13    82    81    1
    14    81    80    1
    15    92    91    1
    16   140   141    1
    17    77    80    1
    18    77    76    1
    19   146   147    1
    20   146   149    1
    21   141   142    1
    22   152   153    2
    23   152   151    1
    24    91    90    1
    25   150   147   am
    26   150   151    1
    27   147   148    2
    28    32    34   ar
    29    32    31   ar
    30    34    35   ar
    31   154   151    1
    32   154   155    1
    33    90    89    1
    34    31    30    1
    35    31    33   ar
    36    30    27    1
    37    35    33   ar
    38    89    86    1
    39    57    58    1
    40    57    54    1
    41   143   142    1
    42   143   144    1
    43    86    85    1
    44    86    87    1
    45    60    58   ar
    46    58    59   ar
    47    26    27    1
    48    27    28    1
    49    54    53    1
    50    54    55    1
    51   116   115    1
    52    44    42   am
    53    24    23    2
    54    72    71    2
    55    87    96   am
    56    87    88    2
    57    22    23    1
    58    22    21    1
    59    23    25   am
    60    96    97    1
    61    67    66    1
    62    28    29    2
    63    19    18    1
    64    19    20    2
    65    55    56    2
    66    71    70    1
    67   115   117    1
    68   115   114    1
    69    99    98    2
    70    42    41    1
    71    42    43    2
    72    18    21    1
    73    18    17    1
    74    75    73    1
    75    16    15    1
    76   100    97    1
    77   100   101    1
    78    97    98    1
    79    41    40    1
    80    66    68    1
    81    66    65    1
    82   114   111    1
    83    98   104   am
    84    15    12    1
    85    62    65    1
    86    62    61    1
    87    62    63    1
    88    73    70    1
    89    73    74    1
    90    70    69    1
    91   103   101    1
    92   101   102    1
    93    63    64    2
    94   110   111    1
    95   110   106   am
    96    36    37    1
    97    40    37    1
    98   104   105    1
    99    37    38    1
   100   111   112    1
   101   125   124    1
   102   125   126    2
   103   124   123    1
   104    11    12    1
   105    11     9   am
   106    12    13    1
   107   105   106    1
   108   105   108    1
   109   123   122    1
   110   118   112   am
   111   118   119    1
   112   122   119    1
   113   112   113    2
   114   106   107    2
   115   119   120    1
   116    13    14    2
   117   128   126    1
   118     8     9    1
   119     8     7    1
   120   126   127    1
   121    38    39    2
   122     9    10    2
   123   108   109    1
   124     4     3    2
   125   120   121    2
   126   120   129   am
   127    52    50    1
   128     7     3   am
   129     3     2    1
   130   135   129    1
   131   135   134    1
   132     6     5    1
   133   129   130    1
   134    45    46    1
   135    46    47    1
   136    46    49    1
   137     5     2    1
   138    50    49    1
   139     2     1    1
   140    47    48    2
   141    49    51    1
   142   134   133    1
   143   130   131    1
   144   130   133    1
   145   131   132    2
