@<TRIPOS>MOLECULE
tmp/4ny4A01.pdb
 169 162 0 0 0
SMALL
GASTEIGER

@<TRIPOS>ATOM
      1  N        -16.6370   -9.5700   -8.0240 N.3    78  ARG78      -0.1231
      2  CA       -17.6160   -9.9270   -9.0520 C.3    78  ARG78       0.1694
      3  C        -18.8700   -9.0630   -8.8520 C.2    78  ARG78       0.2591
      4  O        -18.9460   -8.3120   -7.8720 O.2    78  ARG78      -0.2718
      5  CB       -17.9630  -11.4280   -8.9970 C.3    78  ARG78       0.0321
      6  CG       -16.9250  -12.3240   -9.6620 C.3    78  ARG78       0.0489
      7  CD       -17.4850  -13.6990   -9.9680 C.3    78  ARG78       0.2205
      8  NE       -16.4400  -14.6400  -10.3730 N.pl3  78  ARG78      -0.0865
      9  CZ       -15.8340  -15.4900   -9.5500 C.cat  78  ARG78       0.5346
     10  NH1      -16.1670  -15.5350   -8.2660 N.pl3  78  ARG78       0.1354
     11  NH2      -14.8930  -16.3060  -10.0050 N.pl3  78  ARG78       0.1354
     12  N        -19.8390   -9.1520   -9.7830 N.am   79  ARG79      -0.1980
     13  CA       -21.0790   -8.3800   -9.7230 C.3    79  ARG79       0.1597
     14  C        -21.9500   -8.8100   -8.5320 C.2    79  ARG79       0.2287
     15  O        -22.2470   -9.9990   -8.4030 O.2    79  ARG79      -0.2864
     16  CB       -21.8570   -8.4970  -11.0430 C.3    79  ARG79       0.0334
     17  CG       -22.9710   -7.4630  -11.1970 C.3    79  ARG79       0.0492
     18  CD       -24.2230   -8.0630  -11.8050 C.3    79  ARG79       0.2205
     19  NE       -24.0390   -8.4130  -13.2150 N.pl3  79  ARG79      -0.0865
     20  CZ       -24.3920   -7.6370  -14.2340 C.cat  79  ARG79       0.5346
     21  NH1      -24.9640   -6.4590  -14.0140 N.pl3  79  ARG79       0.1354
     22  NH2      -24.1840   -8.0360  -15.4810 N.pl3  79  ARG79       0.1354
     23  N        -25.1800   -9.7350   -6.6950 N.3    81  PHE81      -0.1241
     24  CA       -26.5350  -10.1210   -7.0920 C.3    81  PHE81       0.1605
     25  C        -27.5910   -9.8090   -6.0130 C.2    81  PHE81       0.2264
     26  O        -27.4520   -8.7980   -5.3180 O.2    81  PHE81      -0.2867
     27  CB       -26.5910  -11.5550   -7.6750 C.3    81  PHE81       0.0534
     28  CG       -26.0880  -12.6930   -6.8150 C.ar   81  PHE81      -0.0203
     29  CD1      -24.7260  -12.8810   -6.6060 C.ar   81  PHE81      -0.0042
     30  CD2      -26.9700  -13.6270   -6.2860 C.ar   81  PHE81      -0.0042
     31  CE1      -24.2600  -13.9490   -5.8360 C.ar   81  PHE81      -0.0003
     32  CE2      -26.5030  -14.6990   -5.5200 C.ar   81  PHE81      -0.0003
     33  CZ       -25.1520  -14.8530   -5.3010 C.ar   81  PHE81      -0.0000
     34  N        -16.8820  -17.6010   -3.8660 N.3    92  SER92      -0.1202
     35  CA       -17.3390  -16.9960   -5.1200 C.3    92  SER92       0.2020
     36  C        -18.0550  -15.6530   -4.9180 C.2    92  SER92       0.2618
     37  O        -18.0180  -14.8090   -5.8140 O.2    92  SER92      -0.2717
     38  CB       -18.2290  -17.9670   -5.8890 C.3    92  SER92       0.2103
     39  OG       -19.3300  -18.3900   -5.1010 O.3    92  SER92      -0.2182
     40  N        -18.6890  -15.4540   -3.7460 N.am   93  ILE93      -0.1979
     41  CA       -19.4310  -14.2330   -3.4130 C.3    93  ILE93       0.1595
     42  C        -18.5670  -13.2060   -2.6500 C.2    93  ILE93       0.2287
     43  O        -18.7000  -12.0060   -2.8990 O.2    93  ILE93      -0.2864
     44  CB       -20.7860  -14.5620   -2.7110 C.3    93  ILE93       0.0276
     45  CG1      -21.6120  -15.5660   -3.5520 C.3    93  ILE93       0.0022
     46  CG2      -21.6060  -13.2930   -2.4300 C.3    93  ILE93       0.0022
     47  CD1      -22.4530  -16.5520   -2.7640 C.3    93  ILE93       0.0001
     48  N        -29.9000  -23.9610   -9.8720 N.3   185  ARG185     -0.1231
     49  CA       -28.9450  -22.9810  -10.4030 C.3   185  ARG185      0.1694
     50  C        -29.7100  -21.6920  -10.7220 C.2   185  ARG185      0.2592
     51  O        -30.7800  -21.7470  -11.3380 O.2   185  ARG185     -0.2718
     52  CB       -28.2280  -23.5250  -11.6530 C.3   185  ARG185      0.0321
     53  CG       -27.0370  -22.6830  -12.1050 C.3   185  ARG185      0.0489
     54  CD       -25.7180  -23.4180  -11.9610 C.3   185  ARG185      0.2205
     55  NE       -24.9530  -22.9560  -10.8010 N.pl3 185  ARG185     -0.0865
     56  CZ       -24.9170  -23.5750   -9.6250 C.cat 185  ARG185      0.5346
     57  NH1      -25.6000  -24.6980   -9.4350 N.pl3 185  ARG185      0.1354
     58  NH2      -24.1930  -23.0800   -8.6300 N.pl3 185  ARG185      0.1354
     59  N        -29.1820  -20.5460  -10.2640 N.am  186  PHE186     -0.1976
     60  CA       -29.8270  -19.2450  -10.4250 C.3   186  PHE186      0.1639
     61  C        -29.9150  -18.7150  -11.8550 C.2   186  PHE186      0.2290
     62  O        -28.8920  -18.4550  -12.4910 O.2   186  PHE186     -0.2864
     63  CB       -29.2580  -18.1980   -9.4460 C.3   186  PHE186      0.0560
     64  CG       -29.3100  -18.6030   -7.9890 C.ar  186  PHE186     -0.0200
     65  CD1      -30.5250  -18.8570   -7.3620 C.ar  186  PHE186     -0.0042
     66  CD2      -28.1440  -18.7430   -7.2490 C.ar  186  PHE186     -0.0042
     67  CE1      -30.5700  -19.2510   -6.0210 C.ar  186  PHE186     -0.0003
     68  CE2      -28.1900  -19.1240   -5.9050 C.ar  186  PHE186     -0.0003
     69  CZ       -29.4030  -19.3750   -5.2990 C.ar  186  PHE186     -0.0000
     70  N        -30.7700  -15.7230  -14.0630 N.3   188  PHE188     -0.1241
     71  CA       -30.7940  -14.2680  -13.9210 C.3   188  PHE188      0.1605
     72  C        -31.7100  -13.5550  -14.9240 C.2   188  PHE188      0.2264
     73  O        -31.7030  -12.3250  -14.9990 O.2   188  PHE188     -0.2867
     74  CB       -29.3610  -13.6970  -13.8910 C.3   188  PHE188      0.0534
     75  CG       -28.5870  -14.1090  -12.6600 C.ar  188  PHE188     -0.0203
     76  CD1      -28.6450  -13.3520  -11.4960 C.ar  188  PHE188     -0.0042
     77  CD2      -27.8120  -15.2640  -12.6590 C.ar  188  PHE188     -0.0042
     78  CE1      -27.9480  -13.7470  -10.3500 C.ar  188  PHE188     -0.0003
     79  CE2      -27.1180  -15.6600  -11.5110 C.ar  188  PHE188     -0.0003
     80  CZ       -27.1980  -14.9030  -10.3620 C.ar  188  PHE188     -0.0000
     81  N        -30.7670  -18.0860   -1.6200 N.3   214  PHE214     -0.1241
     82  CA       -30.6100  -19.5220   -1.4160 C.3   214  PHE214      0.1605
     83  C        -31.8160  -20.0370   -0.6050 C.2   214  PHE214      0.2264
     84  O        -32.2470  -19.3390    0.3170 O.2   214  PHE214     -0.2867
     85  CB       -29.2870  -19.8150   -0.6820 C.3   214  PHE214      0.0534
     86  CG       -28.0480  -19.4460   -1.4650 C.ar  214  PHE214     -0.0203
     87  CD1      -27.4910  -18.1770   -1.3630 C.ar  214  PHE214     -0.0042
     88  CD2      -27.4340  -20.3690   -2.3000 C.ar  214  PHE214     -0.0042
     89  CE1      -26.3560  -17.8310   -2.1060 C.ar  214  PHE214     -0.0003
     90  CE2      -26.2900  -20.0280   -3.0280 C.ar  214  PHE214     -0.0003
     91  CZ       -25.7570  -18.7620   -2.9250 C.ar  214  PHE214     -0.0000
     92  N        -21.5150  -24.2850   -1.5540 N.3   263  ILE263     -0.1245
     93  CA       -20.9510  -23.8370   -2.8300 C.3   263  ILE263      0.1561
     94  C        -20.3900  -24.9970   -3.6600 C.2   263  ILE263      0.2260
     95  O        -20.7320  -25.1020   -4.8370 O.2   263  ILE263     -0.2867
     96  CB       -19.9610  -22.6500   -2.6230 C.3   263  ILE263      0.0252
     97  CG1      -20.7140  -21.3240   -2.3370 C.3   263  ILE263      0.0019
     98  CG2      -18.9200  -22.4940   -3.7480 C.3   263  ILE263      0.0019
     99  CD1      -21.6500  -20.7090   -3.4700 C.3   263  ILE263      0.0001
    100  N        -23.2960  -26.9710   -4.9040 N.3   266  PHE266     -0.1227
    101  CA       -23.9610  -26.1720   -5.9390 C.3   266  PHE266      0.1736
    102  C        -23.2130  -26.2350   -7.2680 C.2   266  PHE266      0.2595
    103  O        -23.8200  -26.5450   -8.2940 O.2   266  PHE266     -0.2718
    104  CB       -24.0810  -24.7090   -5.4930 C.3   266  PHE266      0.0547
    105  CG       -25.4820  -24.2370   -5.1980 C.ar  266  PHE266     -0.0202
    106  CD1      -26.3800  -23.9800   -6.2290 C.ar  266  PHE266     -0.0042
    107  CD2      -25.8830  -23.9750   -3.8950 C.ar  266  PHE266     -0.0042
    108  CE1      -27.6700  -23.5130   -5.9570 C.ar  266  PHE266     -0.0003
    109  CE2      -27.1690  -23.5040   -3.6240 C.ar  266  PHE266     -0.0003
    110  CZ       -28.0550  -23.2740   -4.6560 C.ar  266  PHE266     -0.0000
    111  N        -21.8940  -25.9450   -7.2350 N.am  267  ALA267     -0.1980
    112  CA       -20.9920  -25.9590   -8.3880 C.3   267  ALA267      0.1597
    113  C        -20.7830  -27.3740   -8.9210 C.2   267  ALA267      0.2287
    114  O        -20.6050  -27.5500  -10.1220 O.2   267  ALA267     -0.2864
    115  CB       -19.6530  -25.3510   -8.0040 C.3   267  ALA267      0.0319
    116  N        -23.5280  -28.2980  -12.6350 N.3   271  THR271     -0.1218
    117  CA       -22.5720  -28.0850  -13.7290 C.3   271  THR271      0.1862
    118  C        -21.9940  -29.3500  -14.3520 C.2   271  THR271      0.2287
    119  O        -22.0080  -29.4670  -15.5770 O.2   271  THR271     -0.2866
    120  CB       -21.5200  -27.0210  -13.3840 C.3   271  THR271      0.1770
    121  OG1      -20.4630  -27.6100  -12.6280 O.3   271  THR271     -0.2211
    122  CG2      -22.1110  -25.8210  -12.6540 C.3   271  THR271      0.0375
    123  N        -20.6590  -23.1710  -19.7480 N.3   331  ILE331     -0.1231
    124  CA       -21.7400  -23.0600  -18.7590 C.3   331  ILE331      0.1692
    125  C        -21.8350  -21.7060  -18.0320 C.2   331  ILE331      0.2591
    126  O        -22.9340  -21.3010  -17.6520 O.2   331  ILE331     -0.2718
    127  CB       -21.8480  -24.3010  -17.8260 C.3   331  ILE331      0.0266
    128  CG1      -20.5400  -24.5760  -17.0500 C.3   331  ILE331      0.0019
    129  CG2      -22.2950  -25.5370  -18.6120 C.3   331  ILE331      0.0020
    130  CD1      -20.5020  -24.0040  -15.6320 C.3   331  ILE331      0.0001
    131  N        -20.6960  -21.0020  -17.8840 N.am  332  ALA332     -0.1980
    132  CA       -20.6000  -19.6830  -17.2550 C.3   332  ALA332      0.1597
    133  C        -21.1240  -18.5650  -18.1650 C.2   332  ALA332      0.2287
    134  O        -21.6420  -17.5700  -17.6550 O.2   332  ALA332     -0.2864
    135  CB       -19.1630  -19.3970  -16.8640 C.3   332  ALA332      0.0319
    136  N        -20.5610  -15.8060  -19.3900 N.3   334  ARG334     -0.1231
    137  CA       -19.9040  -14.5190  -19.1720 C.3   334  ARG334      0.1694
    138  C        -18.9140  -14.6050  -18.0100 C.2   334  ARG334      0.2592
    139  O        -19.0590  -15.4550  -17.1280 O.2   334  ARG334     -0.2718
    140  CB       -20.9480  -13.4360  -18.8410 C.3   334  ARG334      0.0321
    141  CG       -21.9030  -13.0740  -19.9650 C.3   334  ARG334      0.0489
    142  CD       -22.8780  -12.0190  -19.4900 C.3   334  ARG334      0.2205
    143  NE       -23.6640  -11.4560  -20.5860 N.pl3 334  ARG334     -0.0865
    144  CZ       -24.5230  -10.4510  -20.4520 C.cat 334  ARG334      0.5346
    145  NH1      -24.7280   -9.8970  -19.2630 N.pl3 334  ARG334      0.1354
    146  NH2      -25.1940  -10.0010  -21.5030 N.pl3 334  ARG334      0.1354
    147  N        -17.9360  -13.6830  -17.9990 N.am  335  LEU335     -0.1966
    148  CA       -16.9180  -13.5180  -16.9640 C.3   335  LEU335      0.1728
    149  C        -16.9780  -12.0410  -16.5840 C.2   335  LEU335      0.2616
    150  O        -16.6530  -11.1820  -17.4050 O.2   335  LEU335     -0.2715
    151  CB       -15.5360  -13.8940  -17.5300 C.3   335  LEU335      0.0311
    152  CG       -14.8750  -15.2240  -17.1070 C.3   335  LEU335      0.0022
    153  CD1      -15.8820  -16.3600  -16.9110 C.3   335  LEU335      0.0001
    154  CD2      -13.8320  -15.6430  -18.1260 C.3   335  LEU335      0.0001
    155  N        -17.4780  -11.7410  -15.3790 N.am  336  GLU336     -0.1977
    156  CA       -17.6610  -10.3640  -14.9270 C.3   336  GLU336      0.1602
    157  C        -16.7680   -9.9630  -13.7650 C.2   336  GLU336      0.2287
    158  O        -16.4700  -10.7810  -12.8950 O.2   336  GLU336     -0.2864
    159  CB       -19.1350  -10.0930  -14.5930 C.3   336  GLU336      0.0415
    160  CG       -20.0430  -10.0570  -15.8120 C.3   336  GLU336      0.1163
    161  CD       -21.5360   -9.9930  -15.5530 C.2   336  GLU336      0.3649
    162  OE1      -21.9400   -9.7450  -14.3930 O.co2 336  GLU336     -0.2457
    163  OE2      -22.3080  -10.1770  -16.5220 O.co2 336  GLU336     -0.2457
    164  N        -11.5880  -20.6480  -11.6830 N.3   404  CYS404     -0.1235
    165  CA       -12.2210  -21.8290  -11.1000 C.3   404  CYS404      0.1677
    166  C        -11.2290  -22.5720  -10.2140 C.2   404  CYS404      0.2270
    167  O        -10.1850  -23.0120  -10.7000 O.2   404  CYS404     -0.2867
    168  CB       -12.7770  -22.7360  -12.1940 C.3   404  CYS404      0.0956
    169  SG       -13.7250  -24.1510  -11.5750 S.3   404  CYS404     -0.0801
@<TRIPOS>BOND
     1   146   144    1
     2   143   144    2
     3   143   142    1
     4   144   145    1
     5   141   142    1
     6   141   140    1
     7   123   124    1
     8   136   137    1
     9   137   140    1
    10   137   138    1
    11   124   125    1
    12   124   127    1
    13   129   127    1
    14   133   134    2
    15   133   132    1
    16   154   152    1
    17   125   131   am
    18   125   126    2
    19   138   147   am
    20   138   139    2
    21   147   148    1
    22   131   132    1
    23   127   128    1
    24   151   152    1
    25   151   148    1
    26   150   149    2
    27   132   135    1
    28   152   153    1
    29   128   130    1
    30   148   149    1
    31   149   155   am
    32   163   161   ar
    33   160   161    1
    34   160   159    1
    35   119   118    2
    36   161   162   ar
    37    22    20    1
    38   155   156    1
    39    73    72    2
    40   156   159    1
    41   156   157    1
    42    72    71    1
    43   118   117    1
    44    20    21    1
    45    20    19    2
    46    70    71    1
    47    71    74    1
    48    74    75    1
    49   157   158    2
    50   117   120    1
    51   117   116    1
    52   120   122    1
    53   120   121    1
    54    19    18    1
    55    75    77   ar
    56    75    76   ar
    57    77    79   ar
    58    62    61    2
    59   168   169    1
    60   168   165    1
    61    53    54    1
    62    53    52    1
    63    54    55    1
    64    61    60    1
    65    18    17    1
    66   164   165    1
    67    52    49    1
    68    79    80   ar
    69    76    78   ar
    70    51    50    2
    71    17    16    1
    72   165   166    1
    73    16    13    1
    74    55    56    2
    75    50    49    1
    76    50    59   am
    77   167   166    2
    78    60    59    1
    79    60    63    1
    80    49    48    1
    81     8     7    1
    82     8     9    2
    83    80    78   ar
    84   114   113    2
    85    11     9    1
    86     7     6    1
    87    12    13    1
    88    12     3   am
    89    13    14    1
    90     6     5    1
    91    56    57    1
    92    56    58    1
    93     9    10    1
    94    63    64    1
    95     2     5    1
    96     2     3    1
    97     2     1    1
    98   113   112    1
    99     3     4    2
   100    14    15    2
   101   112   115    1
   102   112   111    1
   103   103   102    2
   104    64    65   ar
   105    64    66   ar
   106    27    24    1
   107    27    28    1
   108    65    67   ar
   109   102   111   am
   110   102   101    1
   111    66    68   ar
   112    24    23    1
   113    24    25    1
   114    28    29   ar
   115    28    30   ar
   116    29    31   ar
   117    30    32   ar
   118   106   108   ar
   119   106   105   ar
   120    67    69   ar
   121    25    26    2
   122   108   110   ar
   123   101   104    1
   124   101   100    1
   125    68    69   ar
   126    38    35    1
   127    38    39    1
   128    31    33   ar
   129    37    36    2
   130    32    33   ar
   131   104   105    1
   132   105   107   ar
   133    35    36    1
   134    35    34    1
   135    36    40   am
   136    95    94    2
   137   110   109   ar
   138   107   109   ar
   139    98    96    1
   140    40    41    1
   141    94    93    1
   142    45    47    1
   143    45    44    1
   144    99    97    1
   145    41    44    1
   146    41    42    1
   147    90    91   ar
   148    90    88   ar
   149    91    89   ar
   150    43    42    2
   151    93    96    1
   152    93    92    1
   153    44    46    1
   154    96    97    1
   155    88    86   ar
   156    89    87   ar
   157    81    82    1
   158    86    87   ar
   159    86    85    1
   160    82    85    1
   161    82    83    1
   162    83    84    2
