@<TRIPOS>MOLECULE
tmp/4ny9A00.pdb
 216 204 0 0 0
SMALL
GASTEIGER

@<TRIPOS>ATOM
      1  N         11.0860  -19.0470   -1.0190 N.3    41  LEU41      -0.1245
      2  CA        11.3970  -18.5490    0.3300 C.3    41  LEU41       0.1561
      3  C         12.2450  -19.4670    1.2170 C.2    41  LEU41       0.2260
      4  O         13.0770  -18.9910    1.9840 O.2    41  LEU41      -0.2867
      5  CB        10.1020  -18.2080    1.0870 C.3    41  LEU41       0.0270
      6  CG         9.2970  -16.9790    0.6680 C.3    41  LEU41       0.0019
      7  CD1        8.1080  -16.8010    1.5720 C.3    41  LEU41       0.0001
      8  CD2       10.1600  -15.7290    0.7000 C.3    41  LEU41       0.0001
      9  N         15.9100  -19.4150    1.6380 N.3    44  LEU44      -0.1245
     10  CA        16.3840  -18.1290    2.1680 C.3    44  LEU44       0.1561
     11  C         16.2020  -18.0020    3.6870 C.2    44  LEU44       0.2260
     12  O         16.3460  -16.9210    4.2680 O.2    44  LEU44      -0.2867
     13  CB        15.6900  -16.9740    1.4320 C.3    44  LEU44       0.0270
     14  CG        15.6650  -17.0950   -0.1000 C.3    44  LEU44       0.0019
     15  CD1       14.6560  -16.1590   -0.7600 C.3    44  LEU44       0.0001
     16  CD2       17.0570  -16.8790   -0.6620 C.3    44  LEU44       0.0001
     17  N         16.7000  -17.7920    7.4790 N.3    46  VAL46      -0.1245
     18  CA        17.7030  -17.2310    8.4060 C.3    46  VAL46       0.1561
     19  C         17.1480  -17.1590    9.8370 C.2    46  VAL46       0.2260
     20  O         15.9350  -17.0080   10.0530 O.2    46  VAL46      -0.2867
     21  CB        18.1750  -15.7810    8.0440 C.3    46  VAL46       0.0252
     22  CG1       18.9590  -15.7310    6.7720 C.3    46  VAL46       0.0019
     23  CG2       16.9990  -14.8120    7.9840 C.3    46  VAL46       0.0019
     24  N          8.5010  -11.8010    7.2920 N.3    75  LEU75      -0.1245
     25  CA         8.4320  -10.7700    6.2460 C.3    75  LEU75       0.1561
     26  C          8.1960   -9.3480    6.7430 C.2    75  LEU75       0.2260
     27  O          8.8110   -8.4220    6.2270 O.2    75  LEU75      -0.2867
     28  CB         7.5110  -11.1490    5.0780 C.3    75  LEU75       0.0270
     29  CG         7.8980  -12.4310    4.2950 C.3    75  LEU75       0.0019
     30  CD1        7.3340  -12.4280    2.8920 C.3    75  LEU75       0.0001
     31  CD2        9.4130  -12.6930    4.2430 C.3    75  LEU75       0.0001
     32  N         11.6680   -8.1740    7.6550 N.3    78  MET78      -0.1230
     33  CA        12.4890   -8.0490    6.4810 C.3    78  MET78       0.1702
     34  C         12.0710   -6.8120    5.7010 C.2    78  MET78       0.2592
     35  O         12.9340   -6.0390    5.2570 O.2    78  MET78      -0.2718
     36  CB        12.3910   -9.3110    5.6270 C.3    78  MET78       0.0401
     37  CG        13.1600  -10.4600    6.2010 C.3    78  MET78       0.0596
     38  SD        14.8350   -9.9630    6.7070 S.3    78  MET78      -0.1393
     39  CE        15.4870  -11.5210    7.2840 C.3    78  MET78       0.0692
     40  N         10.7570   -6.6120    5.5500 N.am   79  ALA79      -0.1980
     41  CA        10.2430   -5.3710    4.9440 C.3    79  ALA79       0.1597
     42  C         10.6940   -4.0970    5.6920 C.2    79  ALA79       0.2287
     43  O         10.8010   -3.0400    5.0840 O.2    79  ALA79      -0.2864
     44  CB         8.7320   -5.4090    4.8090 C.3    79  ALA79       0.0319
     45  N         13.7340   -3.9070    7.3870 N.3    81  MET81      -0.1230
     46  CA        15.1510   -3.8310    7.0520 C.3    81  MET81       0.1702
     47  C         15.3390   -3.2020    5.6680 C.2    81  MET81       0.2593
     48  O         16.1720   -2.3060    5.4800 O.2    81  MET81      -0.2718
     49  CB        15.8040   -5.2230    7.1010 C.3    81  MET81       0.0401
     50  CG        17.3000   -5.2260    6.7330 C.3    81  MET81       0.0596
     51  SD        18.2560   -4.0380    7.7320 S.3    81  MET81      -0.1393
     52  CE        19.1280   -5.1060    8.8910 C.3    81  MET81       0.0692
     53  N         14.5440   -3.6760    4.7170 N.am   82  SER82      -0.1952
     54  CA        14.6340   -3.2530    3.3450 C.3    82  SER82       0.1924
     55  C         14.3020   -1.7880    3.1840 C.2    82  SER82       0.2314
     56  O         15.0030   -1.0630    2.4620 O.2    82  SER82      -0.2863
     57  CB        13.7230   -4.1140    2.4800 C.3    82  SER82       0.2116
     58  OG        14.1210   -5.4830    2.5740 O.3    82  SER82      -0.2180
     59  N         17.5040   -2.4980   -5.2160 N.3   116  PHE116     -0.1241
     60  CA        17.7840   -3.8340   -4.6950 C.3   116  PHE116      0.1605
     61  C         19.2920   -4.2230   -4.8030 C.2   116  PHE116      0.2264
     62  O         19.8670   -4.7470   -3.8690 O.2   116  PHE116     -0.2867
     63  CB        16.8700   -4.8490   -5.3990 C.3   116  PHE116      0.0534
     64  CG        17.1240   -6.2790   -4.9980 C.ar  116  PHE116     -0.0203
     65  CD1       16.5630   -6.8030   -3.8270 C.ar  116  PHE116     -0.0042
     66  CD2       17.9260   -7.0960   -5.7730 C.ar  116  PHE116     -0.0042
     67  CE1       16.7960   -8.1030   -3.4490 C.ar  116  PHE116     -0.0003
     68  CE2       18.1660   -8.3950   -5.4020 C.ar  116  PHE116     -0.0003
     69  CZ        17.5950   -8.9010   -4.2410 C.ar  116  PHE116     -0.0000
     70  N         21.9360   -5.1620   -1.8910 N.3   120  GLN120     -0.1245
     71  CA        22.6320   -6.4370   -1.8070 C.3   120  GLN120      0.1566
     72  C         24.1370   -6.2250   -1.8300 C.2   120  GLN120      0.2260
     73  O         24.8770   -6.9070   -1.1260 O.2   120  GLN120     -0.2867
     74  CB        22.2020   -7.3810   -2.9350 C.3   120  GLN120      0.0367
     75  CG        20.8240   -8.0250   -2.7290 C.3   120  GLN120      0.0905
     76  CD        20.7120   -8.7730   -1.4100 C.2   120  GLN120      0.2608
     77  OE1       21.5430   -9.6190   -1.0950 O.2   120  GLN120     -0.2717
     78  NE2       19.6930   -8.4540   -0.6230 N.am  120  GLN120     -0.0878
     79  N         25.0270   -5.2040    1.7880 N.3   123  PHE123     -0.1241
     80  CA        24.9460   -6.3390    2.7190 C.3   123  PHE123      0.1605
     81  C         26.1380   -7.2630    2.5800 C.2   123  PHE123      0.2264
     82  O         26.5920   -7.8720    3.5650 O.2   123  PHE123     -0.2867
     83  CB        23.6830   -7.1650    2.5350 C.3   123  PHE123      0.0534
     84  CG        22.4820   -6.5790    3.1770 C.ar  123  PHE123     -0.0203
     85  CD1       21.3100   -6.3910    2.4400 C.ar  123  PHE123     -0.0042
     86  CD2       22.5180   -6.1810    4.4970 C.ar  123  PHE123     -0.0042
     87  CE1       20.1760   -5.8270    3.0260 C.ar  123  PHE123     -0.0003
     88  CE2       21.4040   -5.6160    5.1040 C.ar  123  PHE123     -0.0003
     89  CZ        20.2230   -5.4470    4.3720 C.ar  123  PHE123     -0.0000
     90  N         25.1530  -12.4160    8.2250 N.3   134  TRP134     -0.1241
     91  CA        25.2480  -10.9920    8.0080 C.3   134  TRP134      0.1605
     92  C         25.2790  -10.2690    9.3350 C.2   134  TRP134      0.2264
     93  O         24.2910  -10.2310   10.0330 O.2   134  TRP134     -0.2867
     94  CB        24.0510  -10.4820    7.2060 C.3   134  TRP134      0.0550
     95  CG        24.0240  -10.9690    5.8250 C.ar  134  TRP134      0.0003
     96  CD1       24.5890  -10.3740    4.7190 C.ar  134  TRP134      0.0946
     97  CD2       23.4140  -12.1700    5.3700 C.ar  134  TRP134      0.0152
     98  NE1       24.3660  -11.1390    3.6080 N.ar  134  TRP134     -0.2442
     99  CE2       23.6430  -12.2490    3.9710 C.ar  134  TRP134      0.0810
    100  CE3       22.7050  -13.2100    6.0080 C.ar  134  TRP134      0.0012
    101  CZ2       23.1810  -13.3310    3.1900 C.ar  134  TRP134      0.0191
    102  CZ3       22.2340  -14.2860    5.2220 C.ar  134  TRP134      0.0001
    103  CH2       22.4730  -14.3250    3.8290 C.ar  134  TRP134      0.0015
    104  N         24.8210   -7.2160   11.1890 N.3   136  CYS136     -0.1235
    105  CA        24.3130   -5.8600   11.1010 C.3   136  CYS136      0.1677
    106  C         24.2830   -5.1400   12.4420 C.2   136  CYS136      0.2270
    107  O         23.2230   -4.8560   12.9960 O.2   136  CYS136     -0.2867
    108  CB        22.9310   -5.8350   10.4340 C.3   136  CYS136      0.0956
    109  SG        22.8470   -6.7440    8.8800 S.3   136  CYS136     -0.0801
    110  N         21.9930  -12.0720   11.1020 N.3   141  TYR141     -0.1241
    111  CA        21.1070  -12.9450   10.3700 C.3   141  TYR141      0.1605
    112  C         21.9330  -14.0900    9.9060 C.2   141  TYR141      0.2264
    113  O         22.8230  -13.9370    9.0710 O.2   141  TYR141     -0.2867
    114  CB        20.4910  -12.2570    9.1620 C.3   141  TYR141      0.0534
    115  CG        19.7100  -11.0470    9.5090 C.ar  141  TYR141     -0.0201
    116  CD1       20.3550   -9.8290    9.7330 C.ar  141  TYR141     -0.0009
    117  CD2       18.3230  -11.1040    9.6070 C.ar  141  TYR141     -0.0009
    118  CE1       19.6460   -8.7130   10.0550 C.ar  141  TYR141      0.0417
    119  CE2       17.5990   -9.9850    9.9230 C.ar  141  TYR141      0.0417
    120  CZ        18.2800   -8.7990   10.1460 C.ar  141  TYR141      0.1957
    121  OH        17.5900   -7.6840   10.4650 O.3   141  TYR141     -0.2866
    122  N         22.3430  -17.8540    8.3080 N.3   143  LEU143     -0.1245
    123  CA        21.7660  -18.8620    7.4320 C.3   143  LEU143      0.1561
    124  C         21.5590  -20.1520    8.2060 C.2   143  LEU143      0.2260
    125  O         22.4760  -20.6540    8.8740 O.2   143  LEU143     -0.2867
    126  CB        22.6840  -19.1240    6.2430 C.3   143  LEU143      0.0270
    127  CG        22.6590  -18.0500    5.1740 C.3   143  LEU143      0.0019
    128  CD1       23.8180  -18.2500    4.2450 C.3   143  LEU143      0.0001
    129  CD2       21.3090  -18.1020    4.4530 C.3   143  LEU143      0.0001
    130  N         21.2180  -16.0610   -5.1580 N.3   152  MET152     -0.1230
    131  CA        21.5050  -14.9920   -4.2140 C.3   152  MET152      0.1702
    132  C         22.6020  -15.3700   -3.2270 C.2   152  MET152      0.2592
    133  O         23.4830  -14.5830   -2.9400 O.2   152  MET152     -0.2718
    134  CB        20.2370  -14.6120   -3.4650 C.3   152  MET152      0.0401
    135  CG        19.9930  -13.1200   -3.3890 C.3   152  MET152      0.0596
    136  SD        18.3910  -12.7220   -2.6280 S.3   152  MET152     -0.1393
    137  CE        17.1800  -13.4800   -3.7590 C.3   152  MET152      0.0692
    138  N         22.5510  -16.5890   -2.7230 N.am  153  LEU153     -0.1980
    139  CA        23.5440  -17.0620   -1.7710 C.3   153  LEU153      0.1596
    140  C         24.9140  -17.2670   -2.4000 C.2   153  LEU153      0.2287
    141  O         25.9170  -16.8300   -1.8520 O.2   153  LEU153     -0.2864
    142  CB        23.0560  -18.3430   -1.1060 C.3   153  LEU153      0.0297
    143  CG        22.2820  -18.2520    0.2150 C.3   153  LEU153      0.0022
    144  CD1       21.7900  -16.8250    0.5810 C.3   153  LEU153      0.0001
    145  CD2       21.1370  -19.2750    0.2550 C.3   153  LEU153      0.0001
    146  N         26.6520  -13.9390   -2.7520 N.3   156  HIS156     -0.1241
    147  CA        27.3850  -13.4050   -1.6160 C.3   156  HIS156      0.1621
    148  C         28.6960  -14.1220   -1.3770 C.2   156  HIS156      0.2264
    149  O         29.7300  -13.4840   -1.1250 O.2   156  HIS156     -0.2867
    150  CB        26.5180  -13.3660   -0.3640 C.3   156  HIS156      0.0745
    151  CG        25.5050  -12.2680   -0.3940 C.ar  156  HIS156      0.0817
    152  ND1       25.8020  -10.9710   -0.0350 N.ar  156  HIS156     -0.2268
    153  CD2       24.2200  -12.2550   -0.8140 C.ar  156  HIS156      0.1154
    154  CE1       24.7420  -10.2090   -0.2200 C.ar  156  HIS156      0.1986
    155  NE2       23.7650  -10.9660   -0.6840 N.ar  156  HIS156     -0.2212
    156  N         14.0270  -11.8110   -8.4230 N.3   236  HIS236     -0.1241
    157  CA        13.5290  -11.3550   -7.1280 C.3   236  HIS236      0.1621
    158  C         12.2680  -10.4980   -7.2130 C.2   236  HIS236      0.2264
    159  O         11.3940  -10.6140   -6.3560 O.2   236  HIS236     -0.2867
    160  CB        14.6120  -10.5950   -6.3720 C.3   236  HIS236      0.0745
    161  CG        14.1320   -9.9920   -5.0900 C.ar  236  HIS236      0.0817
    162  ND1       13.6630   -8.6980   -5.0020 N.ar  236  HIS236     -0.2268
    163  CD2       14.0250  -10.5110   -3.8450 C.ar  236  HIS236      0.1154
    164  CE1       13.2930   -8.4450   -3.7600 C.ar  236  HIS236      0.1986
    165  NE2       13.5020   -9.5290   -3.0360 N.ar  236  HIS236     -0.2212
    166  N          9.4930  -13.0170   -7.7340 N.3   239  ARG239     -0.1231
    167  CA         9.1820  -13.6310   -6.4460 C.3   239  ARG239      0.1694
    168  C          8.3650  -12.6760   -5.5890 C.2   239  ARG239      0.2591
    169  O          7.3270  -13.0460   -5.0540 O.2   239  ARG239     -0.2718
    170  CB        10.4460  -14.0320   -5.6940 C.3   239  ARG239      0.0321
    171  CG        11.3150  -15.0690   -6.3880 C.3   239  ARG239      0.0489
    172  CD        12.3800  -15.6180   -5.4210 C.3   239  ARG239      0.2205
    173  NE        13.4680  -16.2870   -6.1350 N.pl3 239  ARG239     -0.0865
    174  CZ        14.3420  -17.1410   -5.5990 C.cat 239  ARG239      0.5346
    175  NH1       14.2890  -17.4780   -4.3050 N.pl3 239  ARG239      0.1354
    176  NH2       15.2760  -17.6750   -6.3810 N.pl3 239  ARG239      0.1354
    177  N          8.8300  -11.4350   -5.4710 N.am  240  LEU240     -0.1980
    178  CA         8.2020  -10.4570   -4.5730 C.3   240  LEU240      0.1596
    179  C          6.7710  -10.1120   -4.9840 C.2   240  LEU240      0.2287
    180  O          5.9080   -9.9480   -4.1350 O.2   240  LEU240     -0.2864
    181  CB         9.0460   -9.1930   -4.4830 C.3   240  LEU240      0.0297
    182  CG         8.7800   -8.3360   -3.2540 C.3   240  LEU240      0.0022
    183  CD1       10.1020   -7.8920   -2.6380 C.3   240  LEU240      0.0001
    184  CD2        7.8570   -7.1320   -3.5440 C.3   240  LEU240      0.0001
    185  N          4.4990  -12.8400   -3.7780 N.3   243  ILE243     -0.1245
    186  CA         4.1540  -12.6560   -2.3470 C.3   243  ILE243      0.1561
    187  C          3.0840  -11.5870   -2.1380 C.2   243  ILE243      0.2260
    188  O          2.2450  -11.7400   -1.2660 O.2   243  ILE243     -0.2867
    189  CB         5.3960  -12.3160   -1.4560 C.3   243  ILE243      0.0252
    190  CG1        6.3230  -13.5280   -1.3080 C.3   243  ILE243      0.0019
    191  CG2        4.9650  -11.8100   -0.0750 C.3   243  ILE243      0.0019
    192  CD1        7.6810  -13.1750   -0.7020 C.3   243  ILE243      0.0001
    193  N          2.8630   -7.2090    1.9670 N.3   249  PHE249     -0.1227
    194  CA         3.8640   -6.9870    3.0360 C.3   249  PHE249      0.1736
    195  C          4.6210   -5.6910    2.8340 C.2   249  PHE249      0.2595
    196  O          5.0400   -5.0530    3.8020 O.2   249  PHE249     -0.2718
    197  CB         4.8690   -8.1540    3.1560 C.3   249  PHE249      0.0547
    198  CG         4.3270   -9.3460    3.8920 C.ar  249  PHE249     -0.0202
    199  CD1        3.9400   -9.2410    5.2250 C.ar  249  PHE249     -0.0042
    200  CD2        4.1950  -10.5770    3.2520 C.ar  249  PHE249     -0.0042
    201  CE1        3.4090  -10.3500    5.9130 C.ar  249  PHE249     -0.0003
    202  CE2        3.6900  -11.6930    3.9290 C.ar  249  PHE249     -0.0003
    203  CZ         3.2840  -11.5760    5.2660 C.ar  249  PHE249     -0.0000
    204  N          4.7790   -5.3220    1.5630 N.am  250  ALA250     -0.1980
    205  CA         5.6020   -4.2000    1.1570 C.3   250  ALA250      0.1597
    206  C          5.1630   -2.8660    1.7950 C.2   250  ALA250      0.2287
    207  O          4.0100   -2.4380    1.7040 O.2   250  ALA250     -0.2864
    208  CB         5.6590   -4.1100   -0.3610 C.3   250  ALA250      0.0319
    209  N          8.6110    0.4720   -0.5290 N.3   254  MET254     -0.1245
    210  CA         8.7570   -0.6950   -1.3840 C.3   254  MET254      0.1570
    211  C          7.7450   -0.7290   -2.5310 C.2   254  MET254      0.2261
    212  O          8.0280   -1.2660   -3.6100 O.2   254  MET254     -0.2867
    213  CB         8.6290   -1.9520   -0.5450 C.3   254  MET254      0.0387
    214  CG         9.7750   -2.1620    0.4510 C.3   254  MET254      0.0595
    215  SD         9.4430   -3.5950    1.4880 S.3   254  MET254     -0.1393
    216  CE         9.6740   -4.9380    0.3150 C.3   254  MET254      0.0692
@<TRIPOS>BOND
     1   156   157    1
     2   166   167    1
     3   158   157    1
     4   158   159    2
     5   157   160    1
     6   167   170    1
     7   167   168    1
     8   171   170    1
     9   171   172    1
    10   176   174    1
    11   160   161    1
    12   173   174    2
    13   173   172    1
    14    66    68   ar
    15    66    64   ar
    16   174   175    1
    17   168   177   am
    18   168   169    2
    19   177   178    1
    20    68    69   ar
    21    63    64    1
    22    63    60    1
    23    59    60    1
    24   130   131    1
    25   161   162   ar
    26   161   163   ar
    27   162   164   ar
    28    64    65   ar
    29   179   178    1
    30   179   180    2
    31    61    60    1
    32    61    62    2
    33   178   181    1
    34   181   182    1
    35    69    67   ar
    36   131   134    1
    37   131   132    1
    38   163   165   ar
    39    65    67   ar
    40   185   186    1
    41   164   165   ar
    42   137   136    1
    43   212   211    2
    44   184   182    1
    45   134   135    1
    46   135   136    1
    47   182   183    1
    48   132   133    2
    49   132   138   am
    50    74    75    1
    51    74    71    1
    52   146   147    1
    53    75    76    1
    54   138   139    1
    55   211   210    1
    56   140   141    2
    57   140   139    1
    58   186   187    1
    59   186   189    1
    60   187   188    2
    61    70    71    1
    62    72    71    1
    63    72    73    2
    64   139   142    1
    65   147   148    1
    66   147   150    1
    67   189   190    1
    68   189   191    1
    69    76    77    2
    70    76    78   am
    71   210   213    1
    72   210   209    1
    73   148   149    2
    74   190   192    1
    75   142   143    1
    76     1     2    1
    77   153   155   ar
    78   153   151   ar
    79    15    14    1
    80   155   154   ar
    81    16    14    1
    82   213   214    1
    83   151   150    1
    84   151   152   ar
    85   208   205    1
    86   154   152   ar
    87    14    13    1
    88   143   145    1
    89   143   144    1
    90   216   215    1
    91     2     5    1
    92     2     3    1
    93   214   215    1
    94     6     8    1
    95     6     5    1
    96     6     7    1
    97   205   204    1
    98   205   206    1
    99     3     4    2
   100    13    10    1
   101   204   195   am
   102     9    10    1
   103   207   206    2
   104    79    80    1
   105   193   194    1
   106    10    11    1
   107    85    87   ar
   108    85    84   ar
   109    56    55    2
   110    57    58    1
   111    57    54    1
   112    83    80    1
   113    83    84    1
   114    81    80    1
   115    81    82    2
   116   195   194    1
   117   195   196    2
   118    30    29    1
   119    87    89   ar
   120   194   197    1
   121   197   198    1
   122    84    86   ar
   123    55    54    1
   124   101   103   ar
   125   101    99   ar
   126   200   198   ar
   127   200   202   ar
   128    54    53    1
   129    98    99   ar
   130    98    96   ar
   131    11    12    2
   132   103   102   ar
   133   198   199   ar
   134   202   203   ar
   135    99    97   ar
   136    31    29    1
   137   128   127    1
   138    29    28    1
   139    89    88   ar
   140   129   127    1
   141    86    88   ar
   142    53    47   am
   143    96    95   ar
   144    44    41    1
   145    41    40    1
   146    41    42    1
   147    28    25    1
   148    43    42    2
   149   127   126    1
   150   102   100   ar
   151   199   201   ar
   152    35    34    2
   153   203   201   ar
   154    97    95   ar
   155    97   100   ar
   156    48    47    2
   157    40    34   am
   158    36    37    1
   159    36    33    1
   160    47    46    1
   161    34    33    1
   162    95    94    1
   163    37    38    1
   164    27    26    2
   165   126   123    1
   166    25    26    1
   167    25    24    1
   168    33    32    1
   169    38    39    1
   170    50    49    1
   171    50    51    1
   172    22    21    1
   173    46    49    1
   174    46    45    1
   175    94    91    1
   176   123   124    1
   177   123   122    1
   178    17    18    1
   179    51    52    1
   180    23    21    1
   181    91    90    1
   182    91    92    1
   183    21    18    1
   184   124   125    2
   185    18    19    1
   186   109   108    1
   187   113   112    2
   188   114   115    1
   189   114   111    1
   190    92    93    2
   191   115   117   ar
   192   115   116   ar
   193   117   119   ar
   194   116   118   ar
   195    19    20    2
   196   112   111    1
   197   119   120   ar
   198   118   120   ar
   199   120   121    1
   200   111   110    1
   201   108   105    1
   202   105   104    1
   203   105   106    1
   204   106   107    2
