@<TRIPOS>MOLECULE
tmp/4nyiC00.pdb
 100 95 0 0 0
SMALL
GASTEIGER

@<TRIPOS>ATOM
      1  N         27.1860   30.8300   25.1020 N.3   304  MET304     -0.1230
      2  CA        28.4020   30.6720   24.3040 C.3   304  MET304      0.1702
      3  C         28.9640   29.2560   24.4220 C.2   304  MET304      0.2592
      4  O         29.4880   28.7200   23.4550 O.2   304  MET304     -0.2718
      5  CB        29.4790   31.7160   24.6830 C.3   304  MET304      0.0401
      6  CG        29.0820   33.1900   24.4950 C.3   304  MET304      0.0596
      7  SD        28.4540   33.5700   22.8520 S.3   304  MET304     -0.1393
      8  CE        27.9780   35.2720   23.0210 C.3   304  MET304      0.0692
      9  N         28.8450   28.6600   25.6040 N.am  305  ASN305     -0.1974
     10  CA        29.3390   27.3130   25.8740 C.3   305  ASN305      0.1688
     11  C         28.4060   26.2100   25.3800 C.2   305  ASN305      0.2292
     12  O         28.7590   25.0430   25.4170 O.2   305  ASN305     -0.2864
     13  CB        29.5370   27.1180   27.3800 C.3   305  ASN305      0.1181
     14  CG        30.9520   27.4000   27.8370 C.2   305  ASN305      0.2629
     15  OD1       31.8630   26.6040   27.6040 O.2   305  ASN305     -0.2716
     16  ND2       31.1360   28.5130   28.5340 N.am  305  ASN305     -0.0877
     17  N         29.0140   26.7990   20.5390 N.3   310  TYR310     -0.1241
     18  CA        30.4490   26.6230   20.7630 C.3   310  TYR310      0.1605
     19  C         31.2080   26.2410   19.4950 C.2   310  TYR310      0.2264
     20  O         32.3870   26.5530   19.3440 O.2   310  TYR310     -0.2867
     21  CB        30.6910   25.5640   21.8450 C.3   310  TYR310      0.0534
     22  CG        32.1330   25.4500   22.2920 C.ar  310  TYR310     -0.0201
     23  CD1       32.6390   26.2770   23.2850 C.ar  310  TYR310     -0.0009
     24  CD2       32.9900   24.5190   21.7190 C.ar  310  TYR310     -0.0009
     25  CE1       33.9580   26.1800   23.6940 C.ar  310  TYR310      0.0417
     26  CE2       34.3100   24.4170   22.1180 C.ar  310  TYR310      0.0417
     27  CZ        34.7910   25.2460   23.1090 C.ar  310  TYR310      0.1957
     28  OH        36.1080   25.1440   23.5210 O.3   310  TYR310     -0.2866
     29  N         33.0900   28.0030   14.7770 N.3   313  ASP313     -0.1239
     30  CA        34.4540   28.5170   14.6010 C.3   313  ASP313      0.1674
     31  C         34.6340   29.6850   13.6160 C.2   313  ASP313      0.2266
     32  O         35.4680   30.5560   13.8520 O.2   313  ASP313     -0.2867
     33  CB        35.4150   27.3750   14.2600 C.3   313  ASP313      0.1410
     34  CG        35.7130   26.4720   15.4590 C.2   313  ASP313      0.3668
     35  OD1       35.2340   26.7880   16.5740 O.co2 313  ASP313     -0.2456
     36  OD2       36.4380   25.4570   15.2910 O.co2 313  ASP313     -0.2456
     37  N         33.4360   32.9810   15.4880 N.3   316  PHE316     -0.1227
     38  CA        34.3450   33.4800   16.5020 C.3   316  PHE316      0.1736
     39  C         35.7410   33.8490   15.9770 C.2   316  PHE316      0.2595
     40  O         36.4510   34.6260   16.6180 O.2   316  PHE316     -0.2718
     41  CB        34.4300   32.4910   17.6630 C.3   316  PHE316      0.0547
     42  CG        33.1770   32.4270   18.4890 C.ar  316  PHE316     -0.0202
     43  CD1       32.1480   31.5740   18.1460 C.ar  316  PHE316     -0.0042
     44  CD2       33.0290   33.2250   19.6080 C.ar  316  PHE316     -0.0042
     45  CE1       30.9960   31.5230   18.9000 C.ar  316  PHE316     -0.0003
     46  CE2       31.8800   33.1760   20.3640 C.ar  316  PHE316     -0.0003
     47  CZ        30.8650   32.3270   20.0120 C.ar  316  PHE316     -0.0000
     48  N         36.1390   33.3190   14.8190 N.am  317  GLU317     -0.1979
     49  CA        37.3680   33.8050   14.1700 C.3   317  GLU317      0.1602
     50  C         37.2690   35.3130   13.9280 C.2   317  GLU317      0.2287
     51  O         38.2720   36.0080   13.9310 O.2   317  GLU317     -0.2864
     52  CB        37.6410   33.1030   12.8300 C.3   317  GLU317      0.0415
     53  CG        38.4130   31.7690   12.8850 C.3   317  GLU317      0.1163
     54  CD        38.2010   30.8900   11.6220 C.2   317  GLU317      0.3649
     55  OE1       37.9650   31.4460   10.5160 O.co2 317  GLU317     -0.2457
     56  OE2       38.2580   29.6380   11.7390 O.co2 317  GLU317     -0.2457
     57  N         35.3680   37.7190   15.6260 N.3   319  ILE319     -0.1245
     58  CA        35.0710   38.5680   16.7670 C.3   319  ILE319      0.1561
     59  C         36.3180   39.4040   17.0270 C.2   319  ILE319      0.2260
     60  O         37.4360   38.8880   16.9470 O.2   319  ILE319     -0.2867
     61  CB        34.6910   37.6820   17.9870 C.3   319  ILE319      0.0252
     62  CG1       33.2690   37.1610   17.8140 C.3   319  ILE319      0.0019
     63  CG2       34.7870   38.4230   19.2740 C.3   319  ILE319      0.0019
     64  CD1       32.3000   38.2010   17.2220 C.3   319  ILE319      0.0001
     65  N         37.1410   38.6440   22.4420 N.3   324  LYS324     -0.1245
     66  CA        37.5730   37.2930   22.7650 C.3   324  LYS324      0.1561
     67  C         38.0220   37.3350   24.2120 C.2   324  LYS324      0.2260
     68  O         37.7320   36.4420   25.0040 O.2   324  LYS324     -0.2867
     69  CB        38.7440   36.8640   21.8720 C.3   324  LYS324      0.0271
     70  CG        38.5200   37.1100   20.3790 C.3   324  LYS324      0.0035
     71  CD        39.4790   36.3060   19.4950 C.3   324  LYS324      0.0206
     72  CE        39.0890   36.4100   18.0220 C.3   324  LYS324      0.1093
     73  NZ        39.8490   35.4740   17.1340 N.3   324  LYS324     -0.1314
     74  N         34.9850   37.4500   26.6740 N.3   327  LEU327     -0.1231
     75  CA        34.3270   36.1530   26.7900 C.3   327  LEU327      0.1693
     76  C         35.2150   35.1720   27.5500 C.2   327  LEU327      0.2591
     77  O         34.7240   34.3400   28.2960 O.2   327  LEU327     -0.2718
     78  CB        33.9320   35.5890   25.4170 C.3   327  LEU327      0.0284
     79  CG        33.3970   34.1470   25.3710 C.3   327  LEU327      0.0019
     80  CD1       32.2480   33.9800   26.3190 C.3   327  LEU327      0.0001
     81  CD2       32.9530   33.7770   23.9880 C.3   327  LEU327      0.0001
     82  N         36.5260   35.2800   27.3780 N.am  328  GLU328     -0.1979
     83  CA        37.4280   34.3930   28.0970 C.3   328  GLU328      0.1602
     84  C         37.4480   34.7000   29.6020 C.2   328  GLU328      0.2287
     85  O         37.3800   33.7870   30.4190 O.2   328  GLU328     -0.2864
     86  CB        38.8400   34.4390   27.5000 C.3   328  GLU328      0.0415
     87  CG        39.8560   33.5210   28.2140 C.3   328  GLU328      0.1163
     88  CD        39.6540   32.0340   27.9180 C.2   328  GLU328      0.3649
     89  OE1       39.3940   31.6990   26.7370 O.co2 328  GLU328     -0.2457
     90  OE2       39.7630   31.2050   28.8600 O.co2 328  GLU328     -0.2457
     91  N         34.1280   33.4030   31.0260 N.3   331  HIS331     -0.1241
     92  CA        34.0820   31.9550   31.1120 C.3   331  HIS331      0.1621
     93  C         34.9120   31.4710   32.2890 C.2   331  HIS331      0.2264
     94  O         34.5490   30.5050   32.9490 O.2   331  HIS331     -0.2867
     95  CB        34.6030   31.3100   29.8140 C.3   331  HIS331      0.0745
     96  CG        34.8230   29.8350   29.9300 C.ar  331  HIS331      0.0817
     97  ND1       33.7850   28.9260   29.9510 N.ar  331  HIS331     -0.2268
     98  CD2       35.9580   29.1120   30.0730 C.ar  331  HIS331      0.1154
     99  CE1       34.2720   27.7050   30.0830 C.ar  331  HIS331      0.1986
    100  NE2       35.5890   27.7910   30.1620 N.ar  331  HIS331     -0.2212
@<TRIPOS>BOND
     1    55    54   ar
     2    54    56   ar
     3    54    53    1
     4    52    53    1
     5    52    49    1
     6    31    32    2
     7    31    30    1
     8    50    51    2
     9    50    49    1
    10    49    48    1
    11    33    30    1
    12    33    34    1
    13    30    29    1
    14    48    39   am
    15    36    34   ar
    16    34    35   ar
    17    37    38    1
    18    57    58    1
    19    39    38    1
    20    39    40    2
    21    38    41    1
    22    58    59    1
    23    58    61    1
    24    60    59    2
    25    73    72    1
    26    64    62    1
    27    41    42    1
    28    62    61    1
    29    61    63    1
    30    72    71    1
    31    43    42   ar
    32    43    45   ar
    33    42    44   ar
    34    45    47   ar
    35    20    19    2
    36    71    70    1
    37    19    18    1
    38    44    46   ar
    39    47    46   ar
    40    70    69    1
    41    17    18    1
    42    18    21    1
    43    24    26   ar
    44    24    22   ar
    45    21    22    1
    46    69    66    1
    47    26    27   ar
    48    22    23   ar
    49    65    66    1
    50    66    67    1
    51     7     8    1
    52     7     6    1
    53    27    28    1
    54    27    25   ar
    55    23    25   ar
    56     4     3    2
    57    81    79    1
    58    67    68    2
    59     2     3    1
    60     2     5    1
    61     2     1    1
    62     3     9   am
    63     6     5    1
    64    79    78    1
    65    79    80    1
    66    11    12    2
    67    11    10    1
    68    78    75    1
    69     9    10    1
    70    10    13    1
    71    74    75    1
    72    89    88   ar
    73    75    76    1
    74    82    76   am
    75    82    83    1
    76    13    14    1
    77    86    83    1
    78    86    87    1
    79    76    77    2
    80    15    14    2
    81    14    16   am
    82    88    87    1
    83    88    90   ar
    84    83    84    1
    85    84    85    2
    86    95    96    1
    87    95    92    1
    88    96    97   ar
    89    96    98   ar
    90    97    99   ar
    91    98   100   ar
    92    99   100   ar
    93    91    92    1
    94    92    93    1
    95    93    94    2
