@<TRIPOS>MOLECULE
tmp/4nyqA03.pdb
 198 186 0 0 0
SMALL
GASTEIGER

@<TRIPOS>ATOM
      1  N        -15.4690   19.9470   31.9630 N.3    22  LEU22      -0.1245
      2  CA       -14.1390   19.3320   31.7230 C.3    22  LEU22       0.1561
      3  C        -14.4030   17.9370   31.2040 C.2    22  LEU22       0.2260
      4  O        -14.6070   16.9920   31.9700 O.2    22  LEU22      -0.2867
      5  CB       -13.3210   19.3800   33.0130 C.3    22  LEU22       0.0270
      6  CG       -11.8360   19.4630   32.8120 C.3    22  LEU22       0.0019
      7  CD1      -11.1100   19.6140   34.1220 C.3    22  LEU22       0.0001
      8  CD2      -11.3380   18.2540   32.0790 C.3    22  LEU22       0.0001
      9  N         -8.9750   10.4800   32.5870 N.3    29  ILE29      -0.1245
     10  CA        -9.2010   10.4130   34.0210 C.3    29  ILE29       0.1561
     11  C        -10.6080    9.9200   34.4020 C.2    29  ILE29       0.2260
     12  O        -10.9580    9.8240   35.5640 O.2    29  ILE29      -0.2867
     13  CB        -8.9500   11.7540   34.7000 C.3    29  ILE29       0.0252
     14  CG1       -9.9530   12.8420   34.2810 C.3    29  ILE29       0.0019
     15  CG2       -7.5260   12.1760   34.4450 C.3    29  ILE29       0.0019
     16  CD1       -9.8770   14.1630   34.9960 C.3    29  ILE29       0.0001
     17  N        -11.9200    7.6350   37.1880 N.3    32  GLN32      -0.1231
     18  CA       -11.6140    8.0940   38.5580 C.3    32  GLN32       0.1698
     19  C        -12.6350    9.1250   38.9990 C.2    32  GLN32       0.2592
     20  O        -12.9780    9.2150   40.1400 O.2    32  GLN32      -0.2718
     21  CB       -10.1630    8.6330   38.5580 C.3    32  GLN32       0.0381
     22  CG        -9.5560    9.1840   39.8060 C.3    32  GLN32       0.0905
     23  CD        -8.0560    9.4520   39.6200 C.2    32  GLN32       0.2608
     24  OE1       -7.6620   10.4000   38.9550 O.2    32  GLN32      -0.2717
     25  NE2       -7.2210    8.5970   40.1780 N.am   32  GLN32      -0.0878
     26  N        -13.1360    9.9440   38.0650 N.am   33  VAL33      -0.1980
     27  CA       -14.0250   11.0790   38.3450 C.3    33  VAL33       0.1595
     28  C        -14.8310   11.3830   37.0920 C.2    33  VAL33       0.2287
     29  O        -14.3460   11.1330   36.0060 O.2    33  VAL33      -0.2864
     30  CB       -13.1900   12.2900   38.7490 C.3    33  VAL33       0.0276
     31  CG1      -12.2890   12.7360   37.6230 C.3    33  VAL33       0.0022
     32  CG2      -14.0620   13.4250   39.2340 C.3    33  VAL33       0.0022
     33  N        -17.7040   16.6090   35.4220 N.3    36  ILE36      -0.1245
     34  CA       -16.9800   17.7180   35.9930 C.3    36  ILE36       0.1561
     35  C        -17.4530   19.0700   35.4630 C.2    36  ILE36       0.2260
     36  O        -17.3640   19.3150   34.2730 O.2    36  ILE36      -0.2867
     37  CB       -15.4530   17.6080   35.7350 C.3    36  ILE36       0.0252
     38  CG1      -14.9140   16.2530   36.2210 C.3    36  ILE36       0.0019
     39  CG2      -14.7400   18.7730   36.4140 C.3    36  ILE36       0.0019
     40  CD1      -13.4800   16.0150   35.8750 C.3    36  ILE36       0.0001
     41  N        -17.0840   23.2730   36.2620 N.3    38  GLU38      -0.1245
     42  CA       -16.2930   24.3080   36.9020 C.3    38  GLU38       0.1567
     43  C        -17.0470   25.6290   36.7870 C.2    38  GLU38       0.2260
     44  O        -17.6260   25.9160   35.7330 O.2    38  GLU38      -0.2867
     45  CB       -14.9420   24.4600   36.2500 C.3    38  GLU38       0.0388
     46  CG       -14.0730   23.2340   36.2260 C.3    38  GLU38       0.1160
     47  CD       -12.9730   23.3720   35.2190 C.2    38  GLU38       0.3649
     48  OE1      -13.2510   23.1360   33.9900 O.co2  38  GLU38      -0.2457
     49  OE2      -11.8540   23.7190   35.5990 O.co2  38  GLU38      -0.2457
     50  N        -15.7830   23.5890   41.8660 N.3    51  VAL51      -0.1245
     51  CA       -15.7730   22.4160   40.9800 C.3    51  VAL51       0.1561
     52  C        -16.7540   21.4370   41.5410 C.2    51  VAL51       0.2260
     53  O        -16.6450   21.1390   42.7290 O.2    51  VAL51      -0.2867
     54  CB       -14.3800   21.8200   40.8400 C.3    51  VAL51       0.0252
     55  CG1      -14.4420   20.4970   40.0800 C.3    51  VAL51       0.0019
     56  CG2      -13.4260   22.8010   40.1530 C.3    51  VAL51       0.0019
     57  N        -18.3730   17.4750   40.7620 N.3    53  ASP53      -0.1239
     58  CA       -18.0170   16.2740   40.0800 C.3    53  ASP53       0.1674
     59  C        -18.7370   15.1120   40.7040 C.2    53  ASP53       0.2266
     60  O        -19.1590   15.1800   41.8730 O.2    53  ASP53      -0.2867
     61  CB       -16.4840   16.0310   40.1100 C.3    53  ASP53       0.1410
     62  CG       -15.9620   15.7960   41.5040 C.2    53  ASP53       0.3668
     63  OD1      -15.9550   14.6250   41.9460 O.co2  53  ASP53      -0.2456
     64  OD2      -15.5820   16.7760   42.1520 O.co2  53  ASP53      -0.2456
     65  N        -18.0600   11.4940   42.0910 N.3    55  SER55      -0.1217
     66  CA       -17.0480   10.6190   42.6970 C.3    55  SER55       0.1889
     67  C        -17.6000    9.2170   42.8080 C.2    55  SER55       0.2288
     68  O        -18.6690    9.0400   43.3550 O.2    55  SER55      -0.2866
     69  CB       -16.6780   11.1620   44.0820 C.3    55  SER55       0.2089
     70  OG       -15.9490   10.1910   44.7920 O.3    55  SER55      -0.2183
     71  N        -16.7650    7.1840   44.9880 N.3    57  GLU57      -0.1231
     72  CA       -16.9330    6.9920   46.4310 C.3    57  GLU57       0.1699
     73  C        -18.0500    7.8530   47.0430 C.2    57  GLU57       0.2592
     74  O        -18.8100    7.4120   47.9130 O.2    57  GLU57      -0.2718
     75  CB       -15.6230    7.2920   47.1770 C.3    57  GLU57       0.0402
     76  CG       -15.7660    7.1370   48.6780 C.3    57  GLU57       0.1161
     77  CD       -14.4640    7.0380   49.4260 C.2    57  GLU57       0.3649
     78  OE1      -14.4950    6.6120   50.6110 O.co2  57  GLU57      -0.2457
     79  OE2      -13.4210    7.3900   48.8550 O.co2  57  GLU57      -0.2457
     80  N        -18.0760    9.1060   46.6630 N.am   58  TYR58      -0.1976
     81  CA       -18.9040   10.0830   47.3500 C.3    58  TYR58       0.1639
     82  C        -20.1420   10.5450   46.5910 C.2    58  TYR58       0.2290
     83  O        -20.9630   11.2700   47.1420 O.2    58  TYR58      -0.2864
     84  CB       -18.0730   11.3080   47.6900 C.3    58  TYR58       0.0560
     85  CG       -16.9450   11.0580   48.6450 C.ar   58  TYR58      -0.0198
     86  CD1      -17.2090   10.7230   49.9520 C.ar   58  TYR58      -0.0009
     87  CD2      -15.6230   11.1620   48.2320 C.ar   58  TYR58      -0.0009
     88  CE1      -16.1930   10.5300   50.8470 C.ar   58  TYR58       0.0417
     89  CE2      -14.5830   10.9180   49.1170 C.ar   58  TYR58       0.0417
     90  CZ       -14.8850   10.6150   50.4320 C.ar   58  TYR58       0.1957
     91  OH       -13.8770   10.4100   51.3520 O.3    58  TYR58      -0.2866
     92  N        -20.3510   15.7670   44.3870 N.3    61  GLU61      -0.1245
     93  CA       -19.6580   16.5050   45.4170 C.3    61  GLU61       0.1567
     94  C        -19.1720   17.8210   44.8650 C.2    61  GLU61       0.2260
     95  O        -19.1110   18.0120   43.6350 O.2    61  GLU61      -0.2867
     96  CB       -18.4850   15.6810   45.9410 C.3    61  GLU61       0.0388
     97  CG       -17.5360   15.2200   44.8200 C.3    61  GLU61       0.1160
     98  CD       -16.2230   14.6210   45.2700 C.2    61  GLU61       0.3649
     99  OE1      -16.0680   14.2920   46.4620 O.co2  61  GLU61      -0.2457
    100  OE2      -15.2930   14.4620   44.4400 O.co2  61  GLU61      -0.2457
    101  N        -16.3550   21.2380   45.5640 N.3    63  HIS63      -0.1241
    102  CA       -15.1210   21.7340   46.1570 C.3    63  HIS63       0.1621
    103  C        -14.8820   23.2010   45.8070 C.2    63  HIS63       0.2264
    104  O        -15.0490   23.5610   44.6820 O.2    63  HIS63      -0.2867
    105  CB       -13.9120   20.9810   45.6600 C.3    63  HIS63       0.0745
    106  CG       -14.1160   19.5100   45.4580 C.ar   63  HIS63       0.0817
    107  ND1      -13.7220   18.5660   46.3580 N.ar   63  HIS63      -0.2268
    108  CD2      -14.6400   18.8420   44.4100 C.ar   63  HIS63       0.1154
    109  CE1      -13.9840   17.3590   45.8760 C.ar   63  HIS63       0.1986
    110  NE2      -14.5490   17.5040   44.6860 N.ar   63  HIS63      -0.2212
    111  N         -3.4660   25.8120   40.5180 N.3    76  PHE76      -0.1241
    112  CA        -4.7790   25.3020   40.8720 C.3    76  PHE76       0.1605
    113  C         -4.7320   24.7010   42.2550 C.2    76  PHE76       0.2264
    114  O         -3.9000   23.8370   42.5020 O.2    76  PHE76      -0.2867
    115  CB        -5.1760   24.2140   39.8750 C.3    76  PHE76       0.0534
    116  CG        -6.5270   23.6280   40.1070 C.ar   76  PHE76      -0.0203
    117  CD1       -7.6820   24.1930   39.5970 C.ar   76  PHE76      -0.0042
    118  CD2       -6.6240   22.4670   40.8500 C.ar   76  PHE76      -0.0042
    119  CE1       -8.9060   23.6180   39.8460 C.ar   76  PHE76      -0.0003
    120  CE2       -7.8390   21.8700   41.0480 C.ar   76  PHE76      -0.0003
    121  CZ        -8.9730   22.4330   40.5580 C.ar   76  PHE76      -0.0000
    122  N         -7.4610   23.0680   45.2150 N.3    78  MET78      -0.1245
    123  CA        -8.8010   22.7360   45.7310 C.3    78  MET78       0.1570
    124  C         -8.7570   22.7120   47.2500 C.2    78  MET78       0.2261
    125  O         -7.6930   22.5720   47.8490 O.2    78  MET78      -0.2867
    126  CB        -9.3100   21.3830   45.2070 C.3    78  MET78       0.0387
    127  CG        -9.1780   21.2130   43.7030 C.3    78  MET78       0.0595
    128  SD        -9.8340   19.6650   43.0140 S.3    78  MET78      -0.1393
    129  CE       -11.5970   19.9330   43.1520 C.3    78  MET78       0.0692
    130  N         -9.1820   18.2830   48.8220 N.3    81  THR81      -0.1218
    131  CA        -8.4560   17.1500   48.2900 C.3    81  THR81       0.1862
    132  C         -7.5060   17.7430   47.2620 C.2    81  THR81       0.2287
    133  O         -7.8490   18.7610   46.6070 O.2    81  THR81      -0.2866
    134  CB        -9.4250   16.1100   47.7200 C.3    81  THR81       0.1770
    135  OG1       -8.7130   14.9170   47.4280 O.3    81  THR81      -0.2211
    136  CG2      -10.1540   16.6040   46.5190 C.3    81  THR81       0.0375
    137  N         -5.2050   16.0470   44.9600 N.3    83  GLU83      -0.1231
    138  CA        -4.5830   15.1960   43.9620 C.3    83  GLU83       0.1699
    139  C         -4.4800   15.8630   42.6050 C.2    83  GLU83       0.2592
    140  O         -3.6940   15.4120   41.8030 O.2    83  GLU83      -0.2718
    141  CB        -5.2630   13.8400   43.7700 C.3    83  GLU83       0.0402
    142  CG        -6.7620   13.8130   43.7680 C.3    83  GLU83       0.1161
    143  CD        -7.3320   13.9960   45.1540 C.2    83  GLU83       0.3649
    144  OE1       -8.3290   14.7020   45.2710 O.co2  83  GLU83      -0.2457
    145  OE2       -6.7820   13.4400   46.1240 O.co2  83  GLU83      -0.2457
    146  N         -5.2410   16.9250   42.3660 N.am   84  TYR84      -0.1976
    147  CA        -5.1660   17.6570   41.1140 C.3    84  TYR84       0.1639
    148  C         -4.4860   18.9830   41.2530 C.2    84  TYR84       0.2290
    149  O         -4.4350   19.7670   40.2950 O.2    84  TYR84      -0.2864
    150  CB        -6.5300   17.8000   40.4370 C.3    84  TYR84       0.0560
    151  CG        -7.0080   16.4860   39.8560 C.ar   84  TYR84      -0.0198
    152  CD1       -7.6700   15.5480   40.6240 C.ar   84  TYR84      -0.0009
    153  CD2       -6.6980   16.1480   38.5540 C.ar   84  TYR84      -0.0009
    154  CE1       -8.0780   14.3410   40.0790 C.ar   84  TYR84       0.0417
    155  CE2       -7.1120   14.9720   37.9950 C.ar   84  TYR84       0.0417
    156  CZ        -7.7760   14.0680   38.7660 C.ar   84  TYR84       0.1957
    157  OH        -8.1670   12.8850   38.1860 O.3    84  TYR84      -0.2866
    158  N         -0.3910   24.6720   36.2450 N.3    88  TYR88      -0.1241
    159  CA        -0.8580   24.2950   34.9320 C.3    88  TYR88       0.1605
    160  C         -0.4740   25.4070   33.9370 C.2    88  TYR88       0.2264
    161  O         -0.6400   26.5880   34.1930 O.2    88  TYR88      -0.2867
    162  CB        -2.3710   24.1230   34.9060 C.3    88  TYR88       0.0534
    163  CG        -2.8280   22.8760   35.6240 C.ar   88  TYR88      -0.0201
    164  CD1       -2.9570   21.6790   34.9600 C.ar   88  TYR88      -0.0009
    165  CD2       -3.1680   22.9140   36.9610 C.ar   88  TYR88      -0.0009
    166  CE1       -3.3810   20.5330   35.6250 C.ar   88  TYR88       0.0417
    167  CE2       -3.6000   21.7670   37.6120 C.ar   88  TYR88       0.0417
    168  CZ        -3.6800   20.5850   36.9540 C.ar   88  TYR88       0.1957
    169  OH        -4.0990   19.4120   37.6010 O.3    88  TYR88      -0.2866
    170  N         -5.2920   23.3000   29.4230 N.3   100  PHE100     -0.1241
    171  CA        -4.0680   23.4530   30.1900 C.3   100  PHE100      0.1605
    172  C         -3.3990   22.1240   30.5080 C.2   100  PHE100      0.2264
    173  O         -4.0020   21.0720   30.3670 O.2   100  PHE100     -0.2867
    174  CB        -4.1640   24.4860   31.3480 C.3   100  PHE100      0.0534
    175  CG        -5.1390   24.2060   32.5060 C.ar  100  PHE100     -0.0203
    176  CD1       -5.5070   22.9500   32.9000 C.ar  100  PHE100     -0.0042
    177  CD2       -5.6490   25.2900   33.2250 C.ar  100  PHE100     -0.0042
    178  CE1       -6.3520   22.7700   34.0100 C.ar  100  PHE100     -0.0003
    179  CE2       -6.5010   25.1210   34.3320 C.ar  100  PHE100     -0.0003
    180  CZ        -6.8560   23.8700   34.7100 C.ar  100  PHE100     -0.0000
    181  N         -5.8170   18.8750   29.9990 N.3   113  LEU113     -0.1245
    182  CA        -7.2300   19.0510   30.3650 C.3   113  LEU113      0.1561
    183  C         -7.9430   20.0270   29.4140 C.2   113  LEU113      0.2260
    184  O         -7.5650   21.1900   29.3510 O.2   113  LEU113     -0.2867
    185  CB        -7.3620   19.6050   31.7830 C.3   113  LEU113      0.0270
    186  CG        -6.8300   18.7730   32.9440 C.3   113  LEU113      0.0019
    187  CD1       -7.1590   17.3130   32.7440 C.3   113  LEU113      0.0001
    188  CD2       -5.3560   18.9930   33.1720 C.3   113  LEU113      0.0001
    189  N        -11.3770   22.0210   28.6460 N.3   115  HIS115     -0.1241
    190  CA       -12.5380   22.6300   29.2870 C.3   115  HIS115      0.1621
    191  C        -13.3600   23.2640   28.2030 C.2   115  HIS115      0.2264
    192  O        -12.8530   24.0790   27.4180 O.2   115  HIS115     -0.2867
    193  CB       -12.0930   23.7080   30.2800 C.3   115  HIS115      0.0745
    194  CG       -11.0160   23.2740   31.2100 C.ar  115  HIS115      0.0817
    195  ND1      -11.2060   23.0980   32.5520 N.ar  115  HIS115     -0.2268
    196  CD2       -9.6900   23.0950   30.9970 C.ar  115  HIS115      0.1154
    197  CE1      -10.0600   22.7580   33.1200 C.ar  115  HIS115      0.1986
    198  NE2       -9.1170   22.7740   32.1910 N.ar  115  HIS115     -0.2212
@<TRIPOS>BOND
     1   192   191    2
     2   191   190    1
     3   189   190    1
     4   190   193    1
     5   184   183    2
     6   183   182    1
     7   170   171    1
     8   181   182    1
     9   171   172    1
    10   171   174    1
    11   193   194    1
    12   182   185    1
    13   173   172    2
    14   196   194   ar
    15   196   198   ar
    16     3     2    1
    17     3     4    2
    18   194   195   ar
    19   174   175    1
    20     2     1    1
    21     2     5    1
    22   185   186    1
    23     8     6    1
    24   198   197   ar
    25   175   176   ar
    26   175   177   ar
    27   195   197   ar
    28     9    10    1
    29   187   186    1
    30     6     5    1
    31     6     7    1
    32   176   178   ar
    33   186   188    1
    34   177   179   ar
    35   160   161    2
    36   160   159    1
    37    48    47   ar
    38   178   180   ar
    39    10    11    1
    40    10    13    1
    41    36    35    2
    42    14    13    1
    43    14    16    1
    44   179   180   ar
    45    11    12    2
    46    15    13    1
    47   162   159    1
    48   162   163    1
    49   159   158    1
    50   164   163   ar
    51   164   166   ar
    52    47    49   ar
    53    47    46    1
    54    33    34    1
    55    35    34    1
    56   163   165   ar
    57   166   168   ar
    58    44    43    2
    59    37    34    1
    60    37    38    1
    61    37    39    1
    62    40    38    1
    63    29    28    2
    64    46    45    1
    65    45    42    1
    66    41    42    1
    67    43    42    1
    68   168   169    1
    69   168   167   ar
    70   165   167   ar
    71    28    27    1
    72    17    18    1
    73    31    30    1
    74   155   153   ar
    75   155   156   ar
    76    26    27    1
    77    26    19   am
    78   157   156    1
    79    27    30    1
    80   153   151   ar
    81    21    18    1
    82    21    22    1
    83    18    19    1
    84    30    32    1
    85   156   154   ar
    86    24    23    2
    87    19    20    2
    88   117   119   ar
    89   117   116   ar
    90    23    22    1
    91    23    25   am
    92   119   121   ar
    93   151   150    1
    94   151   152   ar
    95   115   116    1
    96   115   112    1
    97   154   152   ar
    98    58    61    1
    99    58    59    1
   100    58    57    1
   101    55    54    1
   102   116   118   ar
   103    61    62    1
   104    56    54    1
   105   149   148    2
   106   150   147    1
   107   111   112    1
   108   121   120   ar
   109    59    60    2
   110    54    51    1
   111   118   120   ar
   112   112   113    1
   113    51    52    1
   114    51    50    1
   115   147   148    1
   116   147   146    1
   117    62    63   ar
   118    62    64   ar
   119    52    53    2
   120   140   139    2
   121    65    66    1
   122   113   114    2
   123   146   139   am
   124   139   138    1
   125    66    67    1
   126    66    69    1
   127    67    68    2
   128   128   129    1
   129   128   127    1
   130    95    94    2
   131   127   126    1
   132   142   141    1
   133   142   143    1
   134   141   138    1
   135   138   137    1
   136    69    70    1
   137    92    93    1
   138   108   110   ar
   139   108   106   ar
   140   100    98   ar
   141   104   103    2
   142   110   109   ar
   143    97    98    1
   144    97    96    1
   145    94    93    1
   146    71    72    1
   147   143   144   ar
   148   143   145   ar
   149   126   123    1
   150   122   123    1
   151    98    99   ar
   152    93    96    1
   153   106   105    1
   154   106   107   ar
   155   101   102    1
   156   105   102    1
   157   123   124    1
   158   103   102    1
   159   109   107   ar
   160    72    73    1
   161    72    75    1
   162   136   134    1
   163    82    83    2
   164    82    81    1
   165   133   132    2
   166    80    73   am
   167    80    81    1
   168    73    74    2
   169    75    76    1
   170   124   125    2
   171   132   131    1
   172    81    84    1
   173   135   134    1
   174    84    85    1
   175   134   131    1
   176    87    85   ar
   177    87    89   ar
   178   131   130    1
   179    85    86   ar
   180    76    77    1
   181    79    77   ar
   182    89    90   ar
   183    77    78   ar
   184    86    88   ar
   185    90    88   ar
   186    90    91    1
