@<TRIPOS>MOLECULE
tmp/4nyrA02.pdb
 84 82 0 0 0
SMALL
GASTEIGER

@<TRIPOS>ATOM
      1  N        -19.9710   19.2420   23.7890 N.3   121  PRO121     -0.2116
      2  CA       -19.5730   20.1810   22.7340 C.3   121  PRO121      0.1372
      3  C        -19.7950   19.6360   21.3250 C.2   121  PRO121      0.2244
      4  O        -19.6810   18.4460   21.0860 O.2   121  PRO121     -0.2868
      5  CB       -18.0720   20.4120   23.0110 C.3   121  PRO121      0.0268
      6  CG       -17.6340   19.2750   23.8970 C.3   121  PRO121      0.0207
      7  CD       -18.8510   18.8610   24.6730 C.3   121  PRO121      0.0892
      8  N        -15.0460   20.7910   18.7770 N.3   126  ILE126     -0.1245
      9  CA       -14.1260   19.6720   18.8330 C.3   126  ILE126      0.1561
     10  C        -12.9930   19.7480   17.7920 C.2   126  ILE126      0.2260
     11  O        -11.7960   19.5900   18.1380 O.2   126  ILE126     -0.2867
     12  CB       -14.8750   18.3290   18.7920 C.3   126  ILE126      0.0252
     13  CG1      -15.5780   18.0980   20.1510 C.3   126  ILE126      0.0019
     14  CG2      -13.9070   17.1940   18.5090 C.3   126  ILE126      0.0019
     15  CD1      -16.5880   16.9900   20.1150 C.3   126  ILE126      0.0001
     16  N         -8.9700   19.6930   18.6180 N.3   130  LYS130     -0.1245
     17  CA        -8.0290   18.9460   17.7580 C.3   130  LYS130      0.1561
     18  C         -6.8920   19.8060   17.1480 C.2   130  LYS130      0.2260
     19  O         -5.7250   19.4260   17.1760 O.2   130  LYS130     -0.2867
     20  CB        -8.7820   18.3050   16.6090 C.3   130  LYS130      0.0271
     21  CG        -9.5090   17.0280   16.9460 C.3   130  LYS130      0.0035
     22  CD        -9.9600   16.3990   15.6500 C.3   130  LYS130      0.0206
     23  CE       -10.2760   14.9420   15.8170 C.3   130  LYS130      0.1093
     24  NZ       -11.5060   14.6730   15.0070 N.3   130  LYS130     -0.1314
     25  N         -5.3610   14.5820   20.0360 N.3   140  TYR140     -0.1227
     26  CA        -6.6810   14.2370   20.4990 C.3   140  TYR140      0.1736
     27  C         -6.9530   12.7150   20.5800 C.2   140  TYR140      0.2595
     28  O         -7.7060   12.2910   21.4560 O.2   140  TYR140     -0.2718
     29  CB        -7.7250   14.9570   19.6410 C.3   140  TYR140      0.0548
     30  CG        -9.1360   14.9120   20.1780 C.ar  140  TYR140     -0.0200
     31  CD1       -9.6040   15.9000   21.0270 C.ar  140  TYR140     -0.0009
     32  CD2      -10.0180   13.8760   19.8040 C.ar  140  TYR140     -0.0009
     33  CE1      -10.8990   15.8850   21.5140 C.ar  140  TYR140      0.0417
     34  CE2      -11.3100   13.8420   20.2950 C.ar  140  TYR140      0.0417
     35  CZ       -11.7320   14.8620   21.1490 C.ar  140  TYR140      0.1957
     36  OH       -13.0040   14.8340   21.6320 O.3   140  TYR140     -0.2866
     37  N         -6.3160   11.8980   19.7350 N.am  141  LYS141     -0.1980
     38  CA        -6.4760   10.4250   19.8070 C.3   141  LYS141      0.1596
     39  C         -6.2070    9.8230   21.1880 C.2   141  LYS141      0.2287
     40  O         -6.7730    8.7800   21.5210 O.2   141  LYS141     -0.2864
     41  CB        -5.5190    9.7080   18.8590 C.3   141  LYS141      0.0298
     42  CG        -6.0460    9.4180   17.4760 C.3   141  LYS141      0.0038
     43  CD        -4.9050    8.8710   16.6210 C.3   141  LYS141      0.0206
     44  CE        -4.2500    7.6580   17.2740 C.3   141  LYS141      0.1093
     45  NZ        -2.9830    7.3440   16.5690 N.3   141  LYS141     -0.1314
     46  N         -6.6560   11.1620   24.1410 N.3   143  PHE143     -0.1227
     47  CA        -7.4870   11.7120   25.1950 C.3   143  PHE143      0.1736
     48  C         -8.6670   10.7930   25.4370 C.2   143  PHE143      0.2596
     49  O         -9.1220   10.0830   24.5330 O.2   143  PHE143     -0.2718
     50  CB        -7.9660   13.1240   24.8560 C.3   143  PHE143      0.0547
     51  CG        -6.9310   14.1960   25.0740 C.ar  143  PHE143     -0.0202
     52  CD1       -5.7620   14.2460   24.2880 C.ar  143  PHE143     -0.0042
     53  CD2       -7.1370   15.1810   26.0290 C.ar  143  PHE143     -0.0042
     54  CE1       -4.8090   15.2230   24.4850 C.ar  143  PHE143     -0.0003
     55  CE2       -6.1640   16.1750   26.2420 C.ar  143  PHE143     -0.0003
     56  CZ        -5.0050   16.2020   25.4560 C.ar  143  PHE143     -0.0000
     57  N         -9.1480   10.7860   26.6740 N.am  144  GLY144     -0.1942
     58  CA       -10.3840   10.0540   26.9970 C.3   144  GLY144      0.2014
     59  C        -11.4900   11.0090   27.3560 C.2   144  GLY144      0.2638
     60  O        -11.2360   12.0610   27.9460 O.2   144  GLY144     -0.2714
     61  N        -12.7120   10.6310   27.0030 N.am  145  ASN145     -0.1972
     62  CA       -13.9250   11.4190   27.2540 C.3   145  ASN145      0.1688
     63  C        -14.6190   10.9860   28.5050 C.2   145  ASN145      0.2292
     64  O        -14.5790    9.8060   28.8310 O.2   145  ASN145     -0.2864
     65  CB       -14.9490   11.1760   26.1290 C.3   145  ASN145      0.1181
     66  CG       -14.6520   11.9740   24.8740 C.2   145  ASN145      0.2629
     67  OD1      -14.0980   13.1070   24.9300 O.2   145  ASN145     -0.2716
     68  ND2      -15.0260   11.3950   23.7170 N.am  145  ASN145     -0.0877
     69  N        -24.0660   12.1110   25.8040 N.3   151  CYS151     -0.1221
     70  CA       -24.0610   13.0590   24.6760 C.3   151  CYS151      0.1808
     71  C        -24.6910   12.5150   23.4120 C.2   151  CYS151      0.2601
     72  O        -24.6920   13.1750   22.3870 O.2   151  CYS151     -0.2717
     73  CB       -22.6510   13.5590   24.3860 C.3   151  CYS151      0.0970
     74  SG       -22.0330   14.4950   25.7860 S.3   151  CYS151     -0.0800
     75  N        -25.2060   11.2970   23.4900 N.am  152  HIS152     -0.1975
     76  CA       -25.7900   10.6230   22.3300 C.3   152  HIS152      0.1656
     77  C        -27.0040    9.8390   22.8000 C.2   152  HIS152      0.2291
     78  O        -27.0610    9.3770   23.9470 O.2   152  HIS152     -0.2864
     79  CB       -24.7340    9.7660   21.5970 C.3   152  HIS152      0.0771
     80  CG       -23.4480   10.5130   21.3750 C.ar  152  HIS152      0.0820
     81  ND1      -22.3120   10.2930   22.1330 N.ar  152  HIS152     -0.2267
     82  CD2      -23.1550   11.5620   20.5620 C.ar  152  HIS152      0.1154
     83  CE1      -21.3610   11.1320   21.7520 C.ar  152  HIS152      0.1986
     84  NE2      -21.8480   11.9170   20.8060 N.ar  152  HIS152     -0.2212
@<TRIPOS>BOND
     1    24    23    1
     2    22    23    1
     3    22    21    1
     4    45    44    1
     5    20    21    1
     6    20    17    1
     7    43    44    1
     8    43    42    1
     9    18    19    2
    10    18    17    1
    11    42    41    1
    12    17    16    1
    13    10    11    2
    14    10     9    1
    15    14    12    1
    16     8     9    1
    17    12     9    1
    18    12    13    1
    19    41    38    1
    20    29    30    1
    21    29    26    1
    22    37    38    1
    23    37    27   am
    24    32    30   ar
    25    32    34   ar
    26    38    39    1
    27    25    26    1
    28    15    13    1
    29    30    31   ar
    30    34    35   ar
    31    26    27    1
    32    82    84   ar
    33    82    80   ar
    34    27    28    2
    35    84    83   ar
    36    31    33   ar
    37     4     3    2
    38    35    33   ar
    39    35    36    1
    40    39    40    2
    41     3     2    1
    42    80    79    1
    43    80    81   ar
    44    79    76    1
    45    83    81   ar
    46    76    77    1
    47    76    75    1
    48    72    71    2
    49     2     5    1
    50     2     1    1
    51    77    78    2
    52     5     6    1
    53    71    75   am
    54    71    70    1
    55    68    66   am
    56     1     7    1
    57     6     7    1
    58    46    47    1
    59    52    54   ar
    60    52    51   ar
    61    73    70    1
    62    73    74    1
    63    54    56   ar
    64    49    48    2
    65    70    69    1
    66    50    51    1
    67    50    47    1
    68    66    67    2
    69    66    65    1
    70    51    53   ar
    71    47    48    1
    72    48    57   am
    73    56    55   ar
    74    53    55   ar
    75    65    62    1
    76    57    58    1
    77    58    59    1
    78    61    62    1
    79    61    59   am
    80    62    63    1
    81    59    60    2
    82    63    64    2
