@<TRIPOS>MOLECULE
tmp/4nyvA00.pdb
 101 95 0 0 0
SMALL
GASTEIGER

@<TRIPOS>ATOM
      1  N         -3.3790   53.0060   69.1890 N.3    30  PRO30      -0.2102
      2  CA        -2.7190   51.7220   68.9220 C.3    30  PRO30       0.1504
      3  C         -1.4380   51.4840   69.6990 C.2    30  PRO30       0.2575
      4  O         -0.8780   50.3830   69.5920 O.2    30  PRO30      -0.2718
      5  CB        -2.4070   51.7860   67.4280 C.3    30  PRO30       0.0282
      6  CG        -3.3260   52.8680   66.8730 C.3    30  PRO30       0.0208
      7  CD        -3.5130   53.8330   67.9720 C.3    30  PRO30       0.0893
      8  N         -0.9860   52.5030   70.4440 N.am   31  PHE31      -0.1977
      9  CA         0.2900   52.5130   71.1150 C.3    31  PHE31       0.1639
     10  C          0.2010   52.4110   72.6270 C.2    31  PHE31       0.2290
     11  O          1.2310   52.2600   73.3020 O.2    31  PHE31      -0.2864
     12  CB         1.0920   53.7610   70.6980 C.3    31  PHE31       0.0560
     13  CG         1.3720   53.8250   69.2140 C.ar   31  PHE31      -0.0200
     14  CD1        2.4960   53.2330   68.6790 C.ar   31  PHE31      -0.0042
     15  CD2        0.4830   54.4520   68.3770 C.ar   31  PHE31      -0.0042
     16  CE1        2.7450   53.2640   67.3110 C.ar   31  PHE31      -0.0003
     17  CE2        0.7020   54.5050   67.0080 C.ar   31  PHE31      -0.0003
     18  CZ         1.8550   53.9020   66.4660 C.ar   31  PHE31      -0.0000
     19  N          0.9890   45.4650   71.6140 N.3    35  VAL35      -0.1245
     20  CA         0.3410   44.8290   70.4300 C.3    35  VAL35       0.1561
     21  C         -0.0340   43.3630   70.7550 C.2    35  VAL35       0.2260
     22  O          0.8040   42.5880   71.1920 O.2    35  VAL35      -0.2867
     23  CB         1.2680   44.9000   69.1910 C.3    35  VAL35       0.0252
     24  CG1        0.6130   44.2320   67.9710 C.3    35  VAL35       0.0019
     25  CG2        1.6120   46.3840   68.8620 C.3    35  VAL35       0.0019
     26  N         -5.8110   41.3980   67.1570 N.3    40  LEU40      -0.1245
     27  CA        -5.7780   42.3310   66.0280 C.3    40  LEU40       0.1561
     28  C         -5.7950   41.6500   64.6810 C.2    40  LEU40       0.2260
     29  O         -6.0900   42.2930   63.6810 O.2    40  LEU40      -0.2867
     30  CB        -4.5290   43.1950   66.1040 C.3    40  LEU40       0.0270
     31  CG        -4.5450   44.1250   67.2830 C.3    40  LEU40       0.0019
     32  CD1       -3.1650   44.7680   67.4520 C.3    40  LEU40       0.0001
     33  CD2       -5.6510   45.1850   67.0990 C.3    40  LEU40       0.0001
     34  N         -3.0610   39.9210   63.2410 N.3    42  ILE42      -0.1245
     35  CA        -1.8100   40.1170   62.5170 C.3    42  ILE42       0.1561
     36  C         -0.7840   39.1040   63.0020 C.2    42  ILE42       0.2260
     37  O          0.2350   39.4460   63.6240 O.2    42  ILE42      -0.2867
     38  CB        -1.3080   41.5800   62.6370 C.3    42  ILE42       0.0252
     39  CG1       -1.1640   42.0070   64.0920 C.3    42  ILE42       0.0019
     40  CG2       -2.2880   42.5190   61.9100 C.3    42  ILE42       0.0019
     41  CD1       -0.7690   43.4940   64.2890 C.3    42  ILE42       0.0001
     42  N          3.0230   39.4130   63.2170 N.3    45  TYR45      -0.1241
     43  CA         3.5910   40.5900   63.9390 C.3    45  TYR45       0.1605
     44  C          4.9010   40.2660   64.6660 C.2    45  TYR45       0.2264
     45  O          5.9130   40.9170   64.4110 O.2    45  TYR45      -0.2867
     46  CB         2.6000   41.2340   64.9010 C.3    45  TYR45       0.0534
     47  CG         3.1720   42.5050   65.5310 C.ar   45  TYR45      -0.0201
     48  CD1        3.1320   43.7080   64.8590 C.ar   45  TYR45      -0.0009
     49  CD2        3.8340   42.4690   66.7700 C.ar   45  TYR45      -0.0009
     50  CE1        3.6880   44.8560   65.3910 C.ar   45  TYR45       0.0417
     51  CE2        4.3890   43.6240   67.3250 C.ar   45  TYR45       0.0417
     52  CZ         4.3100   44.8130   66.6410 C.ar   45  TYR45       0.1957
     53  OH         4.8740   45.9520   67.2000 O.3    45  TYR45      -0.2866
     54  N          7.4170   47.2610   71.9120 N.3    53  MET53      -0.1245
     55  CA         7.4500   48.3160   72.9280 C.3    53  MET53       0.1570
     56  C          6.2420   49.1430   72.7660 C.2    53  MET53       0.2261
     57  O          5.7470   49.3130   71.6560 O.2    53  MET53      -0.2867
     58  CB         8.7020   49.2010   72.8000 C.3    53  MET53       0.0387
     59  CG         8.9060   50.1920   73.8850 C.3    53  MET53       0.0595
     60  SD         8.9890   49.5420   75.5840 S.3    53  MET53      -0.1393
     61  CE        10.2110   48.1840   75.4910 C.3    53  MET53       0.0692
     62  N          9.5450   51.9680   69.9330 N.3    80  MET80      -0.1245
     63  CA         8.1500   51.8270   69.6410 C.3    80  MET80       0.1570
     64  C          7.8400   52.3970   68.2650 C.2    80  MET80       0.2261
     65  O          7.0710   51.7920   67.4740 O.2    80  MET80      -0.2867
     66  CB         7.3170   52.5550   70.7600 C.3    80  MET80       0.0387
     67  CG         5.8700   52.6710   70.5300 C.3    80  MET80       0.0595
     68  SD         5.1140   53.6030   71.8890 S.3    80  MET80      -0.1393
     69  CE         5.5310   55.2700   71.3390 C.3    80  MET80       0.0692
     70  N          6.6520   50.3650   64.6040 N.3    84  ALA84      -0.1245
     71  CA         5.4410   50.6950   63.8400 C.3    84  ALA84       0.1562
     72  C          5.7370   51.0140   62.3630 C.2    84  ALA84       0.2260
     73  O          5.0120   50.5640   61.4750 O.2    84  ALA84      -0.2867
     74  CB         4.7100   51.8990   64.5420 C.3    84  ALA84       0.0290
     75  N          6.6870   47.4930   60.7410 N.3    87  TYR87      -0.1227
     76  CA         5.6010   46.5550   60.5180 C.3    87  TYR87       0.1736
     77  C          4.4940   47.0850   59.5760 C.2    87  TYR87       0.2595
     78  O          3.9990   46.3450   58.7180 O.2    87  TYR87      -0.2718
     79  CB         4.9910   46.0690   61.8490 C.3    87  TYR87       0.0548
     80  CG         3.9230   45.0980   61.5760 C.ar   87  TYR87      -0.0200
     81  CD1        4.2310   43.7890   61.2470 C.ar   87  TYR87      -0.0009
     82  CD2        2.5860   45.4840   61.5630 C.ar   87  TYR87      -0.0009
     83  CE1        3.2350   42.8700   60.9620 C.ar   87  TYR87       0.0417
     84  CE2        1.5800   44.5800   61.2330 C.ar   87  TYR87       0.0417
     85  CZ         1.9110   43.2740   60.9520 C.ar   87  TYR87       0.1957
     86  OH         0.9300   42.3860   60.6370 O.3    87  TYR87      -0.2866
     87  N          4.1190   48.3500   59.7080 N.am   88  ASN88      -0.1974
     88  CA         2.9300   48.8410   59.0470 C.3    88  ASN88       0.1688
     89  C          3.2610   49.4540   57.6930 C.2    88  ASN88       0.2292
     90  O          4.3540   49.9910   57.4730 O.2    88  ASN88      -0.2864
     91  CB         2.1700   49.8270   59.9400 C.3    88  ASN88       0.1181
     92  CG         1.7160   49.2080   61.2510 C.2    88  ASN88       0.2629
     93  OD1        0.6780   48.5430   61.3180 O.2    88  ASN88      -0.2716
     94  ND2        2.4810   49.4490   62.3200 N.am   88  ASN88      -0.0877
     95  N         -1.8730   53.2790   61.2710 N.3    94  VAL94      -0.1245
     96  CA        -0.9420   53.1420   62.3860 C.3    94  VAL94       0.1561
     97  C          0.4110   53.7600   61.9920 C.2    94  VAL94       0.2260
     98  O          1.0540   54.4270   62.7790 O.2    94  VAL94      -0.2867
     99  CB        -0.7880   51.6630   62.8670 C.3    94  VAL94       0.0252
    100  CG1        0.3270   51.5420   63.9260 C.3    94  VAL94       0.0019
    101  CG2       -2.0960   51.1640   63.4700 C.3    94  VAL94       0.0019
@<TRIPOS>BOND
     1    90    89    2
     2    89    88    1
     3    78    77    2
     4    88    87    1
     5    88    91    1
     6    77    87   am
     7    77    76    1
     8    91    92    1
     9    76    75    1
    10    76    79    1
    11    86    85    1
    12    85    83   ar
    13    85    84   ar
    14    83    81   ar
    15    84    82   ar
    16    81    80   ar
    17    92    93    2
    18    92    94   am
    19    95    96    1
    20    73    72    2
    21    82    80   ar
    22    80    79    1
    23    40    38    1
    24    97    96    1
    25    97    98    2
    26    72    71    1
    27    96    99    1
    28    35    38    1
    29    35    36    1
    30    35    34    1
    31    38    39    1
    32    99   101    1
    33    99   100    1
    34    36    37    2
    35    42    43    1
    36    29    28    2
    37    71    74    1
    38    71    70    1
    39    43    44    1
    40    43    46    1
    41    39    41    1
    42    45    44    2
    43    28    27    1
    44    48    50   ar
    45    48    47   ar
    46    46    47    1
    47    50    52   ar
    48    47    49   ar
    49    27    30    1
    50    27    26    1
    51    30    31    1
    52    18    17   ar
    53    18    16   ar
    54    52    53    1
    55    52    51   ar
    56    49    51   ar
    57     6     5    1
    58     6     7    1
    59    17    15   ar
    60    33    31    1
    61    31    32    1
    62    16    14   ar
    63     5     2    1
    64    65    64    2
    65    24    23    1
    66     7     1    1
    67    64    63    1
    68    15    13   ar
    69    14    13   ar
    70    25    23    1
    71     2     1    1
    72     2     3    1
    73    23    20    1
    74    13    12    1
    75     4     3    2
    76    63    62    1
    77    63    66    1
    78     3     8   am
    79    20    21    1
    80    20    19    1
    81     8     9    1
    82    67    66    1
    83    67    68    1
    84    12     9    1
    85    21    22    2
    86     9    10    1
    87    69    68    1
    88    57    56    2
    89    54    55    1
    90    10    11    2
    91    56    55    1
    92    58    55    1
    93    58    59    1
    94    59    60    1
    95    61    60    1
