@<TRIPOS>MOLECULE
tmp/4nywA00.pdb
 131 126 0 0 0
SMALL
GASTEIGER

@<TRIPOS>ATOM
      1  N         16.4960   36.1070    5.7920 N.3    25  PRO25      -0.2116
      2  CA        16.5400   34.8470    5.0190 C.3    25  PRO25       0.1372
      3  C         17.9220   34.3160    4.6360 C.2    25  PRO25       0.2244
      4  O         18.0150   33.2720    4.0100 O.2    25  PRO25      -0.2868
      5  CB        15.7970   35.2240    3.7270 C.3    25  PRO25       0.0268
      6  CG        16.0850   36.6460    3.5470 C.3    25  PRO25       0.0207
      7  CD        16.0910   37.2310    4.9340 C.3    25  PRO25       0.0892
      8  N         19.3010   30.6540    4.9480 N.3    28  LEU28      -0.1231
      9  CA        18.4350   29.5300    4.5920 C.3    28  LEU28       0.1678
     10  C         19.0640   28.5630    3.5910 C.2    28  LEU28       0.2434
     11  O         18.9560   27.3500    3.7590 O.2    28  LEU28      -0.2733
     12  CB        17.0310   30.0140    4.1680 C.3    28  LEU28       0.0284
     13  CG        16.2610   30.7140    5.2820 C.3    28  LEU28       0.0019
     14  CD1       14.9530   31.3180    4.6870 C.3    28  LEU28       0.0001
     15  CD2       15.9370   29.8090    6.4950 C.3    28  LEU28       0.0001
     16  N         19.7430   29.0490    2.5430 N.am   29  PRO29      -0.2718
     17  CA        20.3460   28.0720    1.6100 C.3    29  PRO29       0.1535
     18  C         21.5300   27.2640    2.1660 C.2    29  PRO29       0.2598
     19  O         22.0520   26.3950    1.4750 O.2    29  PRO29      -0.2715
     20  CB        20.8570   28.9730    0.4620 C.3    29  PRO29       0.0310
     21  CG        20.0430   30.2340    0.5790 C.3    29  PRO29       0.0237
     22  CD        19.8240   30.4300    2.0320 C.3    29  PRO29       0.0939
     23  N         21.9960   27.6420    3.3680 N.am   30  PHE30      -0.1974
     24  CA        23.2450   27.1660    3.9590 C.3    30  PHE30       0.1639
     25  C         23.0720   26.3160    5.1740 C.2    30  PHE30       0.2290
     26  O         24.0620   25.8090    5.7090 O.2    30  PHE30      -0.2864
     27  CB        24.1440   28.3680    4.3330 C.3    30  PHE30       0.0560
     28  CG        24.4280   29.2700    3.1760 C.ar   30  PHE30      -0.0200
     29  CD1       25.3820   28.8790    2.2400 C.ar   30  PHE30      -0.0042
     30  CD2       23.7260   30.4300    2.9820 C.ar   30  PHE30      -0.0042
     31  CE1       25.6680   29.6790    1.1500 C.ar   30  PHE30      -0.0003
     32  CE2       24.0030   31.2250    1.8740 C.ar   30  PHE30      -0.0003
     33  CZ        24.9610   30.8450    0.9660 C.ar   30  PHE30      -0.0000
     34  N         21.7000   23.2940    5.4250 N.3    32  GLN32      -0.1245
     35  CA        21.7540   21.8820    5.1780 C.3    32  GLN32       0.1566
     36  C         22.6710   21.6140    4.0130 C.2    32  GLN32       0.2260
     37  O         22.9030   22.5150    3.1900 O.2    32  GLN32      -0.2867
     38  CB        20.3690   21.3410    4.8330 C.3    32  GLN32       0.0367
     39  CG        19.7270   22.0250    3.6350 C.3    32  GLN32       0.0905
     40  CD        19.2260   23.4540    3.9280 C.2    32  GLN32       0.2608
     41  OE1       18.5210   23.6750    4.8960 O.2    32  GLN32      -0.2717
     42  NE2       19.6090   24.4170    3.0770 N.am   32  GLN32      -0.0878
     43  N         23.9460   20.7720    0.3830 N.3    34  VAL34      -0.1245
     44  CA        23.3470   20.8790   -0.9490 C.3    34  VAL34       0.1561
     45  C         22.9890   19.4860   -1.4760 C.2    34  VAL34       0.2260
     46  O         23.8320   18.6020   -1.4860 O.2    34  VAL34      -0.2867
     47  CB        24.2910   21.5890   -1.9330 C.3    34  VAL34       0.0252
     48  CG1       23.6470   21.7670   -3.2990 C.3    34  VAL34       0.0019
     49  CG2       24.7270   22.9800   -1.3820 C.3    34  VAL34       0.0019
     50  N         17.3070   19.8240   -5.6020 N.3    39  LEU39      -0.1245
     51  CA        17.2720   21.2280   -5.8740 C.3    39  LEU39       0.1561
     52  C         17.2150   21.5750   -7.3780 C.2    39  LEU39       0.2260
     53  O         17.0490   22.7430   -7.7200 O.2    39  LEU39      -0.2867
     54  CB        18.4880   21.9140   -5.2490 C.3    39  LEU39       0.0270
     55  CG        18.6240   21.7660   -3.7310 C.3    39  LEU39       0.0019
     56  CD1       19.8040   22.6420   -3.2930 C.3    39  LEU39       0.0001
     57  CD2       17.3630   22.1190   -2.9920 C.3    39  LEU39       0.0001
     58  N         19.7280   21.2710   -9.5080 N.3    41  ILE41      -0.1245
     59  CA        21.0280   21.7990   -9.9550 C.3    41  ILE41       0.1561
     60  C         22.0550   20.6720  -10.1140 C.2    41  ILE41       0.2260
     61  O         23.0880   20.6310   -9.4380 O.2    41  ILE41      -0.2867
     62  CB        21.5550   22.9440   -9.0360 C.3    41  ILE41       0.0252
     63  CG1       21.5910   22.5200   -7.5610 C.3    41  ILE41       0.0019
     64  CG2       20.6950   24.2110   -9.2220 C.3    41  ILE41       0.0019
     65  CD1       22.2550   23.5420   -6.6380 C.3    41  ILE41       0.0001
     66  N         25.9830   20.7460   -9.9120 N.3    44  TYR44      -0.1241
     67  CA        26.6360   21.3170   -8.7200 C.3    44  TYR44       0.1605
     68  C         27.9760   20.6600   -8.3670 C.2    44  TYR44       0.2264
     69  O         28.9770   21.3670   -8.1980 O.2    44  TYR44      -0.2867
     70  CB        25.6800   21.2590   -7.5240 C.3    44  TYR44       0.0534
     71  CG        26.2250   21.9890   -6.3120 C.ar   44  TYR44      -0.0201
     72  CD1       26.8240   21.2810   -5.2900 C.ar   44  TYR44      -0.0009
     73  CD2       26.1610   23.3960   -6.1970 C.ar   44  TYR44      -0.0009
     74  CE1       27.3720   21.9370   -4.2000 C.ar   44  TYR44       0.0417
     75  CE2       26.7100   24.0410   -5.0880 C.ar   44  TYR44       0.0417
     76  CZ        27.2880   23.3120   -4.0990 C.ar   44  TYR44       0.1957
     77  OH        27.8440   23.9680   -2.9900 O.3    44  TYR44      -0.2866
     78  N         29.7080   29.0880   -2.6710 N.3    83  ALA83      -0.1245
     79  CA        28.5520   29.8550   -3.1230 C.3    83  ALA83       0.1562
     80  C         28.8770   30.9400   -4.1090 C.2    83  ALA83       0.2260
     81  O         28.1400   31.1460   -5.0870 O.2    83  ALA83      -0.2867
     82  CB        27.7610   30.4190   -1.9050 C.3    83  ALA83       0.0290
     83  N         29.7210   29.0290   -7.4690 N.3    86  TYR86      -0.1227
     84  CA        28.6830   28.2850   -8.1800 C.3    86  TYR86       0.1736
     85  C         27.6160   29.2380   -8.7370 C.2    86  TYR86       0.2595
     86  O         27.0990   29.0410   -9.8460 O.2    86  TYR86      -0.2718
     87  CB        28.0300   27.1960   -7.3150 C.3    86  TYR86       0.0548
     88  CG        26.9410   26.4930   -8.0830 C.ar   86  TYR86      -0.0200
     89  CD1       27.2720   25.5830   -9.0770 C.ar   86  TYR86      -0.0009
     90  CD2       25.6240   26.8250   -7.8940 C.ar   86  TYR86      -0.0009
     91  CE1       26.2970   25.0140   -9.8680 C.ar   86  TYR86       0.0417
     92  CE2       24.6350   26.2510   -8.6730 C.ar   86  TYR86       0.0417
     93  CZ        24.9890   25.3560   -9.6500 C.ar   86  TYR86       0.1957
     94  OH        23.9980   24.8190  -10.4560 O.3    86  TYR86      -0.2866
     95  N         27.2110   30.2440   -7.9380 N.am   87  ASN87      -0.1974
     96  CA        26.0060   31.0340   -8.2070 C.3    87  ASN87       0.1688
     97  C         26.3110   32.3150   -8.9470 C.2    87  ASN87       0.2292
     98  O         27.3930   32.8430   -8.8180 O.2    87  ASN87      -0.2864
     99  CB        25.2750   31.3360   -6.9040 C.3    87  ASN87       0.1181
    100  CG        24.8780   30.0640   -6.1530 C.2    87  ASN87       0.2629
    101  OD1       23.8400   29.4470   -6.4590 O.2    87  ASN87      -0.2716
    102  ND2       25.7120   29.6430   -5.2010 N.am   87  ASN87      -0.0877
    103  N         20.0390   35.1760   -5.4130 N.3    92  ARG92      -0.1231
    104  CA        19.8280   35.2680   -3.9690 C.3    92  ARG92       0.1694
    105  C         20.9400   34.5630   -3.2190 C.2    92  ARG92       0.2591
    106  O         21.4380   35.1010   -2.2460 O.2    92  ARG92      -0.2718
    107  CB        18.5110   34.6290   -3.5560 C.3    92  ARG92       0.0321
    108  CG        17.2610   35.3570   -4.0920 C.3    92  ARG92       0.0489
    109  CD        16.0290   34.6200   -3.7720 C.3    92  ARG92       0.2205
    110  NE        15.9780   33.4030   -4.5720 N.pl3  92  ARG92      -0.0865
    111  CZ        15.1530   32.3890   -4.3750 C.cat  92  ARG92       0.5346
    112  NH1       14.2620   32.4330   -3.4000 N.pl3  92  ARG92       0.1354
    113  NH2       15.2140   31.3460   -5.2000 N.pl3  92  ARG92       0.1354
    114  N         21.3290   33.3480   -3.6160 N.am   93  VAL93      -0.1980
    115  CA        22.3470   32.6370   -2.8300 C.3    93  VAL93       0.1595
    116  C         23.6370   33.4550   -2.8030 C.2    93  VAL93       0.2287
    117  O         24.2880   33.5270   -1.7500 O.2    93  VAL93      -0.2864
    118  CB        22.5940   31.2180   -3.3380 C.3    93  VAL93       0.0276
    119  CG1       23.7480   30.5570   -2.5940 C.3    93  VAL93       0.0022
    120  CG2       21.3050   30.4020   -3.1370 C.3    93  VAL93       0.0022
    121  N         23.1460   36.5380   -0.5650 N.3    96  PHE96      -0.1241
    122  CA        22.9800   36.0420    0.8100 C.3    96  PHE96       0.1605
    123  C         24.3470   35.6230    1.4030 C.2    96  PHE96       0.2264
    124  O         24.6660   35.9450    2.5580 O.2    96  PHE96      -0.2867
    125  CB        21.9910   34.8650    0.8820 C.3    96  PHE96       0.0534
    126  CG        20.4910   35.2350    0.7170 C.ar   96  PHE96      -0.0203
    127  CD1       20.0400   36.5170    0.4710 C.ar   96  PHE96      -0.0042
    128  CD2       19.5410   34.2260    0.7980 C.ar   96  PHE96      -0.0042
    129  CE1       18.6610   36.7720    0.3320 C.ar   96  PHE96      -0.0003
    130  CE2       18.1860   34.5130    0.6630 C.ar   96  PHE96      -0.0003
    131  CZ        17.7550   35.7700    0.4310 C.ar   96  PHE96      -0.0000
@<TRIPOS>BOND
     1    94    93    1
     2    60    59    1
     3    60    61    2
     4    59    58    1
     5    59    62    1
     6    66    67    1
     7    91    93   ar
     8    91    89   ar
     9    86    85    2
    10    93    92   ar
    11    64    62    1
    12    89    88   ar
    13    62    63    1
    14    97    98    2
    15    97    96    1
    16    85    84    1
    17    85    95   am
    18    67    68    1
    19    67    70    1
    20    92    90   ar
    21    68    69    2
    22    96    95    1
    23    96    99    1
    24    84    83    1
    25    84    87    1
    26    88    90   ar
    27    88    87    1
    28    53    52    2
    29    63    65    1
    30    70    71    1
    31    52    51    1
    32    99   100    1
    33   101   100    2
    34    71    73   ar
    35    71    72   ar
    36    73    75   ar
    37   100   102   am
    38    51    50    1
    39    51    54    1
    40   103   104    1
    41    72    74   ar
    42    54    55    1
    43   113   111    1
    44    75    76   ar
    45    81    80    2
    46   110   111    2
    47   110   109    1
    48   111   112    1
    49    74    76   ar
    50    80    79    1
    51    76    77    1
    52   108   109    1
    53   108   107    1
    54   104   107    1
    55   104   105    1
    56    55    56    1
    57    55    57    1
    58   114   105   am
    59   114   115    1
    60   118   120    1
    61   118   115    1
    62   118   119    1
    63    48    47    1
    64   105   106    2
    65    79    78    1
    66    79    82    1
    67   115   116    1
    68   116   117    2
    69    47    49    1
    70    47    44    1
    71    46    45    2
    72    45    44    1
    73    44    43    1
    74   121   122    1
    75   129   131   ar
    76   129   127   ar
    77   131   130   ar
    78    20    21    1
    79    20    17    1
    80   127   126   ar
    81    21    22    1
    82   130   128   ar
    83   126   128   ar
    84   126   125    1
    85   122   125    1
    86   122   123    1
    87    33    31   ar
    88    33    32   ar
    89    31    29   ar
    90   123   124    2
    91    19    18    2
    92    17    18    1
    93    17    16    1
    94    32    30   ar
    95    22    16    1
    96    18    23   am
    97    29    28   ar
    98    16    10   am
    99    30    28   ar
   100    42    40   am
   101    28    27    1
   102    37    36    2
   103    23    24    1
   104     6     5    1
   105     6     7    1
   106    10    11    2
   107    10     9    1
   108    39    40    1
   109    39    38    1
   110     5     2    1
   111    40    41    2
   112    24    27    1
   113    24    25    1
   114     4     3    2
   115    36    35    1
   116    12     9    1
   117    12    13    1
   118     9     8    1
   119     3     2    1
   120    14    13    1
   121    38    35    1
   122     7     1    1
   123     2     1    1
   124    25    26    2
   125    35    34    1
   126    13    15    1
