@<TRIPOS>MOLECULE
tmp/4nyzA00.pdb
 100 95 0 0 0
SMALL
GASTEIGER

@<TRIPOS>ATOM
      1  N        -16.1130  -30.3240  -17.0740 N.3   236  TYR236     -0.1241
      2  CA       -16.0970  -28.8590  -17.0290 C.3   236  TYR236      0.1605
      3  C        -16.5470  -28.2090  -18.3420 C.2   236  TYR236      0.2264
      4  O        -16.7460  -26.9940  -18.3870 O.2   236  TYR236     -0.2867
      5  CB       -14.6880  -28.3490  -16.7100 C.3   236  TYR236      0.0534
      6  CG       -14.3150  -28.3550  -15.2470 C.ar  236  TYR236     -0.0201
      7  CD1      -14.5570  -27.2460  -14.4420 C.ar  236  TYR236     -0.0009
      8  CD2      -13.6950  -29.4590  -14.6740 C.ar  236  TYR236     -0.0009
      9  CE1      -14.2020  -27.2430  -13.1030 C.ar  236  TYR236      0.0417
     10  CE2      -13.3380  -29.4660  -13.3370 C.ar  236  TYR236      0.0417
     11  CZ       -13.5900  -28.3570  -12.5570 C.ar  236  TYR236      0.1957
     12  OH       -13.2290  -28.3660  -11.2320 O.3   236  TYR236     -0.2866
     13  N        -18.1850  -26.3670  -21.1480 N.3   238  ASN238     -0.1240
     14  CA       -19.3160  -25.4560  -21.1070 C.3   238  ASN238      0.1653
     15  C        -19.1760  -24.4490  -22.2330 C.2   238  ASN238      0.2266
     16  O        -18.2790  -23.6070  -22.2150 O.2   238  ASN238     -0.2867
     17  CB       -19.3740  -24.7460  -19.7460 C.3   238  ASN238      0.1155
     18  CG       -20.5810  -23.8270  -19.5920 C.2   238  ASN238      0.2627
     19  OD1      -20.5230  -22.8470  -18.8490 O.2   238  ASN238     -0.2716
     20  ND2      -21.6800  -24.1450  -20.2610 N.am  238  ASN238     -0.0877
     21  N        -19.6770  -20.3820  -21.2730 N.3   241  SER241     -0.1202
     22  CA       -18.8160  -19.6140  -20.3700 C.3   241  SER241      0.2020
     23  C        -17.3410  -19.9700  -20.5070 C.2   241  SER241      0.2619
     24  O        -16.9900  -20.9920  -21.0960 O.2   241  SER241     -0.2717
     25  CB       -19.2640  -19.8110  -18.9210 C.3   241  SER241      0.2103
     26  OG       -18.6820  -18.8330  -18.0750 O.3   241  SER241     -0.2182
     27  N        -16.4890  -19.1050  -19.9600 N.am  242  THR242     -0.1938
     28  CA       -15.0420  -19.2840  -20.0190 C.3   242  THR242      0.2028
     29  C        -14.4050  -19.0330  -18.6570 C.2   242  THR242      0.2642
     30  O        -15.0860  -18.6350  -17.7120 O.2   242  THR242     -0.2714
     31  CB       -14.3960  -18.3350  -21.0480 C.3   242  THR242      0.1808
     32  OG1      -14.5640  -16.9770  -20.6220 O.3   242  THR242     -0.2208
     33  CG2      -15.0190  -18.5210  -22.4280 C.3   242  THR242      0.0379
     34  N        -13.0950  -19.2480  -18.5610 N.am  243  HIS243     -0.1973
     35  CA       -12.3830  -19.0550  -17.3010 C.3   243  HIS243      0.1656
     36  C        -12.4030  -17.6010  -16.8590 C.2   243  HIS243      0.2291
     37  O        -12.2510  -16.6860  -17.6730 O.2   243  HIS243     -0.2864
     38  CB       -10.9290  -19.5260  -17.4040 C.3   243  HIS243      0.0771
     39  CG       -10.7530  -20.9850  -17.1380 C.ar  243  HIS243      0.0820
     40  ND1      -10.3260  -21.8690  -18.1040 N.ar  243  HIS243     -0.2267
     41  CD2      -10.9540  -21.7190  -16.0180 C.ar  243  HIS243      0.1154
     42  CE1      -10.2680  -23.0830  -17.5880 C.ar  243  HIS243      0.1986
     43  NE2      -10.6480  -23.0200  -16.3250 N.ar  243  HIS243     -0.2212
     44  N        -11.0320  -16.1080  -20.4530 N.3   290  GLY290     -0.1210
     45  CA       -10.9480  -17.1700  -21.4400 C.3   290  GLY290      0.1956
     46  C         -9.5190  -17.4980  -21.8160 C.2   290  GLY290      0.2611
     47  O         -8.6240  -16.6600  -21.7210 O.2   290  GLY290     -0.2717
     48  N         -9.3270  -18.7330  -22.2610 N.am  291  LEU291     -0.1979
     49  CA        -8.0220  -19.2790  -22.5870 C.3   291  LEU291      0.1596
     50  C         -7.9600  -19.4510  -24.1090 C.2   291  LEU291      0.2287
     51  O         -8.8450  -20.0800  -24.6870 O.2   291  LEU291     -0.2864
     52  CB        -7.8810  -20.6280  -21.8750 C.3   291  LEU291      0.0297
     53  CG        -6.5230  -21.1830  -21.4470 C.3   291  LEU291      0.0022
     54  CD1       -5.7430  -20.2100  -20.5880 C.3   291  LEU291      0.0001
     55  CD2       -6.7460  -22.4780  -20.6790 C.3   291  LEU291      0.0001
     56  N         -5.4320  -25.1130  -18.4620 N.3   302  ASN302     -0.1240
     57  CA        -6.7980  -25.5540  -18.2100 C.3   302  ASN302      0.1653
     58  C         -6.8420  -26.6820  -17.1770 C.2   302  ASN302      0.2266
     59  O         -7.6640  -26.6560  -16.2550 O.2   302  ASN302     -0.2867
     60  CB        -7.4530  -26.0090  -19.5220 C.3   302  ASN302      0.1155
     61  CG        -8.9380  -26.2940  -19.3730 C.2   302  ASN302      0.2627
     62  OD1       -9.5950  -25.7730  -18.4770 O.2   302  ASN302     -0.2716
     63  ND2       -9.4740  -27.1270  -20.2570 N.am  302  ASN302     -0.0877
     64  N         -8.6040  -26.3280  -13.4740 N.3   306  ASN306     -0.1240
     65  CA        -9.7250  -27.2040  -13.1350 C.3   306  ASN306      0.1653
     66  C         -9.4450  -28.1020  -11.9250 C.2   306  ASN306      0.2266
     67  O        -10.3660  -28.4640  -11.1930 O.2   306  ASN306     -0.2867
     68  CB       -10.1280  -28.0410  -14.3540 C.3   306  ASN306      0.1155
     69  CG       -10.7530  -27.2040  -15.4590 C.2   306  ASN306      0.2627
     70  OD1      -11.1470  -26.0570  -15.2460 O.2   306  ASN306     -0.2716
     71  ND2      -10.8510  -27.7780  -16.6480 N.am  306  ASN306     -0.0877
     72  N        -10.8170  -30.4980  -19.6050 N.3   333  ASP333     -0.1239
     73  CA       -12.1660  -30.4210  -19.0310 C.3   333  ASP333      0.1674
     74  C        -12.6460  -31.7100  -18.3470 C.2   333  ASP333      0.2266
     75  O        -13.7250  -31.7190  -17.7490 O.2   333  ASP333     -0.2867
     76  CB       -13.1830  -30.0350  -20.1180 C.3   333  ASP333      0.1410
     77  CG       -13.0700  -28.5830  -20.5460 C.2   333  ASP333      0.3668
     78  OD1      -12.4430  -27.7760  -19.8290 O.co2 333  ASP333     -0.2456
     79  OD2      -13.6260  -28.2440  -21.6110 O.co2 333  ASP333     -0.2456
     80  N        -18.7580  -21.0730  -12.4980 N.3   357  TYR357     -0.1227
     81  CA       -18.2460  -22.3390  -13.0280 C.3   357  TYR357      0.1736
     82  C        -19.3040  -23.4340  -13.0340 C.2   357  TYR357      0.2595
     83  O        -19.9590  -23.6790  -12.0240 O.2   357  TYR357     -0.2718
     84  CB       -17.0200  -22.7970  -12.2390 C.3   357  TYR357      0.0548
     85  CG       -15.7640  -22.0720  -12.6450 C.ar  357  TYR357     -0.0200
     86  CD1      -15.1350  -22.3610  -13.8530 C.ar  357  TYR357     -0.0009
     87  CD2      -15.2120  -21.0870  -11.8360 C.ar  357  TYR357     -0.0009
     88  CE1      -13.9880  -21.6950  -14.2380 C.ar  357  TYR357      0.0417
     89  CE2      -14.0620  -20.4170  -12.2110 C.ar  357  TYR357      0.0417
     90  CZ       -13.4560  -20.7240  -13.4130 C.ar  357  TYR357      0.1957
     91  OH       -12.3160  -20.0580  -13.7840 O.3   357  TYR357     -0.2866
     92  N        -19.4530  -24.0870  -14.1850 N.am  358  LYS358     -0.1980
     93  CA       -20.4010  -25.1810  -14.3570 C.3   358  LYS358      0.1596
     94  C        -19.6740  -26.5230  -14.3540 C.2   358  LYS358      0.2287
     95  O        -18.6820  -26.6940  -15.0610 O.2   358  LYS358     -0.2864
     96  CB       -21.1600  -25.0150  -15.6780 C.3   358  LYS358      0.0298
     97  CG       -22.1580  -26.1260  -15.9760 C.3   358  LYS358      0.0038
     98  CD       -22.8990  -25.8760  -17.2800 C.3   358  LYS358      0.0206
     99  CE       -23.8440  -27.0220  -17.6060 C.3   358  LYS358      0.1093
    100  NZ       -24.4290  -26.9000  -18.9710 N.3   358  LYS358     -0.1314
@<TRIPOS>BOND
     1    51    50    2
     2    50    49    1
     3    49    48    1
     4    49    52    1
     5    33    31    1
     6    48    46   am
     7    15    16    2
     8    15    14    1
     9    52    53    1
    10    46    47    2
    11    46    45    1
    12    79    77   ar
    13    53    55    1
    14    53    54    1
    15    45    44    1
    16    21    22    1
    17    13    14    1
    18    14    17    1
    19    24    23    2
    20    31    32    1
    21    31    28    1
    22    77    76    1
    23    77    78   ar
    24    23    22    1
    25    23    27   am
    26    22    25    1
    27    20    18   am
    28    63    61   am
    29    76    73    1
    30    28    27    1
    31    28    29    1
    32    17    18    1
    33    72    73    1
    34    18    19    2
    35    60    61    1
    36    60    57    1
    37    61    62    2
    38    73    74    1
    39   100    99    1
    40    25    26    1
    41    29    34   am
    42    29    30    2
    43    34    35    1
    44    56    57    1
    45     4     3    2
    46    74    75    2
    47     3     2    1
    48    57    58    1
    49    40    42   ar
    50    40    39   ar
    51    37    36    2
    52    99    98    1
    53    42    43   ar
    54    38    35    1
    55    38    39    1
    56    35    36    1
    57    98    97    1
    58    58    59    2
    59    39    41   ar
    60     1     2    1
    61     2     5    1
    62     5     6    1
    63    71    69   am
    64    43    41   ar
    65    97    96    1
    66    96    93    1
    67    69    70    2
    68    69    68    1
    69     6     8   ar
    70     6     7   ar
    71    95    94    2
    72     8    10   ar
    73     7     9   ar
    74    93    94    1
    75    93    92    1
    76    68    65    1
    77    88    86   ar
    78    88    90   ar
    79    92    82   am
    80    86    85   ar
    81    91    90    1
    82    64    65    1
    83    90    89   ar
    84    10    11   ar
    85    65    66    1
    86     9    11   ar
    87    82    81    1
    88    82    83    2
    89    81    80    1
    90    81    84    1
    91    85    84    1
    92    85    87   ar
    93    11    12    1
    94    89    87   ar
    95    66    67    2
