@<TRIPOS>MOLECULE
tmp/4nz1A00.pdb
 253 249 0 0 0
SMALL
GASTEIGER

@<TRIPOS>ATOM
      1  N        -15.6240  -17.7100  -26.3840 N.3    11  SER11      -0.1202
      2  CA       -16.0460  -19.1010  -26.5710 C.3    11  SER11       0.2020
      3  C        -15.4110  -19.7510  -27.8130 C.2    11  SER11       0.2618
      4  O        -15.0790  -19.0750  -28.8130 O.2    11  SER11      -0.2717
      5  CB       -17.5940  -19.2150  -26.6570 C.3    11  SER11       0.2103
      6  OG       -18.1940  -18.8150  -25.4360 O.3    11  SER11      -0.2182
      7  N        -15.2940  -21.0740  -27.7160 N.am   12  ASP12      -0.1973
      8  CA       -14.9740  -21.9780  -28.8140 C.3    12  ASP12       0.1709
      9  C        -13.4920  -22.1560  -29.0750 C.2    12  ASP12       0.2293
     10  O        -13.1220  -22.8970  -29.9900 O.2    12  ASP12      -0.2864
     11  CB       -15.7120  -21.6340  -30.1060 C.3    12  ASP12       0.1436
     12  CG       -17.2340  -21.7440  -29.9600 C.2    12  ASP12       0.3671
     13  OD1      -17.7610  -21.5870  -28.8370 O.co2  12  ASP12      -0.2456
     14  OD2      -17.9090  -21.9850  -30.9760 O.co2  12  ASP12      -0.2456
     15  N        -13.3830  -25.6880  -25.9310 N.3    37  ASN37      -0.1240
     16  CA       -13.7300  -26.9800  -26.5090 C.3    37  ASN37       0.1653
     17  C        -12.4370  -27.7060  -26.8800 C.2    37  ASN37       0.2266
     18  O        -11.7610  -27.3280  -27.8450 O.2    37  ASN37      -0.2867
     19  CB       -14.5180  -26.7830  -27.8150 C.3    37  ASN37       0.1155
     20  CG       -15.8220  -25.9910  -27.6360 C.2    37  ASN37       0.2627
     21  OD1      -16.0480  -24.9940  -28.3320 O.2    37  ASN37      -0.2716
     22  ND2      -16.7140  -26.4850  -26.7790 N.am   37  ASN37      -0.0877
     23  N        -11.6460  -30.3740  -28.4020 N.3    39  TRP39      -0.1227
     24  CA       -11.4710  -31.1390  -29.6420 C.3    39  TRP39       0.1737
     25  C        -10.4450  -30.4340  -30.5350 C.2    39  TRP39       0.2595
     26  O         -9.7340  -31.0920  -31.3030 O.2    39  TRP39      -0.2718
     27  CB       -12.8160  -31.4440  -30.3470 C.3    39  TRP39       0.0564
     28  CG       -13.5540  -30.2340  -30.9020 C.ar   39  TRP39       0.0003
     29  CD1      -13.5260  -28.9370  -30.4210 C.ar   39  TRP39       0.0946
     30  CD2      -14.4330  -30.2190  -32.0300 C.ar   39  TRP39       0.0152
     31  NE1      -14.3400  -28.1220  -31.1840 N.ar   39  TRP39      -0.2442
     32  CE2      -14.9090  -28.8830  -32.1780 C.ar   39  TRP39       0.0810
     33  CE3      -14.8650  -31.1990  -32.9360 C.ar   39  TRP39       0.0012
     34  CZ2      -15.7710  -28.5080  -33.2050 C.ar   39  TRP39       0.0191
     35  CZ3      -15.7420  -30.8230  -33.9470 C.ar   39  TRP39       0.0001
     36  CH2      -16.1810  -29.4840  -34.0700 C.ar   39  TRP39       0.0015
     37  N        -10.2960  -29.1130  -30.3660 N.am   40  HIS40      -0.1975
     38  CA        -9.2720  -28.3460  -31.0770 C.3    40  HIS40       0.1656
     39  C         -7.8620  -28.8330  -30.7650 C.2    40  HIS40       0.2291
     40  O         -6.9740  -28.7420  -31.6180 O.2    40  HIS40      -0.2864
     41  CB        -9.3930  -26.8550  -30.7520 C.3    40  HIS40       0.0771
     42  CG       -10.6480  -26.2280  -31.2750 C.ar   40  HIS40       0.0820
     43  ND1      -11.0310  -26.3270  -32.5980 N.ar   40  HIS40      -0.2267
     44  CD2      -11.6120  -25.5030  -30.6570 C.ar   40  HIS40       0.1154
     45  CE1      -12.1790  -25.6970  -32.7700 C.ar   40  HIS40       0.1986
     46  NE2      -12.5550  -25.1900  -31.6060 N.ar   40  HIS40      -0.2212
     47  N        -11.2270  -30.0650  -35.0360 N.3    45  GLY45      -0.1225
     48  CA       -12.2610  -29.0560  -34.8610 C.3    45  GLY45       0.1811
     49  C        -12.5150  -28.2100  -36.0960 C.2    45  GLY45       0.2280
     50  O        -13.3730  -27.3200  -36.0750 O.2    45  GLY45      -0.2866
     51  N        -10.6830  -25.8520  -37.4920 N.3    47  GLU47      -0.1245
     52  CA       -10.2180  -24.4720  -37.4860 C.3    47  GLU47       0.1567
     53  C         -8.7090  -24.5400  -37.6450 C.2    47  GLU47       0.2260
     54  O         -8.1110  -25.6290  -37.5900 O.2    47  GLU47      -0.2867
     55  CB       -10.5730  -23.7740  -36.1760 C.3    47  GLU47       0.0388
     56  CG       -12.0490  -23.7180  -35.8640 C.3    47  GLU47       0.1160
     57  CD       -12.8280  -22.7170  -36.7270 C.2    47  GLU47       0.3649
     58  OE1      -12.2410  -21.8810  -37.4470 O.co2  47  GLU47      -0.2457
     59  OE2      -14.0640  -22.7820  -36.6750 O.co2  47  GLU47      -0.2457
     60  N        -16.8030  -25.7710  -22.0250 N.3    69  HIS69      -0.1241
     61  CA       -17.8310  -25.5520  -23.0670 C.3    69  HIS69       0.1621
     62  C        -18.2170  -26.8280  -23.8270 C.2    69  HIS69       0.2264
     63  O        -18.8270  -26.7320  -24.9010 O.2    69  HIS69      -0.2867
     64  CB       -17.3160  -24.5180  -24.0650 C.3    69  HIS69       0.0745
     65  CG       -18.3840  -23.8470  -24.8760 C.ar   69  HIS69       0.0817
     66  ND1      -19.6220  -23.5200  -24.3660 N.ar   69  HIS69      -0.2268
     67  CD2      -18.3740  -23.3910  -26.1550 C.ar   69  HIS69       0.1154
     68  CE1      -20.3280  -22.8850  -25.2890 C.ar   69  HIS69       0.1986
     69  NE2      -19.5980  -22.8040  -26.3860 N.ar   69  HIS69      -0.2212
     70  N        -18.3940  -29.1930  -28.7830 N.3    73  HIS73      -0.1241
     71  CA       -19.4280  -28.2200  -29.1010 C.3    73  HIS73       0.1621
     72  C        -20.7050  -28.8670  -29.6490 C.2    73  HIS73       0.2264
     73  O        -21.3870  -28.2740  -30.4870 O.2    73  HIS73      -0.2867
     74  CB       -18.9190  -27.2090  -30.1270 C.3    73  HIS73       0.0745
     75  CG       -19.6020  -25.8790  -30.0290 C.ar   73  HIS73       0.0817
     76  ND1      -20.8070  -25.5950  -30.6540 N.ar   73  HIS73      -0.2268
     77  CD2      -19.2680  -24.7590  -29.3420 C.ar   73  HIS73       0.1154
     78  CE1      -21.1630  -24.3530  -30.3750 C.ar   73  HIS73       0.1986
     79  NE2      -20.2480  -23.8280  -29.5740 N.ar   73  HIS73      -0.2212
     80  N        -21.0320  -31.2250  -31.7210 N.3    75  ILE75      -0.1245
     81  CA       -20.9850  -31.6230  -33.1290 C.3    75  ILE75       0.1561
     82  C        -21.4060  -33.0930  -33.3240 C.2    75  ILE75       0.2260
     83  O        -21.9160  -33.4580  -34.3940 O.2    75  ILE75      -0.2867
     84  CB       -19.6130  -31.3100  -33.7870 C.3    75  ILE75       0.0252
     85  CG1      -19.6930  -29.9720  -34.5440 C.3    75  ILE75       0.0019
     86  CG2      -19.1800  -32.4160  -34.7790 C.3    75  ILE75       0.0019
     87  CD1      -19.9570  -28.7460  -33.6650 C.3    75  ILE75       0.0001
     88  N        -16.3760  -32.2340  -37.7450 N.3    87  GLY87      -0.1225
     89  CA       -16.3760  -30.7870  -37.6730 C.3    87  GLY87       0.1811
     90  C        -16.5100  -30.1430  -39.0450 C.2    87  GLY87       0.2280
     91  O        -17.2360  -29.1550  -39.2000 O.2    87  GLY87      -0.2866
     92  N        -19.7630  -28.0550  -40.6250 N.3    91  ASN91      -0.1240
     93  CA       -19.5320  -26.7510  -41.2390 C.3    91  ASN91       0.1653
     94  C        -20.0610  -26.7060  -42.6890 C.2    91  ASN91       0.2266
     95  O        -20.3700  -25.6290  -43.2180 O.2    91  ASN91      -0.2867
     96  CB       -18.0390  -26.3990  -41.1890 C.3    91  ASN91       0.1155
     97  CG       -17.6140  -25.8070  -39.8380 C.2    91  ASN91       0.2627
     98  OD1      -18.4370  -25.2870  -39.0830 O.2    91  ASN91      -0.2716
     99  ND2      -16.3260  -25.8890  -39.5340 N.am   91  ASN91      -0.0877
    100  N        -25.4840  -26.7250  -37.2100 N.3    96  HIS96      -0.1226
    101  CA       -25.0650  -26.7250  -35.7970 C.3    96  HIS96       0.1752
    102  C        -26.2110  -26.5500  -34.7990 C.2    96  HIS96       0.2595
    103  O        -26.2470  -27.1890  -33.7190 O.2    96  HIS96      -0.2718
    104  CB       -24.0420  -25.6200  -35.5560 C.3    96  HIS96       0.0759
    105  CG       -22.8160  -25.7430  -36.3960 C.ar   96  HIS96       0.0818
    106  ND1      -22.6900  -25.1100  -37.6140 N.ar   96  HIS96      -0.2268
    107  CD2      -21.6590  -26.4230  -36.1980 C.ar   96  HIS96       0.1154
    108  CE1      -21.5060  -25.3940  -38.1330 C.ar   96  HIS96       0.1986
    109  NE2      -20.8580  -26.1850  -37.2920 N.ar   96  HIS96      -0.2212
    110  N        -27.1550  -25.6970  -35.1590 N.am   97  GLN97      -0.1979
    111  CA       -28.2250  -25.3370  -34.2450 C.3    97  GLN97       0.1601
    112  C        -29.4440  -26.2230  -34.4420 C.2    97  GLN97       0.2287
    113  O        -30.5030  -25.9620  -33.8710 O.2    97  GLN97      -0.2864
    114  CB       -28.5800  -23.8590  -34.4260 C.3    97  GLN97       0.0394
    115  CG       -27.3230  -22.9950  -34.6730 C.3    97  GLN97       0.0908
    116  CD       -27.5080  -21.5590  -34.2700 C.2    97  GLN97       0.2608
    117  OE1      -26.5660  -20.9050  -33.8220 O.2    97  GLN97      -0.2717
    118  NE2      -28.7350  -21.0510  -34.4240 N.am   97  GLN97      -0.0878
    119  N        -20.6530  -23.3000  -19.7450 N.3   138  ARG138     -0.1231
    120  CA       -21.6420  -22.6560  -20.5750 C.3   138  ARG138      0.1694
    121  C        -22.0180  -23.6520  -21.6750 C.2   138  ARG138      0.2592
    122  O        -21.1380  -24.3470  -22.2500 O.2   138  ARG138     -0.2718
    123  CB       -21.0670  -21.3920  -21.2100 C.3   138  ARG138      0.0321
    124  CG       -22.0730  -20.6590  -22.0720 C.3   138  ARG138      0.0489
    125  CD       -21.4570  -19.4500  -22.7130 C.3   138  ARG138      0.2205
    126  NE       -21.4330  -18.2900  -21.8190 N.pl3 138  ARG138     -0.0865
    127  CZ       -20.5940  -17.2760  -21.9580 C.cat 138  ARG138      0.5346
    128  NH1      -19.7060  -17.3140  -22.9390 N.pl3 138  ARG138      0.1354
    129  NH2      -20.6350  -16.2270  -21.1310 N.pl3 138  ARG138      0.1354
    130  N        -23.3170  -23.7490  -21.9530 N.am  139  LEU139     -0.1966
    131  CA       -23.8200  -24.6940  -22.9570 C.3   139  LEU139      0.1713
    132  C        -23.6900  -24.1220  -24.3760 C.2   139  LEU139      0.2458
    133  O        -24.1100  -23.0000  -24.6320 O.2   139  LEU139     -0.2730
    134  CB       -25.2900  -25.0850  -22.6890 C.3   139  LEU139      0.0310
    135  CG       -25.4500  -26.4530  -22.0360 C.3   139  LEU139      0.0022
    136  CD1      -24.9780  -26.3760  -20.5900 C.3   139  LEU139      0.0001
    137  CD2      -26.8900  -26.9020  -22.0730 C.3   139  LEU139      0.0001
    138  N        -23.0980  -24.8910  -25.2990 N.am  140  PRO140     -0.2716
    139  CA       -23.0920  -24.4630  -26.6980 C.3   140  PRO140      0.1536
    140  C        -24.4690  -23.9800  -27.1990 C.2   140  PRO140      0.2598
    141  O        -25.4980  -24.6210  -26.9060 O.2   140  PRO140     -0.2715
    142  CB       -22.6700  -25.7420  -27.4280 C.3   140  PRO140      0.0310
    143  CG       -21.6920  -26.4060  -26.4580 C.3   140  PRO140      0.0237
    144  CD       -22.3120  -26.1250  -25.0840 C.3   140  PRO140      0.0939
    145  N        -24.4760  -22.8450  -27.9050 N.am  141  TYR141     -0.1974
    146  CA       -25.6590  -22.2660  -28.5750 C.3   141  TYR141      0.1639
    147  C        -26.6680  -21.5870  -27.6420 C.2   141  TYR141      0.2290
    148  O        -27.6440  -20.9920  -28.1300 O.2   141  TYR141     -0.2864
    149  CB       -26.4200  -23.3180  -29.4320 C.3   141  TYR141      0.0560
    150  CG       -25.5190  -24.1960  -30.2780 C.ar  141  TYR141     -0.0198
    151  CD1      -24.7620  -23.6530  -31.3000 C.ar  141  TYR141     -0.0009
    152  CD2      -25.4300  -25.5750  -30.0540 C.ar  141  TYR141     -0.0009
    153  CE1      -23.9160  -24.4490  -32.0830 C.ar  141  TYR141      0.0417
    154  CE2      -24.5840  -26.3840  -30.8360 C.ar  141  TYR141      0.0417
    155  CZ       -23.8260  -25.8100  -31.8400 C.ar  141  TYR141      0.1957
    156  OH       -22.9870  -26.6020  -32.6120 O.3   141  TYR141     -0.2866
    157  N        -32.8390  -18.0900  -38.5860 N.3   166  TRP166     -0.1241
    158  CA       -32.7910  -17.0170  -39.5980 C.3   166  TRP166      0.1605
    159  C        -33.3680  -17.4470  -40.9340 C.2   166  TRP166      0.2264
    160  O        -33.3600  -16.6600  -41.8920 O.2   166  TRP166     -0.2867
    161  CB       -31.3500  -16.5190  -39.8290 C.3   166  TRP166      0.0550
    162  CG       -30.3970  -17.6260  -40.1850 C.ar  166  TRP166      0.0003
    163  CD1      -30.1510  -18.1440  -41.4330 C.ar  166  TRP166      0.0946
    164  CD2      -29.5710  -18.3600  -39.2780 C.ar  166  TRP166      0.0152
    165  NE1      -29.2100  -19.1520  -41.3530 N.ar  166  TRP166     -0.2442
    166  CE2      -28.8390  -19.3070  -40.0430 C.ar  166  TRP166      0.0810
    167  CE3      -29.3740  -18.3110  -37.8920 C.ar  166  TRP166      0.0012
    168  CZ2      -27.9240  -20.1950  -39.4660 C.ar  166  TRP166      0.0191
    169  CZ3      -28.4660  -19.1920  -37.3190 C.ar  166  TRP166      0.0001
    170  CH2      -27.7520  -20.1240  -38.1080 C.ar  166  TRP166      0.0015
    171  N        -25.1600  -14.7620  -21.2950 N.3   201  TRP201     -0.1241
    172  CA       -24.5240  -13.4920  -21.5810 C.3   201  TRP201      0.1605
    173  C        -25.5720  -12.4000  -21.7680 C.2   201  TRP201      0.2264
    174  O        -26.7790  -12.6830  -21.9190 O.2   201  TRP201     -0.2867
    175  CB       -23.6430  -13.6290  -22.8270 C.3   201  TRP201      0.0550
    176  CG       -24.4450  -14.0310  -24.0620 C.ar  201  TRP201      0.0003
    177  CD1      -25.0230  -13.1940  -24.9900 C.ar  201  TRP201      0.0946
    178  CD2      -24.7700  -15.3660  -24.4780 C.ar  201  TRP201      0.0152
    179  NE1      -25.6780  -13.9300  -25.9560 N.ar  201  TRP201     -0.2442
    180  CE2      -25.5360  -15.2660  -25.6690 C.ar  201  TRP201      0.0810
    181  CE3      -24.4760  -16.6390  -23.9720 C.ar  201  TRP201      0.0012
    182  CZ2      -26.0120  -16.4010  -26.3570 C.ar  201  TRP201      0.0191
    183  CZ3      -24.9520  -17.7600  -24.6580 C.ar  201  TRP201      0.0001
    184  CH2      -25.7030  -17.6340  -25.8350 C.ar  201  TRP201      0.0015
    185  N        -26.1390  -15.8330  -37.1420 N.3   210  TRP210     -0.1241
    186  CA       -25.0820  -16.7280  -37.6250 C.3   210  TRP210      0.1605
    187  C        -25.2860  -17.2160  -39.0670 C.2   210  TRP210      0.2264
    188  O        -24.4340  -17.9050  -39.6330 O.2   210  TRP210     -0.2867
    189  CB       -24.8640  -17.8670  -36.6280 C.3   210  TRP210      0.0550
    190  CG       -24.0930  -17.3120  -35.4320 C.ar  210  TRP210      0.0003
    191  CD1      -24.5780  -17.0550  -34.1790 C.ar  210  TRP210      0.0946
    192  CD2      -22.7150  -16.8790  -35.4250 C.ar  210  TRP210      0.0152
    193  NE1      -23.5810  -16.5150  -33.3840 N.ar  210  TRP210     -0.2442
    194  CE2      -22.4330  -16.3960  -34.1280 C.ar  210  TRP210      0.0810
    195  CE3      -21.6960  -16.8860  -36.3790 C.ar  210  TRP210      0.0012
    196  CZ2      -21.1770  -15.9170  -33.7650 C.ar  210  TRP210      0.0191
    197  CZ3      -20.4440  -16.4010  -36.0180 C.ar  210  TRP210      0.0001
    198  CH2      -20.1990  -15.9250  -34.7200 C.ar  210  TRP210      0.0015
    199  N        -18.8050  -13.4900  -41.3050 N.3   215  PRO215     -0.2116
    200  CA       -19.2030  -13.0520  -39.9570 C.3   215  PRO215      0.1372
    201  C        -18.2030  -12.1190  -39.3030 C.2   215  PRO215      0.2244
    202  O        -18.5920  -11.2410  -38.5320 O.2   215  PRO215     -0.2868
    203  CB       -19.2440  -14.3620  -39.1570 C.3   215  PRO215      0.0268
    204  CG       -19.4400  -15.4140  -40.1610 C.3   215  PRO215      0.0207
    205  CD       -18.7770  -14.9580  -41.4210 C.3   215  PRO215      0.0892
    206  N        -33.0010  -16.8160  -30.8250 N.3   245  ASN245     -0.1240
    207  CA       -32.3200  -17.9680  -30.2430 C.3   245  ASN245      0.1653
    208  C        -31.2960  -17.5960  -29.1650 C.2   245  ASN245      0.2266
    209  O        -30.7770  -18.4820  -28.4810 O.2   245  ASN245     -0.2867
    210  CB       -31.6510  -18.7940  -31.3280 C.3   245  ASN245      0.1155
    211  CG       -30.8560  -17.9460  -32.2810 C.2   245  ASN245      0.2627
    212  OD1      -31.4060  -17.0340  -32.9050 O.2   245  ASN245     -0.2716
    213  ND2      -29.5480  -18.2250  -32.4030 N.am  245  ASN245     -0.0877
    214  N        -20.2510  -11.7640  -24.6180 N.3   265  LEU265     -0.1245
    215  CA       -19.8760  -12.9850  -25.3340 C.3   265  LEU265      0.1561
    216  C        -19.2530  -12.6000  -26.6730 C.2   265  LEU265      0.2260
    217  O        -19.8010  -11.7770  -27.4050 O.2   265  LEU265     -0.2867
    218  CB       -21.1040  -13.8680  -25.5910 C.3   265  LEU265      0.0270
    219  CG       -20.9160  -15.0450  -26.5740 C.3   265  LEU265      0.0019
    220  CD1      -20.0620  -16.1390  -25.9380 C.3   265  LEU265      0.0001
    221  CD2      -22.2740  -15.6000  -27.0240 C.3   265  LEU265      0.0001
    222  N        -16.3280  -14.6670  -29.8200 N.3   267  HIS267     -0.1241
    223  CA       -15.6460  -15.9030  -30.2000 C.3   267  HIS267      0.1621
    224  C        -14.2650  -15.6150  -30.7270 C.2   267  HIS267      0.2264
    225  O        -14.1210  -14.7520  -31.6080 O.2   267  HIS267     -0.2867
    226  CB       -16.4450  -16.6060  -31.2750 C.3   267  HIS267      0.0745
    227  CG       -17.7760  -17.0700  -30.8080 C.ar  267  HIS267      0.0817
    228  ND1      -18.8310  -16.2070  -30.5770 N.ar  267  HIS267     -0.2268
    229  CD2      -18.2260  -18.3130  -30.5110 C.ar  267  HIS267      0.1154
    230  CE1      -19.8790  -16.9060  -30.1760 C.ar  267  HIS267      0.1986
    231  NE2      -19.5400  -18.1830  -30.1340 N.ar  267  HIS267     -0.2212
    232  N        -12.5600  -17.0860  -32.8660 N.3   269  PHE269     -0.1241
    233  CA       -12.3880  -17.2370  -34.3280 C.3   269  PHE269      0.1605
    234  C        -12.8240  -15.9820  -35.1130 C.2   269  PHE269      0.2264
    235  O        -12.5200  -15.8490  -36.3010 O.2   269  PHE269     -0.2867
    236  CB       -13.0640  -18.5030  -34.8870 C.3   269  PHE269      0.0534
    237  CG       -14.5770  -18.5740  -34.6650 C.ar  269  PHE269     -0.0203
    238  CD1      -15.4390  -17.6640  -35.2670 C.ar  269  PHE269     -0.0042
    239  CD2      -15.1280  -19.5680  -33.8700 C.ar  269  PHE269     -0.0042
    240  CE1      -16.8010  -17.7400  -35.0640 C.ar  269  PHE269     -0.0003
    241  CE2      -16.5000  -19.6460  -33.6640 C.ar  269  PHE269     -0.0003
    242  CZ       -17.3300  -18.7350  -34.2660 C.ar  269  PHE269     -0.0000
    243  N        -13.7910  -16.4540  -42.4920 N.3   276  ARG276     -0.1245
    244  CA       -14.9320  -15.6830  -41.9950 C.3   276  ARG276      0.1563
    245  C        -14.7310  -14.1850  -42.1940 C.2   276  ARG276      0.2260
    246  O        -15.6090  -13.3860  -41.8640 O.2   276  ARG276     -0.2867
    247  CB       -15.1470  -15.9510  -40.5030 C.3   276  ARG276      0.0307
    248  CG       -15.5810  -17.3640  -40.1800 C.3   276  ARG276      0.0489
    249  CD       -15.7240  -17.5350  -38.6690 C.3   276  ARG276      0.2205
    250  NE       -16.1180  -18.9030  -38.3170 N.pl3 276  ARG276     -0.0865
    251  CZ       -15.2690  -19.9210  -38.1760 C.cat 276  ARG276      0.5346
    252  NH1      -13.9590  -19.7490  -38.3580 N.pl3 276  ARG276      0.1354
    253  NH2      -15.7340  -21.1160  -37.8510 N.pl3 276  ARG276      0.1354
@<TRIPOS>BOND
     1    95    94    2
     2    94    93    1
     3   243   244    1
     4   245   244    1
     5   245   246    2
     6   244   247    1
     7   160   159    2
     8   163   165   ar
     9   163   162   ar
    10   205   199    1
    11   205   204    1
    12   165   166   ar
    13   199   200    1
    14    93    96    1
    15    93    92    1
    16    96    97    1
    17   159   158    1
    18   247   248    1
    19   162   161    1
    20   162   164   ar
    21   248   249    1
    22   204   203    1
    23   166   168   ar
    24   166   164   ar
    25   200   201    1
    26   200   203    1
    27    97    99   am
    28    97    98    2
    29   161   158    1
    30   188   187    2
    31   158   157    1
    32   168   170   ar
    33   201   202    2
    34   164   167   ar
    35    91    90    2
    36   187   186    1
    37    90    89    1
    38   249   250    1
    39   252   251    1
    40   250   251    2
    41   251   253    1
    42   108   106   ar
    43   108   109   ar
    44   170   169   ar
    45   167   169   ar
    46    88    89    1
    47    53    54    2
    48    53    52    1
    49   186   185    1
    50   186   189    1
    51   106   105   ar
    52    51    52    1
    53    52    55    1
    54    58    57   ar
    55   109   107   ar
    56   100   101    1
    57    57    59   ar
    58    57    56    1
    59   189   190    1
    60   105   107   ar
    61   105   104    1
    62   195   197   ar
    63   195   192   ar
    64   235   234    2
    65    55    56    1
    66    49    50    2
    67    49    48    1
    68   197   198   ar
    69   101   104    1
    70   101   102    1
    71   190   192   ar
    72   190   191   ar
    73   192   194   ar
    74   238   240   ar
    75   238   237   ar
    76   110   102   am
    77   110   111    1
    78   234   233    1
    79   240   242   ar
    80    47    48    1
    81   236   237    1
    82   236   233    1
    83   102   103    2
    84    86    84    1
    85   198   196   ar
    86   115   114    1
    87   115   116    1
    88   237   239   ar
    89    85    84    1
    90    85    87    1
    91   112   111    1
    92   112   113    2
    93   114   111    1
    94   118   116   am
    95    83    82    2
    96   233   232    1
    97   116   117    2
    98   242   241   ar
    99   191   193   ar
   100   194   196   ar
   101   194   193   ar
   102    36    35   ar
   103    36    34   ar
   104    35    33   ar
   105   239   241   ar
   106    84    81    1
   107    82    81    1
   108    34    32   ar
   109    81    80    1
   110    33    30   ar
   111   212   211    2
   112    45    43   ar
   113    45    46   ar
   114   156   155    1
   115    43    42   ar
   116   213   211   am
   117   211   210    1
   118    32    30   ar
   119    32    31   ar
   120   153   155   ar
   121   153   151   ar
   122    30    28   ar
   123   155   154   ar
   124    40    39    2
   125   225   224    2
   126    46    44   ar
   127   210   207    1
   128    26    25    2
   129   151   150   ar
   130   226   227    1
   131   226   223    1
   132    42    41    1
   133    42    44   ar
   134    31    29   ar
   135    38    39    1
   136    38    41    1
   137    38    37    1
   138    14    12   ar
   139    28    29   ar
   140    28    27    1
   141   154   152   ar
   142   206   207    1
   143   227   228   ar
   144   227   229   ar
   145   224   223    1
   146    76    78   ar
   147    76    75   ar
   148   228   230   ar
   149    25    37   am
   150    25    24    1
   151   229   231   ar
   152    73    72    2
   153    78    79   ar
   154    27    24    1
   155   150   152   ar
   156   150   149    1
   157   207   208    1
   158   223   222    1
   159   230   231   ar
   160    74    75    1
   161    74    71    1
   162    11    12    1
   163    11     8    1
   164    75    77   ar
   165    10     9    2
   166    12    13   ar
   167    72    71    1
   168    24    23    1
   169    79    77   ar
   170   149   146    1
   171   208   209    2
   172    71    70    1
   173     9     8    1
   174     8     7    1
   175     4     3    2
   176   146   145    1
   177   146   147    1
   178    21    20    2
   179   148   147    2
   180   145   140   am
   181    18    17    2
   182    19    20    1
   183    19    16    1
   184     3     7   am
   185     3     2    1
   186    20    22   am
   187   142   139    1
   188   142   143    1
   189   217   216    2
   190   140   141    2
   191   140   139    1
   192   221   219    1
   193    17    16    1
   194   139   138    1
   195   216   215    1
   196     5     2    1
   197     5     6    1
   198   219   220    1
   199   219   218    1
   200     2     1    1
   201    16    15    1
   202   143   144    1
   203    69    67   ar
   204    69    68   ar
   205   182   184   ar
   206   182   180   ar
   207    67    65   ar
   208   179   180   ar
   209   179   177   ar
   210   184   183   ar
   211   180   178   ar
   212   218   215    1
   213   215   214    1
   214   138   144    1
   215   138   132   am
   216    68    66   ar
   217   177   176   ar
   218    63    62    2
   219    65    66   ar
   220    65    64    1
   221   183   181   ar
   222   133   132    2
   223   178   176   ar
   224   178   181   ar
   225   132   131    1
   226    64    61    1
   227   176   175    1
   228    62    61    1
   229    61    60    1
   230   131   134    1
   231   131   130    1
   232   128   127    1
   233   175   172    1
   234   125   124    1
   235   125   126    1
   236   134   135    1
   237   122   121    2
   238   137   135    1
   239   124   123    1
   240   135   136    1
   241   127   126    2
   242   127   129    1
   243   130   121   am
   244   174   173    2
   245   173   172    1
   246   121   120    1
   247   172   171    1
   248   123   120    1
   249   120   119    1
