@<TRIPOS>MOLECULE
tmp/4nz2A01.pdb
 191 176 0 0 0
SMALL
GASTEIGER

@<TRIPOS>ATOM
      1  N        -66.2970  -37.9230  -28.8080 N.3    77  ALA77      -0.1245
      2  CA       -65.4750  -37.5280  -27.6610 C.3    77  ALA77       0.1562
      3  C        -65.6680  -36.0380  -27.3600 C.2    77  ALA77       0.2260
      4  O        -65.8640  -35.6730  -26.2030 O.2    77  ALA77      -0.2867
      5  CB       -64.0080  -37.8300  -27.9370 C.3    77  ALA77       0.0290
      6  N        -69.2100  -35.7400  -25.7940 N.3    80  ALA80      -0.1231
      7  CA       -69.3220  -36.4680  -24.5240 C.3    80  ALA80       0.1694
      8  C        -68.4200  -35.9200  -23.4060 C.2    80  ALA80       0.2592
      9  O        -68.6070  -36.2950  -22.2450 O.2    80  ALA80      -0.2718
     10  CB       -69.0540  -37.9500  -24.7430 C.3    80  ALA80       0.0304
     11  N        -67.4550  -35.0370  -23.7450 N.am   81  ASN81      -0.1974
     12  CA       -66.5240  -34.4600  -22.7710 C.3    81  ASN81       0.1688
     13  C        -66.7310  -32.9660  -22.5230 C.2    81  ASN81       0.2292
     14  O        -66.3610  -32.1340  -23.3590 O.2    81  ASN81      -0.2864
     15  CB       -65.0610  -34.7510  -23.1510 C.3    81  ASN81       0.1181
     16  CG       -64.7380  -36.2190  -23.2730 C.2    81  ASN81       0.2629
     17  OD1      -65.0480  -37.0260  -22.3940 O.2    81  ASN81      -0.2716
     18  ND2      -64.1150  -36.5970  -24.3770 N.am   81  ASN81      -0.0877
     19  N        -56.5330  -37.0280  -20.5900 N.3    87  VAL87      -0.1231
     20  CA       -56.7620  -37.8080  -21.8090 C.3    87  VAL87       0.1692
     21  C        -57.0230  -36.9240  -23.0410 C.2    87  VAL87       0.2592
     22  O        -56.3370  -37.0870  -24.0500 O.2    87  VAL87      -0.2718
     23  CB       -57.8470  -38.9040  -21.5930 C.3    87  VAL87       0.0266
     24  CG1      -58.1550  -39.6550  -22.8840 C.3    87  VAL87       0.0020
     25  CG2      -57.4320  -39.8840  -20.4990 C.3    87  VAL87       0.0020
     26  N        -57.9780  -35.9770  -22.9490 N.am   88  PHE88      -0.1976
     27  CA       -58.3260  -35.0940  -24.0660 C.3    88  PHE88       0.1639
     28  C        -57.7920  -33.6560  -23.9840 C.2    88  PHE88       0.2290
     29  O        -58.1320  -32.8260  -24.8340 O.2    88  PHE88      -0.2864
     30  CB       -59.8330  -35.1480  -24.3600 C.3    88  PHE88       0.0560
     31  CG       -60.2980  -36.5020  -24.8350 C.ar   88  PHE88      -0.0200
     32  CD1      -60.9270  -37.3830  -23.9640 C.ar   88  PHE88      -0.0042
     33  CD2      -60.0750  -36.9120  -26.1440 C.ar   88  PHE88      -0.0042
     34  CE1      -61.3540  -38.6390  -24.4030 C.ar   88  PHE88      -0.0003
     35  CE2      -60.4910  -38.1710  -26.5790 C.ar   88  PHE88      -0.0003
     36  CZ       -61.1280  -39.0250  -25.7060 C.ar   88  PHE88      -0.0000
     37  N        -68.9640  -46.7080  -14.9570 N.3   175  LEU175     -0.1245
     38  CA       -67.7680  -47.0060  -15.7420 C.3   175  LEU175      0.1561
     39  C        -68.0340  -48.0960  -16.7810 C.2   175  LEU175      0.2260
     40  O        -67.6510  -47.9250  -17.9390 O.2   175  LEU175     -0.2867
     41  CB       -66.5820  -47.3750  -14.8350 C.3   175  LEU175      0.0270
     42  CG       -65.9120  -46.2140  -14.0960 C.3   175  LEU175      0.0019
     43  CD1      -65.2110  -46.7010  -12.8400 C.3   175  LEU175      0.0001
     44  CD2      -64.9280  -45.4780  -14.9940 C.3   175  LEU175      0.0001
     45  N        -70.4670  -46.7720  -19.6080 N.3   178  ASN178     -0.1225
     46  CA       -69.6820  -45.9190  -20.5010 C.3   178  ASN178      0.1785
     47  C        -68.8050  -46.7120  -21.4670 C.2   178  ASN178      0.2597
     48  O        -68.6750  -46.3220  -22.6280 O.2   178  ASN178     -0.2718
     49  CB       -68.8440  -44.9440  -19.6850 C.3   178  ASN178      0.1169
     50  CG       -69.6130  -43.7500  -19.1710 C.2   178  ASN178      0.2627
     51  OD1      -70.7760  -43.5180  -19.5230 O.2   178  ASN178     -0.2716
     52  ND2      -68.9770  -42.9590  -18.3240 N.am  178  ASN178     -0.0877
     53  N        -68.2230  -47.8290  -20.9910 N.am  179  ILE179     -0.1980
     54  CA       -67.3910  -48.7200  -21.7960 C.3   179  ILE179      0.1595
     55  C        -68.2590  -49.4720  -22.7990 C.2   179  ILE179      0.2287
     56  O        -67.8810  -49.5600  -23.9640 O.2   179  ILE179     -0.2864
     57  CB       -66.4950  -49.6320  -20.9030 C.3   179  ILE179      0.0276
     58  CG1      -65.3360  -48.8170  -20.2570 C.3   179  ILE179      0.0022
     59  CG2      -65.9790  -50.8870  -21.6410 C.3   179  ILE179      0.0022
     60  CD1      -64.1790  -48.2820  -21.2130 C.3   179  ILE179      0.0001
     61  N        -69.0710  -46.9540  -25.5310 N.3   182  LEU182     -0.1231
     62  CA       -67.8790  -46.7300  -26.3600 C.3   182  LEU182      0.1693
     63  C        -67.4540  -47.9440  -27.1950 C.2   182  LEU182      0.2592
     64  O        -66.8580  -47.7640  -28.2590 O.2   182  LEU182     -0.2718
     65  CB       -66.6940  -46.2350  -25.5140 C.3   182  LEU182      0.0284
     66  CG       -66.7650  -44.8080  -24.9630 C.3   182  LEU182      0.0019
     67  CD1      -65.7520  -44.6210  -23.8670 C.3   182  LEU182      0.0001
     68  CD2      -66.5330  -43.7690  -26.0550 C.3   182  LEU182      0.0001
     69  N        -67.7410  -49.1680  -26.7130 N.am  183  SER183     -0.1952
     70  CA       -67.3900  -50.4130  -27.4000 C.3   183  SER183      0.1924
     71  C        -68.5090  -50.9420  -28.3160 C.2   183  SER183      0.2314
     72  O        -68.3500  -52.0020  -28.9290 O.2   183  SER183     -0.2863
     73  CB       -66.9360  -51.4760  -26.4020 C.3   183  SER183      0.2116
     74  OG       -67.9650  -51.7900  -25.4790 O.3   183  SER183     -0.2180
     75  N        -73.6200  -40.6570  -21.7810 N.3   207  LEU207     -0.1245
     76  CA       -72.2060  -40.5710  -21.4000 C.3   207  LEU207      0.1561
     77  C        -71.9840  -39.3480  -20.5070 C.2   207  LEU207      0.2260
     78  O        -71.2680  -39.4490  -19.5110 O.2   207  LEU207     -0.2867
     79  CB       -71.2920  -40.4810  -22.6380 C.3   207  LEU207      0.0270
     80  CG       -71.0130  -41.7710  -23.4060 C.3   207  LEU207      0.0019
     81  CD1      -70.5430  -41.4660  -24.8120 C.3   207  LEU207      0.0001
     82  CD2      -69.9670  -42.6260  -22.6990 C.3   207  LEU207      0.0001
     83  N        -70.7850  -39.2790  -16.4860 N.3   211  VAL211     -0.1245
     84  CA       -69.5830  -38.4990  -16.1800 C.3   211  VAL211      0.1561
     85  C        -69.9230  -37.4760  -15.0820 C.2   211  VAL211      0.2260
     86  O        -69.1680  -37.3570  -14.1140 O.2   211  VAL211     -0.2867
     87  CB       -68.9560  -37.8650  -17.4580 C.3   211  VAL211      0.0252
     88  CG1      -68.0010  -36.7210  -17.1260 C.3   211  VAL211      0.0019
     89  CG2      -68.2400  -38.9210  -18.2940 C.3   211  VAL211      0.0019
     90  N        -70.2000  -39.1890  -11.7220 N.3   214  MET214     -0.1245
     91  CA       -68.8430  -39.4920  -11.2700 C.3   214  MET214      0.1570
     92  C        -68.1290  -38.2400  -10.7570 C.2   214  MET214      0.2261
     93  O        -67.4730  -38.3070   -9.7190 O.2   214  MET214     -0.2867
     94  CB       -68.0430  -40.1520  -12.4000 C.3   214  MET214      0.0387
     95  CG       -68.2890  -41.6430  -12.5340 C.3   214  MET214      0.0595
     96  SD       -67.6930  -42.3370  -14.1010 S.3   214  MET214     -0.1393
     97  CE       -65.9250  -42.0740  -13.9310 C.3   214  MET214      0.0692
     98  N        -61.8420  -38.5970  -13.1340 N.3   266  VAL266     -0.1231
     99  CA       -62.7160  -39.4070  -13.9990 C.3   266  VAL266      0.1692
    100  C        -61.9260  -40.0630  -15.1410 C.2   266  VAL266      0.2592
    101  O        -62.2160  -41.2040  -15.5050 O.2   266  VAL266     -0.2718
    102  CB       -64.0240  -38.7100  -14.4840 C.3   266  VAL266      0.0266
    103  CG1      -64.9180  -38.3190  -13.3150 C.3   266  VAL266      0.0020
    104  CG2      -63.7460  -37.5060  -15.3790 C.3   266  VAL266      0.0020
    105  N        -60.9070  -39.3470  -15.6710 N.am  267  ASP267     -0.1974
    106  CA       -60.0130  -39.8170  -16.7310 C.3   267  ASP267      0.1709
    107  C        -59.1780  -40.9900  -16.2320 C.2   267  ASP267      0.2293
    108  O        -59.0600  -41.9910  -16.9390 O.2   267  ASP267     -0.2864
    109  CB       -59.0920  -38.6820  -17.2110 C.3   267  ASP267      0.1436
    110  CG       -59.6190  -37.8350  -18.3540 C.2   267  ASP267      0.3671
    111  OD1      -60.7820  -38.0450  -18.7700 O.co2 267  ASP267     -0.2456
    112  OD2      -58.8660  -36.9630  -18.8380 O.co2 267  ASP267     -0.2456
    113  N        -61.5470  -43.9430  -15.8390 N.3   270  GLY270     -0.1210
    114  CA       -61.9320  -44.4330  -17.1590 C.3   270  GLY270      0.1956
    115  C        -60.8280  -45.1790  -17.8830 C.2   270  GLY270      0.2611
    116  O        -61.0310  -46.3140  -18.3260 O.2   270  GLY270     -0.2717
    117  N        -59.6480  -44.5460  -17.9970 N.am  271  ALA271     -0.1979
    118  CA       -58.4810  -45.1150  -18.6740 C.3   271  ALA271      0.1597
    119  C        -57.7550  -46.1950  -17.8660 C.2   271  ALA271      0.2287
    120  O        -57.0050  -46.9830  -18.4460 O.2   271  ALA271     -0.2864
    121  CB       -57.5100  -44.0090  -19.0590 C.3   271  ALA271      0.0319
    122  N        -61.0900  -50.4580  -17.0740 N.3   274  GLU274     -0.1231
    123  CA       -61.3790  -51.4500  -18.1040 C.3   274  GLU274      0.1699
    124  C        -60.1960  -51.9830  -18.8800 C.2   274  GLU274      0.2592
    125  O        -60.2230  -53.1480  -19.2600 O.2   274  GLU274     -0.2718
    126  CB       -62.5360  -51.0210  -19.0070 C.3   274  GLU274      0.0402
    127  CG       -63.8670  -51.5820  -18.5340 C.3   274  GLU274      0.1161
    128  CD       -64.1580  -53.0190  -18.9280 C.2   274  GLU274      0.3649
    129  OE1      -64.0440  -53.3450  -20.1320 O.co2 274  GLU274     -0.2457
    130  OE2      -64.5430  -53.8090  -18.0360 O.co2 274  GLU274     -0.2457
    131  N        -59.1450  -51.1650  -19.0780 N.am  275  THR275     -0.1953
    132  CA       -57.9170  -51.5810  -19.7610 C.3   275  THR275      0.1897
    133  C        -57.2480  -52.7210  -18.9870 C.2   275  THR275      0.2313
    134  O        -56.9840  -53.7780  -19.5620 O.2   275  THR275     -0.2863
    135  CB       -56.9450  -50.4030  -19.9270 C.3   275  THR275      0.1794
    136  OG1      -56.8750  -49.6570  -18.7070 O.3   275  THR275     -0.2208
    137  CG2      -57.3030  -49.5060  -21.0940 C.3   275  THR275      0.0378
    138  N        -59.8130  -55.9510  -18.5760 N.3   278  THR278     -0.1218
    139  CA       -59.8890  -56.7310  -19.8140 C.3   278  THR278      0.1862
    140  C        -58.6020  -57.5350  -20.0300 C.2   278  THR278      0.2287
    141  O        -58.6800  -58.6840  -20.4650 O.2   278  THR278     -0.2866
    142  CB       -60.2530  -55.8200  -21.0000 C.3   278  THR278      0.1770
    143  OG1      -61.4080  -55.0530  -20.6540 O.3   278  THR278     -0.2211
    144  CG2      -60.5300  -56.5930  -22.2800 C.3   278  THR278      0.0375
    145  N        -54.9560  -54.8710  -27.0960 N.3   335  LEU335     -0.1231
    146  CA       -56.0860  -54.2140  -26.4280 C.3   335  LEU335      0.1693
    147  C        -56.6110  -52.9680  -27.1440 C.2   335  LEU335      0.2591
    148  O        -57.8110  -52.8740  -27.3900 O.2   335  LEU335     -0.2718
    149  CB       -55.7010  -53.8960  -24.9780 C.3   335  LEU335      0.0284
    150  CG       -56.8260  -53.5500  -24.0180 C.3   335  LEU335      0.0019
    151  CD1      -57.4700  -54.8010  -23.4600 C.3   335  LEU335      0.0001
    152  CD2      -56.2950  -52.7220  -22.8840 C.3   335  LEU335      0.0001
    153  N        -55.7180  -52.0220  -27.4730 N.am  336  LEU336     -0.1980
    154  CA       -56.0670  -50.8010  -28.1950 C.3   336  LEU336      0.1596
    155  C        -55.3080  -50.8260  -29.5310 C.2   336  LEU336      0.2287
    156  O        -54.1630  -50.3680  -29.6010 O.2   336  LEU336     -0.2864
    157  CB       -55.7660  -49.5430  -27.3550 C.3   336  LEU336      0.0297
    158  CG       -56.5310  -49.4190  -26.0220 C.3   336  LEU336      0.0022
    159  CD1      -55.9420  -48.3380  -25.1550 C.3   336  LEU336      0.0001
    160  CD2      -58.0200  -49.1600  -26.2400 C.3   336  LEU336      0.0001
    161  N        -54.9300  -44.3020  -28.8890 N.3   340  LEU340     -0.1245
    162  CA       -55.8410  -43.1740  -28.7570 C.3   340  LEU340      0.1561
    163  C        -55.4550  -42.2170  -29.8990 C.2   340  LEU340      0.2260
    164  O        -54.2870  -42.2270  -30.3070 O.2   340  LEU340     -0.2867
    165  CB       -55.6890  -42.5190  -27.3750 C.3   340  LEU340      0.0270
    166  CG       -56.8380  -42.7280  -26.3640 C.3   340  LEU340      0.0019
    167  CD1      -57.2310  -44.2030  -26.2180 C.3   340  LEU340      0.0001
    168  CD2      -56.4520  -42.2000  -25.0050 C.3   340  LEU340      0.0001
    169  N        -62.7470  -50.0700  -31.6260 N.3   450  PHE450     -0.1227
    170  CA       -61.3510  -49.7190  -31.3600 C.3   450  PHE450      0.1736
    171  C        -60.7740  -50.3470  -30.0720 C.2   450  PHE450      0.2595
    172  O        -59.8230  -49.8150  -29.4870 O.2   450  PHE450     -0.2718
    173  CB       -61.1530  -48.1910  -31.4250 C.3   450  PHE450      0.0547
    174  CG       -61.3010  -47.6080  -32.8140 C.ar  450  PHE450     -0.0202
    175  CD1      -60.2770  -47.7200  -33.7470 C.ar  450  PHE450     -0.0042
    176  CD2      -62.4610  -46.9420  -33.1860 C.ar  450  PHE450     -0.0042
    177  CE1      -60.4080  -47.1740  -35.0270 C.ar  450  PHE450     -0.0003
    178  CE2      -62.5930  -46.3960  -34.4690 C.ar  450  PHE450     -0.0003
    179  CZ       -61.5650  -46.5160  -35.3790 C.ar  450  PHE450     -0.0000
    180  N        -61.3260  -51.5080  -29.6620 N.am  451  ALA451     -0.1980
    181  CA       -60.8810  -52.2570  -28.4850 C.3   451  ALA451      0.1597
    182  C        -61.0480  -53.7650  -28.6700 C.2   451  ALA451      0.2287
    183  O        -62.1020  -54.2200  -29.1260 O.2   451  ALA451     -0.2864
    184  CB       -61.6240  -51.7910  -27.2420 C.3   451  ALA451      0.0319
    185  N        -61.5650  -57.2840  -27.0730 N.3   453  VAL453     -0.1245
    186  CA       -62.1380  -57.9000  -25.8700 C.3   453  VAL453      0.1561
    187  C        -62.2220  -59.4320  -25.9910 C.2   453  VAL453      0.2260
    188  O        -62.4740  -59.9290  -27.0910 O.2   453  VAL453     -0.2867
    189  CB       -63.4880  -57.2590  -25.4340 C.3   453  VAL453      0.0252
    190  CG1      -63.2770  -55.8500  -24.8870 C.3   453  VAL453      0.0019
    191  CG2      -64.5160  -57.2630  -26.5650 C.3   453  VAL453      0.0019
@<TRIPOS>BOND
     1   179   177   ar
     2   179   178   ar
     3   177   175   ar
     4   178   176   ar
     5   175   174   ar
     6   176   174   ar
     7   174   173    1
     8   169   170    1
     9   173   170    1
    10   170   171    1
    11   164   163    2
    12   171   180   am
    13   171   172    2
    14   163   162    1
    15   180   181    1
    16   156   155    2
    17   155   154    1
    18   183   182    2
    19    72    71    2
    20   161   162    1
    21     1     2    1
    22   162   165    1
    23   182   181    1
    24   181   184    1
    25    71    70    1
    26    64    63    2
    27   154   153    1
    28   154   157    1
    29     5     2    1
    30     2     3    1
    31   153   147   am
    32    70    69    1
    33    70    73    1
    34   148   147    2
    35   165   166    1
    36     3     4    2
    37   157   158    1
    38    63    69   am
    39    63    62    1
    40   147   146    1
    41   145   146    1
    42   188   187    2
    43   185   186    1
    44    35    33   ar
    45    35    36   ar
    46   191   189    1
    47   146   149    1
    48    73    74    1
    49   166   167    1
    50   166   168    1
    51    62    61    1
    52    62    65    1
    53   160   158    1
    54    33    31   ar
    55    68    66    1
    56   158   159    1
    57   187   186    1
    58   186   189    1
    59     6     7    1
    60    36    34   ar
    61    65    66    1
    62   189   190    1
    63   149   150    1
    64    66    67    1
    65    31    30    1
    66    31    32   ar
    67    29    28    2
    68    81    80    1
    69    10     7    1
    70     7     8    1
    71    34    32   ar
    72    18    16   am
    73    30    27    1
    74    27    28    1
    75    27    26    1
    76    22    21    2
    77   150   151    1
    78   150   152    1
    79    56    55    2
    80    11     8   am
    81    11    12    1
    82     8     9    2
    83    80    82    1
    84    80    79    1
    85    14    13    2
    86    16    15    1
    87    16    17    2
    88    15    12    1
    89    21    26   am
    90    21    20    1
    91    24    23    1
    92    55    54    1
    93    12    13    1
    94    79    76    1
    95    48    47    2
    96   144   142    1
    97    20    23    1
    98    20    19    1
    99    54    53    1
   100    54    57    1
   101    75    76    1
   102    59    57    1
   103    23    25    1
   104    47    53   am
   105    47    46    1
   106    76    77    1
   107    60    58    1
   108   137   135    1
   109   142   143    1
   110   142   139    1
   111    57    58    1
   112    77    78    2
   113    46    49    1
   114    46    45    1
   115   141   140    2
   116   129   128   ar
   117   140   139    1
   118   135   132    1
   119   135   136    1
   120   139   138    1
   121   132   131    1
   122   132   133    1
   123    49    50    1
   124   134   133    2
   125    51    50    2
   126   125   124    2
   127    50    52   am
   128   131   124   am
   129   121   118    1
   130   126   127    1
   131   126   123    1
   132   128   127    1
   133   128   130   ar
   134   124   123    1
   135   112   110   ar
   136   111   110   ar
   137   118   117    1
   138   118   119    1
   139   120   119    2
   140   110   109    1
   141   116   115    2
   142    89    87    1
   143   123   122    1
   144   117   115   am
   145    40    39    2
   146   115   114    1
   147    87    88    1
   148    87    84    1
   149   109   106    1
   150   114   113    1
   151   108   107    2
   152    39    38    1
   153   106   107    1
   154   106   105    1
   155    83    84    1
   156    84    85    1
   157    38    37    1
   158    38    41    1
   159   105   100   am
   160   101   100    2
   161   104   102    1
   162   100    99    1
   163    85    86    2
   164    44    42    1
   165    41    42    1
   166   102    99    1
   167   102   103    1
   168    96    97    1
   169    96    95    1
   170    42    43    1
   171    99    98    1
   172    95    94    1
   173    94    91    1
   174    90    91    1
   175    91    92    1
   176    92    93    2
