@<TRIPOS>MOLECULE
tmp/4nz5A00.pdb
 151 146 0 0 0
SMALL
GASTEIGER

@<TRIPOS>ATOM
      1  N        -16.0340   46.2860  -25.9930 N.3    12  ASP12      -0.1239
      2  CA       -16.3470   47.0050  -24.7450 C.3    12  ASP12       0.1674
      3  C        -17.8260   47.0690  -24.3560 C.2    12  ASP12       0.2266
      4  O        -18.1610   47.6000  -23.2980 O.2    12  ASP12      -0.2867
      5  CB       -15.7260   48.4190  -24.7240 C.3    12  ASP12       0.1410
      6  CG       -14.2080   48.3910  -24.7470 C.2    12  ASP12       0.3668
      7  OD1      -13.6630   47.3740  -25.1950 O.co2  12  ASP12      -0.2456
      8  OD2      -13.5670   49.3810  -24.3290 O.co2  12  ASP12      -0.2456
      9  N        -17.2820   42.9770  -22.2520 N.3    37  ASN37      -0.1240
     10  CA       -16.8750   43.0490  -20.8450 C.3    37  ASN37       0.1653
     11  C        -18.1180   43.0220  -19.9680 C.2    37  ASN37       0.2266
     12  O        -18.9090   43.9630  -19.9830 O.2    37  ASN37      -0.2867
     13  CB       -16.1270   44.3520  -20.5480 C.3    37  ASN37       0.1155
     14  CG       -14.9470   44.5760  -21.4650 C.2    37  ASN37       0.2627
     15  OD1      -14.9020   45.5590  -22.2110 O.2    37  ASN37      -0.2716
     16  ND2      -13.9770   43.6710  -21.4100 N.am   37  ASN37      -0.0877
     17  N        -18.6720   43.4810  -16.9240 N.3    39  TRP39      -0.1227
     18  CA       -18.8400   44.3660  -15.7740 C.3    39  TRP39       0.1737
     19  C        -19.9730   45.3680  -16.0250 C.2    39  TRP39       0.2595
     20  O        -20.6130   45.8470  -15.0880 O.2    39  TRP39      -0.2718
     21  CB       -17.5320   45.0530  -15.3640 C.3    39  TRP39       0.0564
     22  CG       -16.9320   46.0130  -16.3400 C.ar   39  TRP39       0.0003
     23  CD1      -17.0390   45.9990  -17.7040 C.ar   39  TRP39       0.0946
     24  CD2      -16.1040   47.1300  -16.0150 C.ar   39  TRP39       0.0152
     25  NE1      -16.3250   47.0420  -18.2440 N.ar   39  TRP39      -0.2442
     26  CE2      -15.7440   47.7550  -17.2250 C.ar   39  TRP39       0.0810
     27  CE3      -15.6310   47.6680  -14.8100 C.ar   39  TRP39       0.0012
     28  CZ2      -14.9370   48.8920  -17.2690 C.ar   39  TRP39       0.0191
     29  CZ3      -14.8290   48.7960  -14.8530 C.ar   39  TRP39       0.0001
     30  CH2      -14.4890   49.3960  -16.0740 C.ar   39  TRP39       0.0015
     31  N        -20.2640   45.6410  -17.2910 N.am   40  HIS40      -0.1975
     32  CA       -21.3510   46.5590  -17.6160 C.3    40  HIS40       0.1656
     33  C        -22.6990   46.0140  -17.1500 C.2    40  HIS40       0.2291
     34  O        -23.6070   46.7830  -16.8470 O.2    40  HIS40      -0.2864
     35  CB       -21.3810   46.8560  -19.1160 C.3    40  HIS40       0.0771
     36  CG       -20.1660   47.5740  -19.6100 C.ar   40  HIS40       0.0820
     37  ND1      -19.8090   48.8320  -19.1680 N.ar   40  HIS40      -0.2267
     38  CD2      -19.2210   47.2120  -20.5110 C.ar   40  HIS40       0.1154
     39  CE1      -18.6960   49.2090  -19.7690 C.ar   40  HIS40       0.1986
     40  NE2      -18.3150   48.2430  -20.5870 N.ar   40  HIS40      -0.2212
     41  N        -19.2690   49.8140  -14.9040 N.3    45  GLY45      -0.1225
     42  CA       -18.3260   50.0700  -15.9800 C.3    45  GLY45       0.1811
     43  C        -18.2350   51.5210  -16.4420 C.2    45  GLY45       0.2280
     44  O        -17.5950   51.8110  -17.4550 O.2    45  GLY45      -0.2866
     45  N        -20.3570   53.5950  -17.8310 N.3    47  GLU47      -0.1245
     46  CA       -21.0130   53.9780  -19.0760 C.3    47  GLU47       0.1567
     47  C        -22.5190   53.9850  -18.8510 C.2    47  GLU47       0.2260
     48  O        -22.9960   53.5720  -17.7910 O.2    47  GLU47      -0.2867
     49  CB       -20.6720   53.0000  -20.2080 C.3    47  GLU47       0.0388
     50  CG       -19.1910   52.7680  -20.4220 C.3    47  GLU47       0.1160
     51  CD       -18.5070   53.8800  -21.1890 C.2    47  GLU47       0.3649
     52  OE1      -19.2050   54.7780  -21.7100 O.co2  47  GLU47      -0.2457
     53  OE2      -17.2600   53.8450  -21.2790 O.co2  47  GLU47      -0.2457
     54  N        -12.0800   44.5100  -18.2010 N.3    73  HIS73      -0.1241
     55  CA       -11.1680   45.2200  -19.0850 C.3    73  HIS73       0.1621
     56  C         -9.8540   45.5720  -18.3660 C.2    73  HIS73       0.2264
     57  O         -9.2130   46.5830  -18.6750 O.2    73  HIS73      -0.2867
     58  CB       -11.8400   46.4970  -19.5710 C.3    73  HIS73       0.0745
     59  CG       -11.3440   46.9740  -20.8910 C.ar   73  HIS73       0.0817
     60  ND1      -10.1920   47.7270  -21.0270 N.ar   73  HIS73      -0.2268
     61  CD2      -11.8340   46.8230  -22.1410 C.ar   73  HIS73       0.1154
     62  CE1       -9.9950   48.0030  -22.2950 C.ar   73  HIS73       0.1986
     63  NE2      -10.9840   47.4710  -22.9970 N.ar   73  HIS73      -0.2212
     64  N         -9.3570   46.7340  -15.5120 N.3    75  ILE75      -0.1245
     65  CA        -9.3860   47.9560  -14.7180 C.3    75  ILE75       0.1561
     66  C         -8.8820   47.6790  -13.3000 C.2    75  ILE75       0.2260
     67  O         -8.4070   48.5870  -12.6160 O.2    75  ILE75      -0.2867
     68  CB       -10.7860   48.6130  -14.7050 C.3    75  ILE75       0.0252
     69  CG1      -10.8710   49.6860  -15.7860 C.3    75  ILE75       0.0019
     70  CG2      -11.0820   49.2700  -13.3690 C.3    75  ILE75       0.0019
     71  CD1      -10.9520   49.1410  -17.1860 C.3    75  ILE75       0.0001
     72  N        -14.0720   51.9480  -12.4250 N.3    87  GLY87      -0.1225
     73  CA       -14.1440   52.3850  -13.8120 C.3    87  GLY87       0.1811
     74  C        -14.0800   53.9010  -13.9260 C.2    87  GLY87       0.2280
     75  O        -13.4030   54.4590  -14.7960 O.2    87  GLY87      -0.2866
     76  N        -11.0280   56.1690  -15.4140 N.3    91  ASN91      -0.1240
     77  CA       -11.4110   57.1560  -16.4180 C.3    91  ASN91       0.1653
     78  C        -10.9630   58.5620  -16.0130 C.2    91  ASN91       0.2266
     79  O        -10.6330   59.3850  -16.8640 O.2    91  ASN91      -0.2867
     80  CB       -12.9230   57.1200  -16.6740 C.3    91  ASN91       0.1155
     81  CG       -13.3180   56.0510  -17.6840 C.2    91  ASN91       0.2627
     82  OD1      -12.4930   55.6060  -18.4760 O.2    91  ASN91      -0.2716
     83  ND2      -14.5800   55.6430  -17.6640 N.am   91  ASN91      -0.0877
     84  N         -5.3890   53.6790  -18.1710 N.3    96  HIS96      -0.1241
     85  CA        -5.7710   52.3620  -18.6770 C.3    96  HIS96       0.1621
     86  C         -4.5810   51.5920  -19.2410 C.2    96  HIS96       0.2264
     87  O         -4.4220   50.3950  -18.9880 O.2    96  HIS96      -0.2867
     88  CB        -6.8400   52.5060  -19.7620 C.3    96  HIS96       0.0745
     89  CG        -8.0960   53.1650  -19.2860 C.ar   96  HIS96       0.0817
     90  ND1       -8.2910   54.5280  -19.3490 N.ar   96  HIS96      -0.2268
     91  CD2       -9.2170   52.6500  -18.7300 C.ar   96  HIS96       0.1154
     92  CE1       -9.4800   54.8230  -18.8570 C.ar   96  HIS96       0.1986
     93  NE2      -10.0620   53.7010  -18.4740 N.ar   96  HIS96      -0.2212
     94  N         -6.5600   46.4130  -24.9940 N.3   141  TYR141     -0.1241
     95  CA        -5.4230   47.2560  -25.3570 C.3   141  TYR141      0.1605
     96  C         -4.4900   46.6260  -26.3830 C.2   141  TYR141      0.2264
     97  O         -3.6390   47.3100  -26.9450 O.2   141  TYR141     -0.2867
     98  CB        -4.6050   47.6360  -24.1160 C.3   141  TYR141      0.0534
     99  CG        -5.4380   48.0520  -22.9290 C.ar  141  TYR141     -0.0201
    100  CD1       -6.2320   49.1920  -22.9750 C.ar  141  TYR141     -0.0009
    101  CD2       -5.4310   47.3070  -21.7590 C.ar  141  TYR141     -0.0009
    102  CE1       -6.9990   49.5770  -21.8870 C.ar  141  TYR141      0.0417
    103  CE2       -6.1960   47.6870  -20.6620 C.ar  141  TYR141      0.0417
    104  CZ        -6.9820   48.8210  -20.7380 C.ar  141  TYR141      0.1957
    105  OH        -7.7460   49.1990  -19.6560 O.3   141  TYR141     -0.2866
    106  N         -8.4620   63.0430  -31.6640 N.3   210  TRP210     -0.1241
    107  CA        -8.9130   62.8980  -30.2800 C.3   210  TRP210      0.1605
    108  C         -8.8230   64.1980  -29.4880 C.2   210  TRP210      0.2264
    109  O         -9.2960   64.2640  -28.3560 O.2   210  TRP210     -0.2867
    110  CB        -8.0900   61.8250  -29.5570 C.3   210  TRP210      0.0550
    111  CG        -8.5440   60.4220  -29.8170 C.ar  210  TRP210      0.0003
    112  CD1       -8.0090   59.5380  -30.7100 C.ar  210  TRP210      0.0946
    113  CD2       -9.6260   59.7370  -29.1730 C.ar  210  TRP210      0.0152
    114  NE1       -8.6910   58.3450  -30.6610 N.ar  210  TRP210     -0.2442
    115  CE2       -9.6880   58.4420  -29.7260 C.ar  210  TRP210      0.0810
    116  CE3      -10.5470   60.0940  -28.1820 C.ar  210  TRP210      0.0012
    117  CZ2      -10.6380   57.5010  -29.3230 C.ar  210  TRP210      0.0191
    118  CZ3      -11.4880   59.1560  -27.7790 C.ar  210  TRP210      0.0001
    119  CH2      -11.5250   57.8740  -28.3500 C.ar  210  TRP210      0.0015
    120  N        -15.5180   50.4830  -31.3980 N.3   267  HIS267     -0.1241
    121  CA       -16.1150   50.4410  -30.0640 C.3   267  HIS267      0.1621
    122  C        -17.5660   50.8840  -30.0830 C.2   267  HIS267      0.2264
    123  O        -17.8910   51.9270  -30.6540 O.2   267  HIS267     -0.2867
    124  CB       -15.3370   51.3400  -29.1010 C.3   267  HIS267      0.0745
    125  CG       -13.9220   50.9040  -28.8780 C.ar  267  HIS267      0.0817
    126  ND1      -12.9320   51.0780  -29.8200 N.ar  267  HIS267     -0.2268
    127  CD2      -13.3350   50.2900  -27.8240 C.ar  267  HIS267      0.1154
    128  CE1      -11.7940   50.5970  -29.3530 C.ar  267  HIS267      0.1986
    129  NE2      -12.0120   50.1130  -28.1440 N.ar  267  HIS267     -0.2212
    130  N        -19.2450   52.2820  -27.9200 N.3   269  PHE269     -0.1241
    131  CA       -19.4790   53.5780  -27.2880 C.3   269  PHE269      0.1605
    132  C        -19.1960   54.7740  -28.2100 C.2   269  PHE269      0.2264
    133  O        -19.5800   55.8950  -27.9010 O.2   269  PHE269     -0.2867
    134  CB       -18.7320   53.7080  -25.9440 C.3   269  PHE269      0.0534
    135  CG       -17.2220   53.6110  -26.0410 C.ar  269  PHE269     -0.0203
    136  CD1      -16.4910   54.4970  -26.8210 C.ar  269  PHE269     -0.0042
    137  CD2      -16.5330   52.6550  -25.3060 C.ar  269  PHE269     -0.0042
    138  CE1      -15.1110   54.4120  -26.8860 C.ar  269  PHE269     -0.0003
    139  CE2      -15.1480   52.5650  -25.3680 C.ar  269  PHE269     -0.0003
    140  CZ       -14.4370   53.4430  -26.1590 C.ar  269  PHE269     -0.0000
    141  N        -18.7200   61.4400  -25.1580 N.3   276  ARG276     -0.1245
    142  CA       -17.6450   61.4660  -26.1450 C.3   276  ARG276      0.1563
    143  C        -18.0330   62.2470  -27.3940 C.2   276  ARG276      0.2260
    144  O        -17.2110   62.4400  -28.3020 O.2   276  ARG276     -0.2867
    145  CB       -17.2580   60.0410  -26.5350 C.3   276  ARG276      0.0307
    146  CG       -16.6190   59.2450  -25.4060 C.3   276  ARG276      0.0489
    147  CD       -16.3320   57.8120  -25.8410 C.3   276  ARG276      0.2205
    148  NE       -15.7440   57.0090  -24.7680 N.pl3 276  ARG276     -0.0865
    149  CZ       -16.4380   56.3910  -23.8160 C.cat 276  ARG276      0.5346
    150  NH1      -17.7620   56.4740  -23.7780 N.pl3 276  ARG276      0.1354
    151  NH2      -15.8010   55.6810  -22.8970 N.pl3 276  ARG276      0.1354
@<TRIPOS>BOND
     1   106   107    1
     2   120   121    1
     3   112   114   ar
     4   112   111   ar
     5   114   115   ar
     6   123   122    2
     7   107   110    1
     8   107   108    1
     9   122   121    1
    10   121   124    1
    11   126   128   ar
    12   126   125   ar
    13   111   110    1
    14   111   113   ar
    15   115   117   ar
    16   115   113   ar
    17   108   109    2
    18   128   129   ar
    19   117   119   ar
    20   113   116   ar
    21   124   125    1
    22   125   127   ar
    23   119   118   ar
    24   144   143    2
    25   132   133    2
    26   132   131    1
    27   116   118   ar
    28   129   127   ar
    29   130   131    1
    30   143   142    1
    31   131   134    1
    32    97    96    2
    33   138   136   ar
    34   138   140   ar
    35   136   135   ar
    36   145   142    1
    37   145   146    1
    38    96    95    1
    39   140   139   ar
    40   142   141    1
    41   135   134    1
    42   135   137   ar
    43     1     2    1
    44   147   146    1
    45   147   148    1
    46   139   137   ar
    47    95    94    1
    48    95    98    1
    49     7     6   ar
    50   148   149    2
    51     6     5    1
    52     6     8   ar
    53     2     5    1
    54     2     3    1
    55     3     4    2
    56    98    99    1
    57   149   150    1
    58   149   151    1
    59    63    62   ar
    60    63    61   ar
    61   100    99   ar
    62   100   102   ar
    63    99   101   ar
    64    62    60   ar
    65     9    10    1
    66    15    14    2
    67    61    59   ar
    68   102   104   ar
    69   101   103   ar
    70    52    51   ar
    71    14    16   am
    72    14    13    1
    73    53    51   ar
    74    51    50    1
    75    60    59   ar
    76    59    58    1
    77    10    13    1
    78    10    11    1
    79   104   103   ar
    80   104   105    1
    81    40    38   ar
    82    40    39   ar
    83    38    36   ar
    84    50    49    1
    85    49    46    1
    86    12    11    2
    87    39    37   ar
    88    88    89    1
    89    88    85    1
    90    36    37   ar
    91    36    35    1
    92    58    55    1
    93    90    89   ar
    94    90    92   ar
    95    89    91   ar
    96    86    87    2
    97    86    85    1
    98    35    32    1
    99    55    56    1
   100    55    54    1
   101    46    47    1
   102    46    45    1
   103    92    93   ar
   104    47    48    2
   105    91    93   ar
   106    85    84    1
   107    57    56    2
   108    82    81    2
   109    25    23   ar
   110    25    26   ar
   111    23    22   ar
   112    81    83   am
   113    81    80    1
   114    32    31    1
   115    32    33    1
   116    44    43    2
   117    31    19   am
   118    28    26   ar
   119    28    30   ar
   120    26    24   ar
   121    71    69    1
   122    33    34    2
   123    17    18    1
   124    79    78    2
   125    80    77    1
   126    43    42    1
   127    77    78    1
   128    77    76    1
   129    22    24   ar
   130    22    21    1
   131    30    29   ar
   132    19    18    1
   133    19    20    2
   134    24    27   ar
   135    42    41    1
   136    69    68    1
   137    18    21    1
   138    64    65    1
   139    29    27   ar
   140    75    74    2
   141    65    68    1
   142    65    66    1
   143    68    70    1
   144    74    73    1
   145    73    72    1
   146    66    67    2
