@<TRIPOS>MOLECULE
tmp/4nz6B00.pdb
 118 116 0 0 0
SMALL
GASTEIGER

@<TRIPOS>ATOM
      1  N        -24.3260   34.6300   14.7150 N.3    59  ARG59      -0.1231
      2  CA       -25.5170   35.2950   15.2190 C.3    59  ARG59       0.1694
      3  C        -26.7240   34.8850   14.3900 C.2    59  ARG59       0.2593
      4  O        -27.2330   35.6720   13.5940 O.2    59  ARG59      -0.2718
      5  CB       -25.3330   36.8120   15.1740 C.3    59  ARG59       0.0321
      6  CG       -24.3160   37.3400   16.1720 C.3    59  ARG59       0.0489
      7  CD       -23.9730   38.7920   15.8880 C.3    59  ARG59       0.2205
      8  NE       -25.1600   39.5750   15.5590 N.pl3  59  ARG59      -0.0865
      9  CZ       -25.9470   40.1570   16.4570 C.cat  59  ARG59       0.5346
     10  NH1      -25.6750   40.0460   17.7500 N.pl3  59  ARG59       0.1354
     11  NH2      -27.0070   40.8490   16.0630 N.pl3  59  ARG59       0.1354
     12  N        -27.1720   33.6460   14.5740 N.am   60  THR60      -0.1939
     13  CA       -28.2880   33.1180   13.7980 C.3    60  THR60       0.2028
     14  C        -29.5630   33.9080   14.0720 C.2    60  THR60       0.2642
     15  O        -29.8640   34.2420   15.2170 O.2    60  THR60      -0.2714
     16  CB       -28.5180   31.6120   14.0600 C.3    60  THR60       0.1808
     17  OG1      -28.7900   31.3960   15.4500 O.3    60  THR60      -0.2208
     18  CG2      -27.2910   30.8060   13.6550 C.3    60  THR60       0.0379
     19  N        -30.2990   34.2120   13.0090 N.am   61  ASP61      -0.1971
     20  CA       -31.4840   35.0540   13.1140 C.3    61  ASP61       0.1709
     21  C        -32.6920   34.2510   13.5840 C.2    61  ASP61       0.2293
     22  O        -32.5840   33.0640   13.8930 O.2    61  ASP61      -0.2864
     23  CB       -31.7790   35.7250   11.7680 C.3    61  ASP61       0.1436
     24  CG       -32.5630   37.0200   11.9160 C.2    61  ASP61       0.3671
     25  OD1      -33.2540   37.1880   12.9440 O.co2  61  ASP61      -0.2456
     26  OD2      -32.4920   37.8670   11.0010 O.co2  61  ASP61      -0.2456
     27  N        -33.8760   30.4920   12.5790 N.3    64  VAL64      -0.1245
     28  CA       -32.7220   29.8010   12.0070 C.3    64  VAL64       0.1561
     29  C        -32.1860   28.7160   12.9400 C.2    64  VAL64       0.2260
     30  O        -32.0210   28.9420   14.1390 O.2    64  VAL64      -0.2867
     31  CB       -31.5890   30.7940   11.6710 C.3    64  VAL64       0.0252
     32  CG1      -30.3660   30.0600   11.1300 C.3    64  VAL64       0.0019
     33  CG2      -32.0780   31.8370   10.6760 C.3    64  VAL64       0.0019
     34  N        -23.3820   27.1680    5.7800 N.3   116  TYR116     -0.1241
     35  CA       -24.8100   27.0360    6.0280 C.3   116  TYR116      0.1605
     36  C        -25.4480   26.1870    4.9430 C.2   116  TYR116      0.2264
     37  O        -24.9140   26.0650    3.8420 O.2   116  TYR116     -0.2867
     38  CB       -25.4870   28.4060    6.0110 C.3   116  TYR116      0.0534
     39  CG       -25.2900   29.2520    7.2470 C.ar  116  TYR116     -0.0201
     40  CD1      -24.1310   29.9950    7.4300 C.ar  116  TYR116     -0.0009
     41  CD2      -26.2840   29.3370    8.2160 C.ar  116  TYR116     -0.0009
     42  CE1      -23.9590   30.7850    8.5500 C.ar  116  TYR116      0.0417
     43  CE2      -26.1200   30.1220    9.3400 C.ar  116  TYR116      0.0417
     44  CZ       -24.9530   30.8420    9.5020 C.ar  116  TYR116      0.1957
     45  OH       -24.7840   31.6290   10.6180 O.3   116  TYR116     -0.2866
     46  N        -20.8980   36.4400    7.2810 N.3   204  PHE204     -0.1227
     47  CA       -22.1730   36.8520    6.7050 C.3   204  PHE204      0.1736
     48  C        -22.7790   38.0280    7.4590 C.2   204  PHE204      0.2595
     49  O        -22.7400   38.0760    8.6860 O.2   204  PHE204     -0.2718
     50  CB       -23.1610   35.6840    6.6940 C.3   204  PHE204      0.0547
     51  CG       -22.7180   34.5210    5.8530 C.ar  204  PHE204     -0.0202
     52  CD1      -22.9300   34.5190    4.4850 C.ar  204  PHE204     -0.0042
     53  CD2      -22.0980   33.4260    6.4320 C.ar  204  PHE204     -0.0042
     54  CE1      -22.5300   33.4480    3.7070 C.ar  204  PHE204     -0.0003
     55  CE2      -21.6940   32.3530    5.6600 C.ar  204  PHE204     -0.0003
     56  CZ       -21.9110   32.3640    4.2960 C.ar  204  PHE204     -0.0000
     57  N        -23.3400   38.9750    6.7140 N.am  205  MET205     -0.1965
     58  CA       -24.0520   40.0940    7.3140 C.3   205  MET205      0.1736
     59  C        -25.5000   39.7060    7.5820 C.2   205  MET205      0.2616
     60  O        -25.9530   38.6370    7.1730 O.2   205  MET205     -0.2715
     61  CB       -23.9980   41.3200    6.4010 C.3   205  MET205      0.0427
     62  CG       -22.6130   41.9280    6.2600 C.3   205  MET205      0.0599
     63  SD       -22.5810   43.2800    5.0680 S.3   205  MET205     -0.1393
     64  CE       -23.1560   42.4360    3.5970 C.3   205  MET205      0.0692
     65  N        -26.2180   40.5820    8.2740 N.am  206  MET206     -0.1963
     66  CA       -27.6170   40.3490    8.6060 C.3   206  MET206      0.1736
     67  C        -28.4640   40.1440    7.3490 C.2   206  MET206      0.2616
     68  O        -28.3570   40.9110    6.3930 O.2   206  MET206     -0.2715
     69  CB       -28.1540   41.5190    9.4330 C.3   206  MET206      0.0427
     70  CG       -29.6360   41.4520    9.7450 C.3   206  MET206      0.0599
     71  SD       -30.1580   42.8060   10.8150 S.3   206  MET206     -0.1393
     72  CE       -29.4180   44.2040    9.9740 C.3   206  MET206      0.0692
     73  N        -29.2780   39.0900    7.3580 N.am  207  HIS207     -0.1959
     74  CA       -30.2010   38.7650    6.2640 C.3   207  HIS207      0.1787
     75  C        -29.5240   38.3760    4.9460 C.2   207  HIS207      0.2620
     76  O        -30.2060   38.1510    3.9460 O.2   207  HIS207     -0.2715
     77  CB       -31.1870   39.9140    6.0110 C.3   207  HIS207      0.0785
     78  CG       -31.8990   40.3870    7.2400 C.ar  207  HIS207      0.0821
     79  ND1      -32.2900   41.6980    7.4130 N.ar  207  HIS207     -0.2267
     80  CD2      -32.2960   39.7260    8.3530 C.ar  207  HIS207      0.1154
     81  CE1      -32.8940   41.8240    8.5820 C.ar  207  HIS207      0.1986
     82  NE2      -32.9110   40.6420    9.1710 N.ar  207  HIS207     -0.2212
     83  N        -28.1960   38.2810    4.9440 N.am  208  GLN208     -0.1963
     84  CA       -27.4510   38.0890    3.6980 C.3   208  GLN208      0.1733
     85  C        -27.7920   36.8100    2.9300 C.2   208  GLN208      0.2616
     86  O        -28.1670   36.8680    1.7600 O.2   208  GLN208     -0.2715
     87  CB       -25.9410   38.1680    3.9310 C.3   208  GLN208      0.0408
     88  CG       -25.1360   37.9380    2.6610 C.3   208  GLN208      0.0908
     89  CD       -23.6430   38.0760    2.8710 C.2   208  GLN208      0.2608
     90  OE1      -23.1920   38.6170    3.8800 O.2   208  GLN208     -0.2717
     91  NE2      -22.8640   37.5830    1.9130 N.am  208  GLN208     -0.0878
     92  N        -27.6530   35.6620    3.5860 N.am  209  ILE209     -0.1963
     93  CA       -27.9050   34.3750    2.9420 C.3   209  ILE209      0.1727
     94  C        -29.3410   34.2530    2.4410 C.2   209  ILE209      0.2616
     95  O        -29.5830   33.8160    1.3150 O.2   209  ILE209     -0.2715
     96  CB       -27.6080   33.2020    3.8920 C.3   209  ILE209      0.0290
     97  CG1      -26.1320   33.2090    4.2910 C.3   209  ILE209      0.0022
     98  CG2      -27.9680   31.8760    3.2370 C.3   209  ILE209      0.0023
     99  CD1      -25.7490   32.0770    5.2080 C.3   209  ILE209      0.0001
    100  N        -30.2890   34.6480    3.2810 N.am  210  ARG210     -0.1977
    101  CA       -31.7010   34.5510    2.9330 C.3   210  ARG210      0.1597
    102  C        -32.0770   35.4730    1.7740 C.2   210  ARG210      0.2287
    103  O        -32.9820   35.1680    0.9990 O.2   210  ARG210     -0.2864
    104  CB       -32.5720   34.8270    4.1590 C.3   210  ARG210      0.0334
    105  CG       -32.5730   33.6860    5.1650 C.3   210  ARG210      0.0492
    106  CD       -32.6410   34.2030    6.5890 C.3   210  ARG210      0.2205
    107  NE       -33.8420   34.9900    6.8430 N.pl3 210  ARG210     -0.0865
    108  CZ       -33.9580   35.8620    7.8380 C.cat 210  ARG210      0.5346
    109  NH1      -32.9390   36.0640    8.6630 N.pl3 210  ARG210      0.1354
    110  NH2      -35.0850   36.5390    8.0050 N.pl3 210  ARG210      0.1354
    111  N        -33.0500   27.7700    7.0060 N.3   248  LEU248     -0.1245
    112  CA       -31.6220   28.0350    7.1620 C.3   248  LEU248      0.1561
    113  C        -31.0130   27.2670    8.3330 C.2   248  LEU248      0.2260
    114  O        -31.5270   27.3100    9.4500 O.2   248  LEU248     -0.2867
    115  CB       -31.3670   29.5350    7.3220 C.3   248  LEU248      0.0270
    116  CG       -29.8980   29.9670    7.3290 C.3   248  LEU248      0.0019
    117  CD1      -29.2040   29.5390    6.0430 C.3   248  LEU248      0.0001
    118  CD2      -29.7810   31.4700    7.5270 C.3   248  LEU248      0.0001
@<TRIPOS>BOND
     1   103   102    2
     2    95    94    2
     3    86    85    2
     4   102   101    1
     5    91    89   am
     6    94    93    1
     7    94   100   am
     8    88    89    1
     9    88    87    1
    10    89    90    2
    11    85    92   am
    12    85    84    1
    13   101   100    1
    14   101   104    1
    15    93    92    1
    16    93    96    1
    17    98    96    1
    18    64    63    1
    19    84    87    1
    20    84    83    1
    21    54    56   ar
    22    54    52   ar
    23    37    36    2
    24    96    97    1
    25    76    75    2
    26   104   105    1
    27    97    99    1
    28    56    55   ar
    29    52    51   ar
    30    36    35    1
    31    83    75   am
    32    75    74    1
    33    63    62    1
    34   105   106    1
    35    55    53   ar
    36    34    35    1
    37    51    53   ar
    38    51    50    1
    39    38    35    1
    40    38    39    1
    41    77    74    1
    42    77    78    1
    43   117   116    1
    44    62    61    1
    45    74    73    1
    46    68    67    2
    47    61    58    1
    48   106   107    1
    49    50    47    1
    50    47    46    1
    51    47    48    1
    52    57    58    1
    53    57    48   am
    54   107   108    2
    55   111   112    1
    56   112   115    1
    57   112   113    1
    58    60    59    2
    59    78    79   ar
    60    78    80   ar
    61    39    40   ar
    62    39    41   ar
    63    58    59    1
    64   115   116    1
    65   116   118    1
    66    67    73   am
    67    67    66    1
    68    79    81   ar
    69    40    42   ar
    70    48    49    2
    71    59    65   am
    72   108   110    1
    73   108   109    1
    74    41    43   ar
    75    65    66    1
    76   113   114    2
    77    80    82   ar
    78    42    44   ar
    79    81    82   ar
    80    66    69    1
    81    43    44   ar
    82    69    70    1
    83    44    45    1
    84    70    71    1
    85    72    71    1
    86    33    31    1
    87    26    24   ar
    88    32    31    1
    89    31    28    1
    90    23    24    1
    91    23    20    1
    92    24    25   ar
    93    28    27    1
    94    28    29    1
    95    29    30    2
    96    19    20    1
    97    19    14   am
    98    20    21    1
    99    21    22    2
   100     4     3    2
   101    18    16    1
   102    13    16    1
   103    13    14    1
   104    13    12    1
   105    16    17    1
   106    14    15    2
   107     3    12   am
   108     3     2    1
   109     1     2    1
   110     5     2    1
   111     5     6    1
   112     8     7    1
   113     8     9    2
   114     7     6    1
   115    11     9    1
   116     9    10    1
