@<TRIPOS>MOLECULE
tmp/4nz6A01.pdb
 132 129 0 0 0
SMALL
GASTEIGER

@<TRIPOS>ATOM
      1  N        -20.2140   -4.4910   15.9510 N.3    56  ALA56      -0.1231
      2  CA       -21.2430   -3.9890   15.0530 C.3    56  ALA56       0.1694
      3  C        -22.4470   -3.4580   15.8160 C.2    56  ALA56       0.2592
      4  O        -23.1330   -4.2030   16.5160 O.2    56  ALA56      -0.2718
      5  CB       -21.6720   -5.0730   14.0800 C.3    56  ALA56       0.0304
      6  N        -22.6950   -2.1610   15.6770 N.am   57  ARG57      -0.1966
      7  CA       -23.8870   -1.5500   16.2420 C.3    57  ARG57       0.1729
      8  C        -25.0620   -1.7840   15.3080 C.2    57  ARG57       0.2617
      9  O        -25.5050   -0.8690   14.6130 O.2    57  ARG57      -0.2715
     10  CB       -23.6680   -0.0530   16.4580 C.3    57  ARG57       0.0348
     11  CG       -22.7210    0.2580   17.6010 C.3    57  ARG57       0.0492
     12  CD       -22.1000    1.6350   17.4570 C.3    57  ARG57       0.2205
     13  NE       -21.1580    1.9130   18.5370 N.pl3  57  ARG57      -0.0865
     14  CZ       -19.9180    1.4370   18.5870 C.cat  57  ARG57       0.5346
     15  NH1      -19.4630    0.6540   17.6180 N.pl3  57  ARG57       0.1354
     16  NH2      -19.1310    1.7420   19.6100 N.pl3  57  ARG57       0.1354
     17  N        -25.5530   -3.0200   15.2870 N.am   58  THR58      -0.1937
     18  CA       -26.6680   -3.3840   14.4220 C.3    58  THR58       0.2028
     19  C        -27.9020   -2.5570   14.7600 C.2    58  THR58       0.2642
     20  O        -28.1950   -2.3080   15.9300 O.2    58  THR58      -0.2714
     21  CB       -26.9990   -4.8860   14.5110 C.3    58  THR58       0.1808
     22  OG1      -27.3000   -5.2350   15.8670 O.3    58  THR58      -0.2208
     23  CG2      -25.8200   -5.7160   14.0260 C.3    58  THR58       0.0379
     24  N        -28.6140   -2.1240   13.7250 N.am   59  ASP59      -0.1971
     25  CA       -29.7490   -1.2290   13.9000 C.3    59  ASP59       0.1709
     26  C        -30.9900   -1.9750   14.3820 C.2    59  ASP59       0.2293
     27  O        -30.9680   -3.1920   14.5700 O.2    59  ASP59      -0.2864
     28  CB       -30.0480   -0.4900   12.5920 C.3    59  ASP59       0.1436
     29  CG       -30.6760    0.8730   12.8210 C.2    59  ASP59       0.3671
     30  OD1      -31.2310    1.1000   13.9180 O.co2  59  ASP59      -0.2456
     31  OD2      -30.6170    1.7170   11.9030 O.co2  59  ASP59      -0.2456
     32  N        -32.4310   -5.5230   13.0840 N.3    62  VAL62      -0.1245
     33  CA       -31.3720   -6.2460   12.3840 C.3    62  VAL62       0.1561
     34  C        -30.8610   -7.4260   13.2100 C.2    62  VAL62       0.2260
     35  O        -30.6000   -7.2910   14.4060 O.2    62  VAL62      -0.2867
     36  CB       -30.2000   -5.3070   12.0310 C.3    62  VAL62       0.0252
     37  CG1      -29.0630   -6.0810   11.3730 C.3    62  VAL62       0.0019
     38  CG2      -30.6820   -4.1860   11.1230 C.3    62  VAL62       0.0019
     39  N        -13.9820   -3.7100   18.5940 N.3   106  LYS106     -0.1245
     40  CA       -14.4590   -2.7550   17.5960 C.3   106  LYS106      0.1561
     41  C        -13.3030   -2.1100   16.8330 C.2   106  LYS106      0.2260
     42  O        -13.3980   -1.8730   15.6290 O.2   106  LYS106     -0.2867
     43  CB       -15.3200   -1.6770   18.2650 C.3   106  LYS106      0.0271
     44  CG       -15.6250   -0.4640   17.3990 C.3   106  LYS106      0.0035
     45  CD       -16.5320   -0.8150   16.2320 C.3   106  LYS106      0.0206
     46  CE       -16.8740    0.4230   15.4170 C.3   106  LYS106      0.1093
     47  NZ       -17.8010    0.1130   14.2930 N.3   106  LYS106     -0.1314
     48  N        -22.3870   -9.3280    5.5760 N.3   114  TYR114     -0.1241
     49  CA       -23.8070   -9.3580    5.8920 C.3   114  TYR114      0.1605
     50  C        -24.5530  -10.1440    4.8290 C.2   114  TYR114      0.2264
     51  O        -24.0970  -10.2560    3.6910 O.2   114  TYR114     -0.2867
     52  CB       -24.3870   -7.9450    5.9220 C.3   114  TYR114      0.0534
     53  CG       -24.0360   -7.1260    7.1400 C.ar  114  TYR114     -0.0201
     54  CD1      -22.7830   -6.5440    7.2710 C.ar  114  TYR114     -0.0009
     55  CD2      -24.9710   -6.9070    8.1440 C.ar  114  TYR114     -0.0009
     56  CE1      -22.4630   -5.7830    8.3740 C.ar  114  TYR114      0.0417
     57  CE2      -24.6600   -6.1480    9.2540 C.ar  114  TYR114      0.0417
     58  CZ       -23.4030   -5.5870    9.3630 C.ar  114  TYR114      0.1957
     59  OH       -23.0800   -4.8280   10.4640 O.3   114  TYR114     -0.2866
     60  N        -18.9010   -0.3160    6.8730 N.3   202  PHE202     -0.1227
     61  CA       -20.1940    0.1690    6.4050 C.3   202  PHE202      0.1736
     62  C        -20.6450    1.4100    7.1640 C.2   202  PHE202      0.2595
     63  O        -20.3960    1.5450    8.3610 O.2   202  PHE202     -0.2718
     64  CB       -21.2570   -0.9260    6.5350 C.3   202  PHE202      0.0547
     65  CG       -21.0370   -2.1010    5.6240 C.ar  202  PHE202     -0.0202
     66  CD1      -21.4400   -2.0520    4.3000 C.ar  202  PHE202     -0.0042
     67  CD2      -20.4390   -3.2590    6.0950 C.ar  202  PHE202     -0.0042
     68  CE1      -21.2440   -3.1310    3.4590 C.ar  202  PHE202     -0.0003
     69  CE2      -20.2410   -4.3430    5.2580 C.ar  202  PHE202     -0.0003
     70  CZ       -20.6460   -4.2780    3.9370 C.ar  202  PHE202     -0.0000
     71  N        -21.3130    2.3160    6.4580 N.am  203  MET203     -0.1965
     72  CA       -21.9170    3.4800    7.0920 C.3   203  MET203      0.1736
     73  C        -23.3570    3.1660    7.4790 C.2   203  MET203      0.2616
     74  O        -23.9050    2.1390    7.0770 O.2   203  MET203     -0.2715
     75  CB       -21.8750    4.6880    6.1560 C.3   203  MET203      0.0427
     76  CG       -20.4710    5.1620    5.8250 C.3   203  MET203      0.0599
     77  SD       -20.4660    6.5320    4.6560 S.3   203  MET203     -0.1393
     78  CE       -21.2360    5.7660    3.2380 C.3   203  MET203      0.0692
     79  N        -23.9600    4.0520    8.2640 N.am  204  MET204     -0.1963
     80  CA       -25.3480    3.8940    8.6780 C.3   204  MET204      0.1736
     81  C        -26.2710    3.8360    7.4660 C.2   204  MET204      0.2616
     82  O        -26.1570    4.6580    6.5560 O.2   204  MET204     -0.2715
     83  CB       -25.7580    5.0460    9.5970 C.3   204  MET204      0.0427
     84  CG       -27.2070    5.0080   10.0430 C.3   204  MET204      0.0599
     85  SD       -27.6420    6.4450   11.0410 S.3   204  MET204     -0.1393
     86  CE       -26.4410    6.3070   12.3630 C.3   204  MET204      0.0692
     87  N        -27.1620    2.8450    7.4600 N.am  205  HIS205     -0.1959
     88  CA       -28.1570    2.6510    6.3990 C.3   205  HIS205      0.1787
     89  C        -27.5790    2.2240    5.0490 C.2   205  HIS205      0.2620
     90  O        -28.3190    2.1180    4.0720 O.2   205  HIS205     -0.2715
     91  CB       -29.0230    3.9040    6.2050 C.3   205  HIS205      0.0785
     92  CG       -29.6800    4.3920    7.4570 C.ar  205  HIS205      0.0821
     93  ND1      -29.9640    3.5650    8.5220 N.ar  205  HIS205     -0.2267
     94  CD2      -30.1090    5.6260    7.8150 C.ar  205  HIS205      0.1154
     95  CE1      -30.5420    4.2670    9.4810 C.ar  205  HIS205      0.1986
     96  NE2      -30.6400    5.5210    9.0770 N.ar  205  HIS205     -0.2212
     97  N        -26.2740    1.9700    4.9900 N.am  206  GLN206     -0.1963
     98  CA       -25.6120    1.7140    3.7080 C.3   206  GLN206      0.1733
     99  C        -26.1380    0.4910    2.9610 C.2   206  GLN206      0.2616
    100  O        -26.5270    0.5910    1.7990 O.2   206  GLN206     -0.2715
    101  CB       -24.0900    1.6220    3.8640 C.3   206  GLN206      0.0408
    102  CG       -23.3690    1.3970    2.5410 C.3   206  GLN206      0.0908
    103  CD       -21.8610    1.3420    2.6840 C.2   206  GLN206      0.2608
    104  OE1      -21.3020    1.7940    3.6830 O.2   206  GLN206     -0.2717
    105  NE2      -21.1930    0.7840    1.6800 N.am  206  GLN206     -0.0878
    106  N        -26.1460   -0.6580    3.6260 N.am  207  ILE207     -0.1963
    107  CA       -26.5700   -1.8960    2.9850 C.3   207  ILE207      0.1727
    108  C        -28.0440   -1.8440    2.5940 C.2   207  ILE207      0.2616
    109  O        -28.4220   -2.2780    1.5060 O.2   207  ILE207     -0.2715
    110  CB       -26.3110   -3.1150    3.8880 C.3   207  ILE207      0.0290
    111  CG1      -24.8180   -3.2340    4.1910 C.3   207  ILE207      0.0022
    112  CG2      -26.8130   -4.3890    3.2250 C.3   207  ILE207      0.0023
    113  CD1      -24.4780   -4.3760    5.1070 C.3   207  ILE207      0.0001
    114  N        -28.8680   -1.2980    3.4820 N.am  208  ARG208     -0.1977
    115  CA       -30.2990   -1.1630    3.2270 C.3   208  ARG208      0.1597
    116  C        -30.5700   -0.2820    2.0100 C.2   208  ARG208      0.2287
    117  O        -31.5070   -0.5240    1.2510 O.2   208  ARG208     -0.2864
    118  CB       -31.0070   -0.5870    4.4540 C.3   208  ARG208      0.0334
    119  CG       -30.9370   -1.4690    5.6890 C.3   208  ARG208      0.0492
    120  CD       -31.4040   -0.7170    6.9240 C.3   208  ARG208      0.2205
    121  NE       -32.7880   -0.2670    6.8020 N.pl3 208  ARG208     -0.0865
    122  CZ       -33.3950    0.5230    7.6810 C.cat 208  ARG208      0.5346
    123  NH1      -32.7380    0.9570    8.7480 N.pl3 208  ARG208      0.1354
    124  NH2      -34.6580    0.8820    7.4930 N.pl3 208  ARG208      0.1354
    125  N        -31.9570   -7.9870    7.1080 N.3   246  LEU246     -0.1245
    126  CA       -30.5210   -7.7790    7.2730 C.3   246  LEU246      0.1561
    127  C        -29.9340   -8.6050    8.4140 C.2   246  LEU246      0.2260
    128  O        -30.4230   -8.5640    9.5440 O.2   246  LEU246     -0.2867
    129  CB       -30.2150   -6.2960    7.4830 C.3   246  LEU246      0.0270
    130  CG       -28.7330   -5.9220    7.5010 C.3   246  LEU246      0.0019
    131  CD1      -28.0650   -6.3070    6.1870 C.3   246  LEU246      0.0001
    132  CD2      -28.5610   -4.4380    7.7850 C.3   246  LEU246      0.0001
@<TRIPOS>BOND
     1   117   116    2
     2   109   108    2
     3   105   103   am
     4   100    99    2
     5   116   115    1
     6   102   103    1
     7   102   101    1
     8   108   107    1
     9   108   114   am
    10   103   104    2
    11    99   106   am
    12    99    98    1
    13   107   106    1
    14   107   110    1
    15   112   110    1
    16   115   114    1
    17   115   118    1
    18    78    77    1
    19    68    70   ar
    20    68    66   ar
    21    51    50    2
    22    98   101    1
    23    98    97    1
    24   110   111    1
    25    70    69   ar
    26    90    89    2
    27   111   113    1
    28    66    65   ar
    29   118   119    1
    30    77    76    1
    31    50    49    1
    32    97    89   am
    33    89    88    1
    34    69    67   ar
    35    48    49    1
    36    65    67   ar
    37    65    64    1
    38   119   120    1
    39    76    75    1
    40    49    52    1
    41    52    53    1
    42    75    72    1
    43   131   130    1
    44    91    88    1
    45    91    92    1
    46    88    87    1
    47    61    64    1
    48    61    60    1
    49    61    62    1
    50    71    72    1
    51    71    62   am
    52    82    81    2
    53   121   120    1
    54   121   122    2
    55    74    73    2
    56    72    73    1
    57   125   126    1
    58    53    54   ar
    59    53    55   ar
    60    62    63    2
    61    54    56   ar
    62   126   129    1
    63   126   127    1
    64    92    94   ar
    65    92    93   ar
    66    87    81   am
    67    81    80    1
    68    73    79   am
    69   129   130    1
    70   124   122    1
    71   130   132    1
    72   122   123    1
    73    94    96   ar
    74    55    57   ar
    75    79    80    1
    76    56    58   ar
    77   127   128    2
    78    93    95   ar
    79    80    83    1
    80    96    95   ar
    81    57    58   ar
    82    58    59    1
    83    83    84    1
    84    84    85    1
    85    85    86    1
    86    38    36    1
    87    37    36    1
    88    31    29   ar
    89    36    33    1
    90    33    32    1
    91    33    34    1
    92    28    29    1
    93    28    25    1
    94    29    30   ar
    95    34    35    2
    96    24    25    1
    97    24    19   am
    98    25    26    1
    99    23    21    1
   100     5     2    1
   101    47    46    1
   102    26    27    2
   103    18    21    1
   104    18    19    1
   105    18    17    1
   106    21    22    1
   107     9     8    2
   108    19    20    2
   109     2     3    1
   110     2     1    1
   111    17     8   am
   112     8     7    1
   113    46    45    1
   114    42    41    2
   115     6     3   am
   116     6     7    1
   117     3     4    2
   118    45    44    1
   119     7    10    1
   120    10    11    1
   121    41    40    1
   122    44    43    1
   123    12    11    1
   124    12    13    1
   125    40    43    1
   126    40    39    1
   127    15    14    1
   128    13    14    2
   129    14    16    1
