@<TRIPOS>MOLECULE
tmp/4nz7A00.pdb
 100 97 0 0 0
SMALL
GASTEIGER

@<TRIPOS>ATOM
      1  N         -3.9810   20.2380  -12.6290 N.3    55  ALA55      -0.1231
      2  CA        -3.4940   21.2910  -13.5070 C.3    55  ALA55       0.1694
      3  C         -2.9590   22.5010  -12.7460 C.2    55  ALA55       0.2592
      4  O         -3.6900   23.1550  -12.0020 O.2    55  ALA55      -0.2718
      5  CB        -4.5870   21.7150  -14.4790 C.3    55  ALA55       0.0304
      6  N         -1.6800   22.7970  -12.9500 N.am   56  ARG56      -0.1966
      7  CA        -1.0730   23.9950  -12.3910 C.3    56  ARG56       0.1729
      8  C         -1.4430   25.2180  -13.2320 C.2    56  ARG56       0.2617
      9  O         -0.5800   25.8290  -13.8660 O.2    56  ARG56      -0.2715
     10  CB         0.4510   23.8480  -12.3210 C.3    56  ARG56       0.0348
     11  CG         0.9390   22.8500  -11.2900 C.3    56  ARG56       0.0492
     12  CD         2.4600   22.8570  -11.1610 C.3    56  ARG56       0.2205
     13  NE         3.1230   22.2380  -12.3070 N.pl3  56  ARG56      -0.0865
     14  CZ         3.3130   20.9270  -12.4520 C.cat  56  ARG56       0.5346
     15  NH1        2.8840   20.0830  -11.5220 N.pl3  56  ARG56       0.1354
     16  NH2        3.9280   20.4560  -13.5290 N.pl3  56  ARG56       0.1354
     17  N         -2.7280   25.5670  -13.2360 N.am   57  THR57      -0.1937
     18  CA        -3.2100   26.7060  -14.0090 C.3    57  THR57       0.2028
     19  C         -2.4160   27.9810  -13.7040 C.2    57  THR57       0.2642
     20  O         -2.1490   28.3030  -12.5440 O.2    57  THR57      -0.2714
     21  CB        -4.7110   26.9560  -13.7820 C.3    57  THR57       0.1808
     22  OG1       -4.9690   27.0810  -12.3770 O.3    57  THR57      -0.2208
     23  CG2       -5.5280   25.8130  -14.3410 C.3    57  THR57       0.0379
     24  N         -2.0340   28.6950  -14.7600 N.am   58  ALA58      -0.1977
     25  CA        -1.1490   29.8430  -14.6280 C.3    58  ALA58       0.1597
     26  C         -1.8700   31.0890  -14.1170 C.2    58  ALA58       0.2287
     27  O         -3.0490   31.0460  -13.7670 O.2    58  ALA58      -0.2864
     28  CB        -0.4600   30.1270  -15.9480 C.3    58  ALA58       0.0319
     29  N         -5.6290   32.3540  -15.1150 N.3    61  VAL61      -0.1245
     30  CA        -6.3690   31.3000  -15.7960 C.3    61  VAL61       0.1561
     31  C         -7.4870   30.7760  -14.8990 C.2    61  VAL61       0.2260
     32  O         -7.2770   30.5360  -13.7140 O.2    61  VAL61      -0.2867
     33  CB        -5.4270   30.1480  -16.2260 C.3    61  VAL61       0.0252
     34  CG1       -6.2100   28.9860  -16.8270 C.3    61  VAL61       0.0019
     35  CG2       -4.3770   30.6640  -17.2080 C.3    61  VAL61       0.0019
     36  N         -9.6530   22.5580  -22.5340 N.3   113  TYR113     -0.1241
     37  CA        -9.6180   23.9780  -22.2140 C.3   113  TYR113      0.1605
     38  C        -10.6020   24.7730  -23.0510 C.2   113  TYR113      0.2264
     39  O        -11.1100   24.2960  -24.0670 O.2   113  TYR113     -0.2867
     40  CB        -8.2210   24.5490  -22.4250 C.3   113  TYR113      0.0534
     41  CG        -7.2430   24.1990  -21.3380 C.ar  113  TYR113     -0.0201
     42  CD1       -6.6060   22.9640  -21.3250 C.ar  113  TYR113     -0.0009
     43  CD2       -6.9420   25.1060  -20.3310 C.ar  113  TYR113     -0.0009
     44  CE1       -5.7030   22.6400  -20.3380 C.ar  113  TYR113      0.0417
     45  CE2       -6.0400   24.7890  -19.3400 C.ar  113  TYR113      0.0417
     46  CZ        -5.4230   23.5550  -19.3490 C.ar  113  TYR113      0.1957
     47  OH        -4.5210   23.2340  -18.3650 O.3   113  TYR113     -0.2866
     48  N         -0.6620   19.2350  -22.3860 N.3   201  PHE201     -0.1227
     49  CA        -0.2810   20.5560  -22.8930 C.3   201  PHE201      0.1736
     50  C          1.0570   21.0460  -22.3520 C.2   201  PHE201      0.2595
     51  O          1.4230   20.7620  -21.2100 O.2   201  PHE201     -0.2718
     52  CB        -1.3650   21.6010  -22.5860 C.3   201  PHE201      0.0547
     53  CG        -2.6270   21.4090  -23.3690 C.ar  201  PHE201     -0.0202
     54  CD1       -2.6510   21.6460  -24.7310 C.ar  201  PHE201     -0.0042
     55  CD2       -3.7920   20.9820  -22.7430 C.ar  201  PHE201     -0.0042
     56  CE1       -3.8180   21.4650  -25.4600 C.ar  201  PHE201     -0.0003
     57  CE2       -4.9620   20.7970  -23.4640 C.ar  201  PHE201     -0.0003
     58  CZ        -4.9730   21.0430  -24.8260 C.ar  201  PHE201     -0.0000
     59  N          1.7800   21.7910  -23.1820 N.am  202  MET202     -0.1965
     60  CA         3.0240   22.4260  -22.7640 C.3   202  MET202      0.1736
     61  C          2.7970   23.8910  -22.4400 C.2   202  MET202      0.2616
     62  O          1.7370   24.4510  -22.7260 O.2   202  MET202     -0.2715
     63  CB         4.0840   22.3090  -23.8560 C.3   202  MET202      0.0427
     64  CG         4.4000   20.8800  -24.2360 C.3   202  MET202      0.0599
     65  SD         5.5620   20.7580  -25.5990 S.3   202  MET202     -0.1393
     66  CE         4.6960   21.7040  -26.8420 C.3   202  MET202      0.0692
     67  N          3.8070   24.5110  -21.8490 N.am  203  MET203     -0.1963
     68  CA         3.7420   25.9230  -21.5110 C.3   203  MET203      0.1736
     69  C          3.4850   26.7820  -22.7510 C.2   203  MET203      0.2616
     70  O          4.2260   26.7000  -23.7310 O.2   203  MET203     -0.2715
     71  CB         5.0410   26.3410  -20.8330 C.3   203  MET203      0.0427
     72  CG         5.0180   27.7170  -20.2220 C.3   203  MET203      0.0599
     73  SD         6.6300   28.0960  -19.5140 S.3   203  MET203     -0.1393
     74  CE         7.6460   28.1200  -20.9950 C.3   203  MET203      0.0692
     75  N          2.4110   27.5740  -22.6930 N.am  204  HIS204     -0.1973
     76  CA         2.0270   28.5530  -23.7270 C.3   204  HIS204      0.1656
     77  C          1.4500   27.9520  -25.0020 C.2   204  HIS204      0.2291
     78  O          1.1200   28.6840  -25.9280 O.2   204  HIS204     -0.2864
     79  CB         3.1850   29.4930  -24.0870 C.3   204  HIS204      0.0771
     80  CG         3.7650   30.2090  -22.9120 C.ar  204  HIS204      0.0820
     81  ND1        5.0580   30.6860  -22.8950 N.ar  204  HIS204     -0.2267
     82  CD2        3.2310   30.5260  -21.7090 C.ar  204  HIS204      0.1154
     83  CE1        5.2960   31.2650  -21.7320 C.ar  204  HIS204      0.1986
     84  NE2        4.2030   31.1820  -20.9940 N.ar  204  HIS204     -0.2212
     85  N         -1.4430   26.4220  -25.9080 N.3   206  ILE206     -0.1245
     86  CA        -2.7810   26.8480  -26.2980 C.3   206  ILE206      0.1561
     87  C         -2.7990   28.3260  -26.6750 C.2   206  ILE206      0.2260
     88  O         -3.3880   28.7110  -27.6870 O.2   206  ILE206     -0.2867
     89  CB        -3.8100   26.5620  -25.1890 C.3   206  ILE206      0.0252
     90  CG1       -3.7650   25.0790  -24.8130 C.3   206  ILE206      0.0019
     91  CG2       -5.2100   26.9770  -25.6300 C.3   206  ILE206      0.0019
     92  CD1       -4.8360   24.6470  -23.8320 C.3   206  ILE206      0.0001
     93  N         -8.3930   32.0890  -20.9610 N.3   245  LEU245     -0.1245
     94  CA        -8.0880   30.6700  -20.8930 C.3   245  LEU245      0.1561
     95  C         -8.8290   30.0350  -19.7300 C.2   245  LEU245      0.2260
     96  O         -8.7650   30.5350  -18.6090 O.2   245  LEU245     -0.2867
     97  CB        -6.5890   30.4800  -20.7100 C.3   245  LEU245      0.0270
     98  CG        -6.0700   29.0520  -20.7410 C.3   245  LEU245      0.0019
     99  CD1       -6.5270   28.3640  -22.0210 C.3   245  LEU245      0.0001
    100  CD2       -4.5570   29.0690  -20.6300 C.3   245  LEU245      0.0001
@<TRIPOS>BOND
     1    88    87    2
     2    66    65    1
     3    87    86    1
     4    86    85    1
     5    86    89    1
     6    78    77    2
     7    91    89    1
     8    65    64    1
     9    56    58   ar
    10    56    54   ar
    11    89    90    1
    12    77    76    1
    13    58    57   ar
    14    90    92    1
    15    54    53   ar
    16    64    63    1
    17    79    76    1
    18    79    80    1
    19    39    38    2
    20    63    60    1
    21    70    69    2
    22    76    75    1
    23    57    55   ar
    24    53    55   ar
    25    53    52    1
    26    59    60    1
    27    59    50   am
    28    38    37    1
    29    80    81   ar
    30    80    82   ar
    31    81    83   ar
    32    49    52    1
    33    49    48    1
    34    49    50    1
    35    60    61    1
    36    69    75   am
    37    69    68    1
    38    62    61    2
    39    36    37    1
    40    61    67   am
    41    40    37    1
    42    40    41    1
    43    50    51    2
    44    99    98    1
    45    67    68    1
    46    83    84   ar
    47    82    84   ar
    48    68    71    1
    49    41    42   ar
    50    41    43   ar
    51    42    44   ar
    52    74    73    1
    53    93    94    1
    54    94    97    1
    55    94    95    1
    56    71    72    1
    57    98    97    1
    58    98   100    1
    59    44    46   ar
    60    43    45   ar
    61    72    73    1
    62    95    96    2
    63    46    45   ar
    64    46    47    1
    65    35    33    1
    66    34    33    1
    67    33    30    1
    68    28    25    1
    69    30    29    1
    70    30    31    1
    71    31    32    2
    72    24    25    1
    73    24    19   am
    74    25    26    1
    75     5     2    1
    76    23    21    1
    77    26    27    2
    78    18    21    1
    79    18    19    1
    80    18    17    1
    81     9     8    2
    82    21    22    1
    83    19    20    2
    84    16    14    1
    85     2     3    1
    86     2     1    1
    87    17     8   am
    88     8     7    1
    89     6     3   am
    90     6     7    1
    91     3     4    2
    92    14    13    2
    93    14    15    1
    94     7    10    1
    95    10    11    1
    96    13    12    1
    97    11    12    1
