@<TRIPOS>MOLECULE
tmp/4nz9B00.pdb
 154 147 0 0 0
SMALL
GASTEIGER

@<TRIPOS>ATOM
      1  N         13.9310    0.4740   48.6640 N.3    93  ALA93      -0.1231
      2  CA        12.8690   -0.5350   48.6460 C.3    93  ALA93       0.1694
      3  C         13.0790   -1.5240   49.7780 C.2    93  ALA93       0.2592
      4  O         14.2030   -1.7160   50.2410 O.2    93  ALA93      -0.2718
      5  CB        12.8260   -1.2680   47.3100 C.3    93  ALA93       0.0304
      6  N         11.9910   -2.1430   50.2230 N.am   94  PHE94      -0.1962
      7  CA        12.0740   -3.2090   51.2100 C.3    94  PHE94       0.1771
      8  C         10.8390   -4.1040   51.2200 C.2    94  PHE94       0.2619
      9  O          9.7240   -3.6510   50.9640 O.2    94  PHE94      -0.2715
     10  CB        12.3190   -2.6360   52.6140 C.3    94  PHE94       0.0574
     11  CG        12.8070   -3.6560   53.6050 C.ar   94  PHE94      -0.0200
     12  CD1       14.1440   -4.0390   53.6270 C.ar   94  PHE94      -0.0042
     13  CD2       11.9280   -4.2370   54.5130 C.ar   94  PHE94      -0.0042
     14  CE1       14.5950   -4.9800   54.5360 C.ar   94  PHE94      -0.0003
     15  CE2       12.3710   -5.1800   55.4230 C.ar   94  PHE94      -0.0003
     16  CZ        13.7060   -5.5510   55.4370 C.ar   94  PHE94      -0.0000
     17  N         11.0690   -5.3830   51.5080 N.am   95  ALA95      -0.1977
     18  CA        10.0220   -6.3530   51.8220 C.3    95  ALA95       0.1597
     19  C         10.6550   -7.4970   52.6030 C.2    95  ALA95       0.2287
     20  O         11.8400   -7.7990   52.4160 O.2    95  ALA95      -0.2864
     21  CB         9.3690   -6.8840   50.5510 C.3    95  ALA95       0.0319
     22  N         11.6840  -11.1240   53.1810 N.3    97  MET97      -0.1245
     23  CA        12.0410  -12.1500   52.2020 C.3    97  MET97       0.1570
     24  C         11.0550  -13.3160   52.1790 C.2    97  MET97       0.2261
     25  O         10.9040  -13.9790   51.1530 O.2    97  MET97      -0.2867
     26  CB        13.4660  -12.6700   52.4280 C.3    97  MET97       0.0387
     27  CG        14.5760  -11.7690   51.9000 C.3    97  MET97       0.0595
     28  SD        14.5660  -11.3620   50.1330 S.3    97  MET97      -0.1393
     29  CE        14.2690  -12.9570   49.3710 C.3    97  MET97       0.0692
     30  N          8.6190  -13.4130   49.3150 N.3   100  LEU100     -0.1245
     31  CA         9.1160  -13.6270   47.9600 C.3   100  LEU100      0.1561
     32  C          9.4270  -15.0970   47.6620 C.2   100  LEU100      0.2260
     33  O          9.7830  -15.4400   46.5320 O.2   100  LEU100     -0.2867
     34  CB        10.3660  -12.7680   47.7040 C.3   100  LEU100      0.0270
     35  CG        10.3980  -11.2770   48.0720 C.3   100  LEU100      0.0019
     36  CD1       11.7180  -10.6620   47.6310 C.3   100  LEU100      0.0001
     37  CD2        9.2270  -10.4900   47.4930 C.3   100  LEU100      0.0001
     38  N         10.8830   -1.3360   39.0660 N.3   145  TYR145     -0.1241
     39  CA        11.1920   -2.5480   38.3240 C.3   145  TYR145      0.1605
     40  C          9.9630   -3.0260   37.5490 C.2   145  TYR145      0.2264
     41  O          8.8250   -2.8170   37.9810 O.2   145  TYR145     -0.2867
     42  CB        11.7240   -3.6370   39.2680 C.3   145  TYR145      0.0534
     43  CG        11.9980   -4.9680   38.5980 C.ar  145  TYR145     -0.0201
     44  CD1       13.0380   -5.1150   37.6780 C.ar  145  TYR145     -0.0009
     45  CD2       11.2130   -6.0810   38.8840 C.ar  145  TYR145     -0.0009
     46  CE1       13.2830   -6.3330   37.0620 C.ar  145  TYR145      0.0417
     47  CE2       11.4440   -7.3000   38.2700 C.ar  145  TYR145      0.0417
     48  CZ        12.4810   -7.4230   37.3640 C.ar  145  TYR145      0.1957
     49  OH        12.7040   -8.6390   36.7620 O.3   145  TYR145     -0.2866
     50  N          5.7600  -10.9220   37.7720 N.3   152  VAL152     -0.1231
     51  CA         7.0480  -11.5990   37.6350 C.3   152  VAL152      0.1692
     52  C          7.1950  -12.6110   38.7770 C.2   152  VAL152      0.2592
     53  O          6.9490  -12.2800   39.9420 O.2   152  VAL152     -0.2718
     54  CB         8.2250  -10.5840   37.6310 C.3   152  VAL152      0.0266
     55  CG1        9.5660  -11.2950   37.5800 C.3   152  VAL152      0.0020
     56  CG2        8.1130   -9.6230   36.4530 C.3   152  VAL152      0.0020
     57  N          7.5870  -13.8390   38.4350 N.am  153  GLN153     -0.1966
     58  CA         7.7380  -14.9220   39.4100 C.3   153  GLN153      0.1733
     59  C          8.5900  -14.4980   40.6070 C.2   153  GLN153      0.2616
     60  O          9.6660  -13.9210   40.4340 O.2   153  GLN153     -0.2715
     61  CB         8.3550  -16.1650   38.7480 C.3   153  GLN153      0.0408
     62  CG         7.4170  -16.9550   37.8410 C.3   153  GLN153      0.0908
     63  CD         6.6520  -18.0580   38.5650 C.2   153  GLN153      0.2608
     64  OE1        6.7120  -18.1780   39.7930 O.2   153  GLN153     -0.2717
     65  NE2        5.9260  -18.8740   37.8000 N.am  153  GLN153     -0.0878
     66  N          8.0840  -14.7790   41.8100 N.am  154  ASN154     -0.1958
     67  CA         8.7800  -14.5310   43.0880 C.3   154  ASN154      0.1819
     68  C          8.9310  -13.0680   43.5050 C.2   154  ASN154      0.2621
     69  O          9.3790  -12.7830   44.6170 O.2   154  ASN154     -0.2715
     70  CB        10.1530  -15.2200   43.1370 C.3   154  ASN154      0.1195
     71  CG        10.0920  -16.6860   42.7620 C.2   154  ASN154      0.2630
     72  OD1       10.5050  -17.0710   41.6680 O.2   154  ASN154     -0.2716
     73  ND2        9.5820  -17.5130   43.6650 N.am  154  ASN154     -0.0877
     74  N          8.5670  -12.1380   42.6280 N.am  155  TYR155     -0.1974
     75  CA         8.6410  -10.7190   42.9730 C.3   155  TYR155      0.1639
     76  C          7.4870  -10.3370   43.9050 C.2   155  TYR155      0.2290
     77  O          7.6550   -9.5040   44.7990 O.2   155  TYR155     -0.2864
     78  CB         8.6820   -9.8460   41.7200 C.3   155  TYR155      0.0560
     79  CG         9.2850   -8.4740   41.9480 C.ar  155  TYR155     -0.0198
     80  CD1       10.5790   -8.3270   42.4560 C.ar  155  TYR155     -0.0009
     81  CD2        8.5660   -7.3210   41.6450 C.ar  155  TYR155     -0.0009
     82  CE1       11.1280   -7.0720   42.6660 C.ar  155  TYR155      0.0417
     83  CE2        9.1060   -6.0640   41.8460 C.ar  155  TYR155      0.0417
     84  CZ        10.3840   -5.9440   42.3560 C.ar  155  TYR155      0.1957
     85  OH        10.9130   -4.6940   42.5530 O.3   155  TYR155     -0.2866
     86  N          6.5170   -7.1760   46.2990 N.3   158  MET158     -0.1245
     87  CA         7.3210   -6.0700   45.7890 C.3   158  MET158      0.1570
     88  C          6.7600   -5.5240   44.4750 C.2   158  MET158      0.2261
     89  O          6.8680   -4.3260   44.2020 O.2   158  MET158     -0.2867
     90  CB         8.7970   -6.4600   45.6370 C.3   158  MET158      0.0387
     91  CG         9.6470   -6.2250   46.8860 C.3   158  MET158      0.0595
     92  SD         9.5830   -4.5670   47.6180 S.3   158  MET158     -0.1393
     93  CE         9.8700   -3.5160   46.1950 C.3   158  MET158      0.0692
     94  N          5.7470   -1.7750   43.7210 N.3   162  LYS162     -0.1245
     95  CA         6.2840   -1.0470   42.5690 C.3   162  LYS162      0.1561
     96  C          5.1820   -0.4390   41.7130 C.2   162  LYS162      0.2260
     97  O          5.3600    0.6430   41.1510 O.2   162  LYS162     -0.2867
     98  CB         7.2010   -1.9330   41.7170 C.3   162  LYS162      0.0271
     99  CG         8.5460   -2.2320   42.3590 C.3   162  LYS162      0.0035
    100  CD         9.3090   -0.9590   42.7030 C.3   162  LYS162      0.0206
    101  CE        10.5850   -1.2780   43.4650 C.3   162  LYS162      0.1093
    102  NZ        11.3750   -0.0540   43.7750 N.3   162  LYS162     -0.1314
    103  N         17.5670   -6.1020   35.8720 N.3   190  PRO190     -0.2102
    104  CA        18.1520   -6.7740   37.0330 C.3   190  PRO190      0.1504
    105  C         19.6450   -6.4760   37.1800 C.2   190  PRO190      0.2575
    106  O         20.4030   -6.5580   36.2030 O.2   190  PRO190     -0.2718
    107  CB        17.9140   -8.2630   36.7450 C.3   190  PRO190      0.0282
    108  CG        16.8650   -8.3020   35.6840 C.3   190  PRO190      0.0208
    109  CD        17.0740   -7.0630   34.8730 C.3   190  PRO190      0.0893
    110  N         20.0430   -6.1010   38.3950 N.am  191  ILE191     -0.1980
    111  CA        21.4300   -5.7600   38.7090 C.3   191  ILE191      0.1595
    112  C         21.8320   -6.4510   40.0140 C.2   191  ILE191      0.2287
    113  O         21.0470   -6.5040   40.9660 O.2   191  ILE191     -0.2864
    114  CB        21.6450   -4.2230   38.8080 C.3   191  ILE191      0.0276
    115  CG1       21.4010   -3.5520   37.4510 C.3   191  ILE191      0.0022
    116  CG2       23.0490   -3.8940   39.3030 C.3   191  ILE191      0.0022
    117  CD1       21.2530   -2.0470   37.5020 C.3   191  ILE191      0.0001
    118  N         20.5190   -6.2870   47.7610 N.3   195  SER195     -0.1202
    119  CA        19.1170   -6.7140   47.8330 C.3   195  SER195      0.2020
    120  C         18.8160   -7.9010   46.9150 C.2   195  SER195      0.2618
    121  O         18.1560   -8.8590   47.3220 O.2   195  SER195     -0.2717
    122  CB        18.1810   -5.5480   47.5180 C.3   195  SER195      0.2103
    123  OG        18.2930   -4.5340   48.5020 O.3   195  SER195     -0.2182
    124  N         19.3090   -7.8290   45.6830 N.am  196  ALA196     -0.1979
    125  CA        19.1370   -8.8990   44.7040 C.3   196  ALA196      0.1597
    126  C         19.8800  -10.1790   45.1110 C.2   196  ALA196      0.2287
    127  O         19.4260  -11.2880   44.8210 O.2   196  ALA196     -0.2864
    128  CB        19.5900   -8.4270   43.3330 C.3   196  ALA196      0.0319
    129  N         17.7840  -12.8580   46.7450 N.3   199  VAL199     -0.1245
    130  CA        16.8220  -13.6600   45.9790 C.3   199  VAL199      0.1561
    131  C         17.4950  -14.8740   45.3350 C.2   199  VAL199      0.2260
    132  O         18.4890  -14.7390   44.6180 O.2   199  VAL199     -0.2867
    133  CB        16.0840  -12.8050   44.9150 C.3   199  VAL199      0.0252
    134  CG1       15.3690  -13.6780   43.8900 C.3   199  VAL199      0.0019
    135  CG2       15.0940  -11.8570   45.5820 C.3   199  VAL199      0.0019
    136  N         18.9700  -15.8230   41.2360 N.3   202  PHE202     -0.1241
    137  CA        19.1710  -14.5210   40.6020 C.3   202  PHE202      0.1605
    138  C         20.0500  -14.6080   39.3520 C.2   202  PHE202      0.2264
    139  O         19.9000  -13.8070   38.4290 O.2   202  PHE202     -0.2867
    140  CB        19.7500  -13.5080   41.5980 C.3   202  PHE202      0.0534
    141  CG        19.7860  -12.0990   41.0740 C.ar  202  PHE202     -0.0203
    142  CD1       18.6130  -11.3540   40.9560 C.ar  202  PHE202     -0.0042
    143  CD2       20.9890  -11.5180   40.6840 C.ar  202  PHE202     -0.0042
    144  CE1       18.6400  -10.0590   40.4570 C.ar  202  PHE202     -0.0003
    145  CE2       21.0220  -10.2210   40.1910 C.ar  202  PHE202     -0.0003
    146  CZ        19.8470   -9.4920   40.0760 C.ar  202  PHE202     -0.0000
    147  N         17.9640  -15.4100   36.0000 N.3   205  ILE205     -0.1245
    148  CA        17.2710  -14.3030   35.3400 C.3   205  ILE205      0.1561
    149  C         18.2250  -13.3500   34.6150 C.2   205  ILE205      0.2260
    150  O         17.8580  -12.7630   33.5990 O.2   205  ILE205     -0.2867
    151  CB        16.3120  -13.5590   36.2980 C.3   205  ILE205      0.0252
    152  CG1       16.9740  -13.3490   37.6680 C.3   205  ILE205      0.0019
    153  CG2       14.9990  -14.3290   36.4110 C.3   205  ILE205      0.0019
    154  CD1       16.0230  -13.1540   38.8330 C.3   205  ILE205      0.0001
@<TRIPOS>BOND
     1   150   149    2
     2   149   148    1
     3   109   108    1
     4   109   103    1
     5   148   147    1
     6   148   151    1
     7   108   107    1
     8   103   104    1
     9   106   105    2
    10   151   153    1
    11   151   152    1
    12    56    54    1
    13   107   104    1
    14    49    48    1
    15   104   105    1
    16    46    48   ar
    17    46    44   ar
    18   105   110   am
    19    48    47   ar
    20   115   117    1
    21   115   114    1
    22    40    41    2
    23    40    39    1
    24    55    54    1
    25    54    51    1
    26    51    50    1
    27    51    52    1
    28   152   154    1
    29    44    43   ar
    30    65    63   am
    31    62    63    1
    32    62    61    1
    33    47    45   ar
    34    39    38    1
    35    39    42    1
    36   110   111    1
    37   139   138    2
    38    57    52   am
    39    57    58    1
    40    63    64    2
    41    43    45   ar
    42    43    42    1
    43   111   114    1
    44   111   112    1
    45    61    58    1
    46    52    53    2
    47   114   116    1
    48   138   137    1
    49    58    59    1
    50   112   113    2
    51   146   145   ar
    52   146   144   ar
    53   145   143   ar
    54    60    59    2
    55   144   142   ar
    56   137   136    1
    57   137   140    1
    58    59    66   am
    59   143   141   ar
    60   142   141   ar
    61   141   140    1
    62    97    96    2
    63    81    83   ar
    64    81    79   ar
    65    72    71    2
    66    96    95    1
    67    98    99    1
    68    98    95    1
    69    78    79    1
    70    78    75    1
    71    66    67    1
    72    83    84   ar
    73    79    80   ar
    74    84    85    1
    75    84    82   ar
    76    99   100    1
    77    80    82   ar
    78    95    94    1
    79    74    75    1
    80    74    68   am
    81   100   101    1
    82    71    70    1
    83    71    73   am
    84    75    76    1
    85    67    70    1
    86    67    68    1
    87   128   125    1
    88   101   102    1
    89    68    69    2
    90   134   133    1
    91    76    77    2
    92    89    88    2
    93    88    87    1
    94   132   131    2
    95   125   126    1
    96   125   124    1
    97   127   126    2
    98   133   135    1
    99   133   130    1
   100   131   130    1
   101    90    87    1
   102    90    91    1
   103   124   120   am
   104    87    86    1
   105   130   129    1
   106    93    92    1
   107    33    32    2
   108    91    92    1
   109   120   121    2
   110   120   119    1
   111     5     2    1
   112    37    35    1
   113   122   119    1
   114   122   123    1
   115    36    35    1
   116    32    31    1
   117    34    31    1
   118    34    35    1
   119   118   119    1
   120    31    30    1
   121     2     1    1
   122     2     3    1
   123    29    28    1
   124     3     6   am
   125     3     4    2
   126    28    27    1
   127     6     7    1
   128    21    18    1
   129     9     8    2
   130    25    24    2
   131     7     8    1
   132     7    10    1
   133     8    17   am
   134    17    18    1
   135    18    19    1
   136    27    26    1
   137    24    23    1
   138    23    26    1
   139    23    22    1
   140    20    19    2
   141    10    11    1
   142    11    12   ar
   143    11    13   ar
   144    12    14   ar
   145    13    15   ar
   146    14    16   ar
   147    15    16   ar
