@<TRIPOS>MOLECULE
tmp/4nzbE01.pdb
 94 92 0 0 0
SMALL
GASTEIGER

@<TRIPOS>ATOM
      1  N         29.7700   -9.5690   25.3730 N.3    89  TYR89      -0.1241
      2  CA        30.2150  -10.9030   24.9650 C.3    89  TYR89       0.1605
      3  C         31.1230  -10.9280   23.7310 C.2    89  TYR89       0.2264
      4  O         31.9750  -11.8010   23.6060 O.2    89  TYR89      -0.2867
      5  CB        29.0060  -11.7970   24.7000 C.3    89  TYR89       0.0534
      6  CG        28.1220  -11.9880   25.9050 C.ar   89  TYR89      -0.0201
      7  CD1       28.5840  -11.7000   27.1800 C.ar   89  TYR89      -0.0009
      8  CD2       26.8250  -12.4580   25.7690 C.ar   89  TYR89      -0.0009
      9  CE1       27.7770  -11.8690   28.2900 C.ar   89  TYR89       0.0417
     10  CE2       26.0000  -12.6220   26.8710 C.ar   89  TYR89       0.0417
     11  CZ        26.4870  -12.3360   28.1360 C.ar   89  TYR89       0.1957
     12  OH        25.6820  -12.5050   29.2510 O.3    89  TYR89      -0.2866
     13  N         25.2210   -9.8270   32.4000 N.3   142  SER142     -0.1202
     14  CA        26.0320  -10.0790   33.5810 C.3   142  SER142      0.2020
     15  C         27.0580  -11.1560   33.2610 C.2   142  SER142      0.2619
     16  O         26.7620  -12.1110   32.5390 O.2   142  SER142     -0.2717
     17  CB        25.1760  -10.5060   34.7670 C.3   142  SER142      0.2103
     18  OG        25.9900  -11.0440   35.7960 O.3   142  SER142     -0.2182
     19  N         28.2690  -10.9960   33.7820 N.am  143  TRP143     -0.1961
     20  CA        29.3080  -11.9740   33.5040 C.3   143  TRP143      0.1771
     21  C         29.1920  -13.2000   34.4120 C.2   143  TRP143      0.2620
     22  O         29.5460  -14.2980   34.0010 O.2   143  TRP143     -0.2715
     23  CB        30.7000  -11.3420   33.6320 C.3   143  TRP143      0.0590
     24  CG        31.7960  -12.2510   33.1600 C.ar  143  TRP143      0.0006
     25  CD1       32.7760  -12.8420   33.9220 C.ar  143  TRP143      0.0946
     26  CD2       32.0180  -12.6910   31.8180 C.ar  143  TRP143      0.0152
     27  NE1       33.5950  -13.6160   33.1300 N.ar  143  TRP143     -0.2442
     28  CE2       33.1490  -13.5380   31.8350 C.ar  143  TRP143      0.0810
     29  CE3       31.3790  -12.4420   30.6000 C.ar  143  TRP143      0.0012
     30  CZ2       33.6430  -14.1370   30.6820 C.ar  143  TRP143      0.0191
     31  CZ3       31.8710  -13.0390   29.4660 C.ar  143  TRP143      0.0001
     32  CH2       32.9950  -13.8740   29.5100 C.ar  143  TRP143      0.0015
     33  N         28.6840  -13.0280   35.6320 N.am  144  THR144     -0.1951
     34  CA        28.6800  -14.1330   36.5990 C.3   144  THR144      0.1897
     35  C         27.3430  -14.3610   37.2880 C.2   144  THR144      0.2313
     36  O         27.1660  -15.3680   37.9760 O.2   144  THR144     -0.2863
     37  CB        29.7260  -13.9250   37.7040 C.3   144  THR144      0.1794
     38  OG1       29.3070  -12.8480   38.5550 O.3   144  THR144     -0.2208
     39  CG2       31.1080  -13.6250   37.1070 C.3   144  THR144      0.0378
     40  N         23.1980  -15.0260   37.2030 N.3   146  HIS146     -0.1241
     41  CA        22.1260  -15.5480   36.3640 C.3   146  HIS146      0.1621
     42  C         20.8150  -14.7840   36.5760 C.2   146  HIS146      0.2264
     43  O         20.7250  -13.8980   37.4200 O.2   146  HIS146     -0.2867
     44  CB        21.9270  -17.0400   36.6280 C.3   146  HIS146      0.0745
     45  CG        21.6760  -17.3660   38.0650 C.ar  146  HIS146      0.0817
     46  ND1       20.5270  -16.9840   38.7260 N.ar  146  HIS146     -0.2268
     47  CD2       22.4260  -18.0360   38.9710 C.ar  146  HIS146      0.1154
     48  CE1       20.5850  -17.3950   39.9810 C.ar  146  HIS146      0.1986
     49  NE2       21.7240  -18.0420   40.1530 N.ar  146  HIS146     -0.2212
     50  N         19.0790  -17.1320   27.8990 N.3   177  VAL177     -0.1245
     51  CA        19.7330  -18.3460   27.4180 C.3   177  VAL177      0.1561
     52  C         20.0040  -19.3560   28.5340 C.2   177  VAL177      0.2260
     53  O         20.6030  -19.0210   29.5590 O.2   177  VAL177     -0.2867
     54  CB        21.0680  -18.0250   26.7100 C.3   177  VAL177      0.0252
     55  CG1       21.6220  -19.2740   26.1140 C.3   177  VAL177      0.0019
     56  CG2       20.8640  -16.9930   25.6140 C.3   177  VAL177      0.0019
     57  N         21.8290  -22.9790   29.3060 N.3   179  TYR179     -0.1241
     58  CA        22.8300  -23.9030   28.7700 C.3   179  TYR179      0.1605
     59  C         22.6440  -25.3180   29.3210 C.2   179  TYR179      0.2264
     60  O         21.8240  -25.5360   30.2330 O.2   179  TYR179     -0.2867
     61  CB        24.2360  -23.3810   29.0940 C.3   179  TYR179      0.0534
     62  CG        24.5780  -22.0500   28.4440 C.ar  179  TYR179     -0.0201
     63  CD1       23.6970  -20.9720   28.5430 C.ar  179  TYR179     -0.0009
     64  CD2       25.8340  -21.8310   27.8540 C.ar  179  TYR179     -0.0009
     65  CE1       23.9910  -19.7720   28.0130 C.ar  179  TYR179      0.0417
     66  CE2       26.1460  -20.6020   27.3060 C.ar  179  TYR179      0.0417
     67  CZ        25.2010  -19.5760   27.3860 C.ar  179  TYR179      0.1957
     68  OH        25.4510  -18.3340   26.8560 O.3   179  TYR179     -0.2866
     69  N         24.5670  -25.7840   33.1880 N.3   182  CYS182     -0.1235
     70  CA        23.9820  -25.2150   34.3860 C.3   182  CYS182      0.1677
     71  C         22.4740  -25.0380   34.2430 C.2   182  CYS182      0.2270
     72  O         21.9910  -24.5890   33.2060 O.2   182  CYS182     -0.2867
     73  CB        24.6380  -23.8700   34.6740 C.3   182  CYS182      0.0956
     74  SG        26.1330  -23.5400   33.7330 S.3   182  CYS182     -0.0801
     75  N         20.6770  -17.2170   31.6420 N.3   186  TYR186     -0.1241
     76  CA        21.4990  -16.0180   31.5860 C.3   186  TYR186      0.1605
     77  C         20.9430  -15.0490   30.5520 C.2   186  TYR186      0.2264
     78  O         20.8860  -15.3490   29.3630 O.2   186  TYR186     -0.2867
     79  CB        22.9520  -16.3750   31.2820 C.3   186  TYR186      0.0534
     80  CG        23.5950  -17.1760   32.3940 C.ar  186  TYR186     -0.0201
     81  CD1       23.4000  -18.5470   32.4860 C.ar  186  TYR186     -0.0009
     82  CD2       24.3800  -16.5590   33.3640 C.ar  186  TYR186     -0.0009
     83  CE1       23.9730  -19.2810   33.5000 C.ar  186  TYR186      0.0417
     84  CE2       24.9610  -17.2850   34.3770 C.ar  186  TYR186      0.0417
     85  CZ        24.7510  -18.6500   34.4400 C.ar  186  TYR186      0.1957
     86  OH        25.3210  -19.3990   35.4430 O.3   186  TYR186     -0.2866
     87  N         20.7160  -11.4190   28.3940 N.3   188  ASP188     -0.1239
     88  CA        21.5450  -10.4010   27.7770 C.3   188  ASP188      0.1674
     89  C         20.6510   -9.4390   27.0030 C.2   188  ASP188      0.2266
     90  O         19.4820   -9.7260   26.7370 O.2   188  ASP188     -0.2867
     91  CB        22.6050  -11.0200   26.8590 C.3   188  ASP188      0.1410
     92  CG        22.0020  -11.7270   25.6500 C.2   188  ASP188      0.3668
     93  OD1       21.5780  -11.0320   24.7060 O.co2 188  ASP188     -0.2456
     94  OD2       21.9760  -12.9770   25.6260 O.co2 188  ASP188     -0.2456
@<TRIPOS>BOND
     1     4     3    2
     2     3     2    1
     3     5     2    1
     4     5     6    1
     5    93    92   ar
     6     2     1    1
     7    56    54    1
     8    94    92   ar
     9    92    91    1
    10     8     6   ar
    11     8    10   ar
    12     6     7   ar
    13    55    54    1
    14    54    51    1
    15    90    89    2
    16    68    67    1
    17    91    88    1
    18    10    11   ar
    19    89    88    1
    20     7     9   ar
    21    66    67   ar
    22    66    64   ar
    23    67    65   ar
    24    51    50    1
    25    51    52    1
    26    88    87    1
    27    64    62   ar
    28    65    63   ar
    29    11     9   ar
    30    11    12    1
    31    62    63   ar
    32    62    61    1
    33    52    53    2
    34    58    61    1
    35    58    57    1
    36    58    59    1
    37    59    60    2
    38    78    77    2
    39    31    32   ar
    40    31    29   ar
    41    32    30   ar
    42    77    76    1
    43    29    26   ar
    44    30    28   ar
    45    79    76    1
    46    79    80    1
    47    76    75    1
    48    26    28   ar
    49    26    24   ar
    50    28    27   ar
    51    80    81   ar
    52    80    82   ar
    53    13    14    1
    54    81    83   ar
    55    16    15    2
    56    27    25   ar
    57    24    23    1
    58    24    25   ar
    59    69    70    1
    60    72    71    2
    61    15    14    1
    62    15    19   am
    63    82    84   ar
    64    83    85   ar
    65    20    23    1
    66    20    19    1
    67    20    21    1
    68    14    17    1
    69    74    73    1
    70    22    21    2
    71    71    70    1
    72    84    85   ar
    73    70    73    1
    74    21    33   am
    75    85    86    1
    76    17    18    1
    77    33    34    1
    78    41    42    1
    79    41    44    1
    80    41    40    1
    81    42    43    2
    82    34    35    1
    83    34    37    1
    84    44    45    1
    85    39    37    1
    86    35    36    2
    87    37    38    1
    88    45    46   ar
    89    45    47   ar
    90    46    48   ar
    91    47    49   ar
    92    48    49   ar
