@<TRIPOS>MOLECULE
tmp/4nzfA01.pdb
 104 102 0 0 0
SMALL
GASTEIGER

@<TRIPOS>ATOM
      1  N          1.6390  -25.6740    7.3720 N.3   141  ASP141     -0.1239
      2  CA         1.5220  -24.8340    6.2270 C.3   141  ASP141      0.1674
      3  C          0.0720  -24.5210    5.8380 C.2   141  ASP141      0.2266
      4  O         -0.8090  -25.4020    5.9040 O.2   141  ASP141     -0.2867
      5  CB         2.1500  -25.5540    5.1000 C.3   141  ASP141      0.1410
      6  CG         2.8180  -24.6430    4.2200 C.2   141  ASP141      0.3668
      7  OD1        2.0640  -23.7980    3.5530 O.co2 141  ASP141     -0.2456
      8  OD2        4.0820  -24.7370    4.3100 O.co2 141  ASP141     -0.2456
      9  N         -0.6010  -26.0430    1.7240 N.3   144  SER144     -0.1217
     10  CA         0.0730  -27.2550    1.2760 C.3   144  SER144      0.1889
     11  C         -0.7340  -28.4690    1.6690 C.2   144  SER144      0.2288
     12  O         -0.9840  -28.6970    2.8600 O.2   144  SER144     -0.2866
     13  CB         1.5240  -27.2970    1.8310 C.3   144  SER144      0.2089
     14  OG         2.2550  -28.3610    1.3340 O.3   144  SER144     -0.2183
     15  N          3.8360  -29.4860    6.6930 N.3   155  VAL155     -0.1231
     16  CA         4.4700  -28.7700    7.7870 C.3   155  VAL155      0.1692
     17  C          5.4190  -27.6910    7.2960 C.2   155  VAL155      0.2592
     18  O          6.2150  -27.9190    6.3970 O.2   155  VAL155     -0.2718
     19  CB         5.2080  -29.7800    8.6370 C.3   155  VAL155      0.0266
     20  CG1        6.0160  -29.0780    9.6730 C.3   155  VAL155      0.0020
     21  CG2        4.2240  -30.6940    9.3210 C.3   155  VAL155      0.0020
     22  N          5.3420  -26.5060    7.8980 N.am  156  ASP156     -0.1960
     23  CA         6.0970  -25.3490    7.5160 C.3   156  ASP156      0.1840
     24  C          7.3810  -25.2870    8.3530 C.2   156  ASP156      0.2622
     25  O          7.3550  -24.9490    9.5430 O.2   156  ASP156     -0.2715
     26  CB         5.2740  -24.1150    7.8280 C.3   156  ASP156      0.1450
     27  CG         5.9030  -22.8590    7.3570 C.2   156  ASP156      0.3671
     28  OD1        7.0990  -22.8330    6.9670 O.co2 156  ASP156     -0.2456
     29  OD2        5.1860  -21.8560    7.3740 O.co2 156  ASP156     -0.2456
     30  N          8.5130  -25.5200    7.7040 N.am  157  HIS157     -0.1959
     31  CA         9.8010  -25.5710    8.3790 C.3   157  HIS157      0.1787
     32  C         10.2000  -24.2630    9.0090 C.2   157  HIS157      0.2620
     33  O         11.0970  -24.2690    9.8200 O.2   157  HIS157     -0.2715
     34  CB        10.9080  -25.9530    7.3860 C.3   157  HIS157      0.0785
     35  CG        11.2990  -24.8130    6.4930 C.ar  157  HIS157      0.0821
     36  ND1       12.3790  -23.9990    6.7410 N.ar  157  HIS157     -0.2267
     37  CD2       10.7210  -24.3320    5.3790 C.ar  157  HIS157      0.1154
     38  CE1       12.4800  -23.1020    5.7800 C.ar  157  HIS157      0.1986
     39  NE2       11.4960  -23.3030    4.9250 N.ar  157  HIS157     -0.2212
     40  N          9.5970  -23.1680    8.5960 N.am  158  ARG158     -0.1977
     41  CA         9.8710  -21.8640    9.2160 C.3   158  ARG158      0.1597
     42  C          9.2010  -21.6940   10.5850 C.2   158  ARG158      0.2287
     43  O          9.4530  -20.7420   11.2330 O.2   158  ARG158     -0.2864
     44  CB         9.3430  -20.7260    8.3580 C.3   158  ARG158      0.0334
     45  CG        10.0970  -20.5050    7.0800 C.3   158  ARG158      0.0492
     46  CD         9.3200  -19.6310    6.0960 C.3   158  ARG158      0.2205
     47  NE         8.2420  -20.4840    5.5700 N.pl3 158  ARG158     -0.0865
     48  CZ         7.2340  -20.1310    4.7780 C.cat 158  ARG158      0.5346
     49  NH1        7.1100  -18.8900    4.3200 N.pl3 158  ARG158      0.1354
     50  NH2        6.3530  -21.0700    4.4290 N.pl3 158  ARG158      0.1354
     51  N          2.4090  -28.6240   -6.2770 N.3   192  TYR192     -0.1241
     52  CA         3.5330  -27.9100   -5.6040 C.3   192  TYR192      0.1605
     53  C          4.9500  -28.3110   -5.9840 C.2   192  TYR192      0.2264
     54  O          5.8710  -27.7260   -5.5100 O.2   192  TYR192     -0.2867
     55  CB         3.4570  -28.0750   -4.0790 C.3   192  TYR192      0.0534
     56  CG         2.1760  -27.6170   -3.4730 C.ar  192  TYR192     -0.0201
     57  CD1        1.9260  -26.2390   -3.2830 C.ar  192  TYR192     -0.0009
     58  CD2        1.2140  -28.5370   -3.1020 C.ar  192  TYR192     -0.0009
     59  CE1        0.7410  -25.8240   -2.7430 C.ar  192  TYR192      0.0417
     60  CE2       -0.0020  -28.1270   -2.5840 C.ar  192  TYR192      0.0417
     61  CZ        -0.2360  -26.7870   -2.3980 C.ar  192  TYR192      0.1957
     62  OH        -1.4310  -26.3840   -1.8480 O.3   192  TYR192     -0.2866
     63  N          8.3600  -30.5590   -5.7310 N.3   194  THR194     -0.1203
     64  CA         9.1000  -31.2700   -4.6990 C.3   194  THR194      0.1994
     65  C          9.1080  -30.4870   -3.4050 C.2   194  THR194      0.2618
     66  O          9.4200  -29.3470   -3.3470 O.2   194  THR194     -0.2717
     67  CB        10.5950  -31.5150   -5.1450 C.3   194  THR194      0.1784
     68  OG1       10.6410  -32.2310   -6.3890 O.3   194  THR194     -0.2211
     69  CG2       11.2790  -32.3450   -4.1330 C.3   194  THR194      0.0376
     70  N          8.8010  -31.1650   -2.3350 N.am  195  HIS195     -0.1961
     71  CA         8.8420  -30.6150   -1.0400 C.3   195  HIS195      0.1787
     72  C         10.2250  -30.7770   -0.3720 C.2   195  HIS195      0.2621
     73  O         10.4600  -31.6330    0.4800 O.2   195  HIS195     -0.2715
     74  CB         7.7100  -31.2270   -0.2210 C.3   195  HIS195      0.0785
     75  CG         6.3780  -30.7770   -0.6910 C.ar  195  HIS195      0.0821
     76  ND1        5.4510  -31.6240   -1.2520 N.ar  195  HIS195     -0.2267
     77  CD2        5.8290  -29.5500   -0.7150 C.ar  195  HIS195      0.1154
     78  CE1        4.3660  -30.9410   -1.5650 C.ar  195  HIS195      0.1986
     79  NE2        4.6080  -29.6680   -1.3090 N.ar  195  HIS195     -0.2212
     80  N         11.1120  -29.8730   -0.7590 N.am  196  THR196     -0.1937
     81  CA        12.5560  -29.9730   -0.4220 C.3   196  THR196      0.2028
     82  C         12.7940  -29.7080    1.0510 C.2   196  THR196      0.2642
     83  O         13.6810  -30.3060    1.7060 O.2   196  THR196     -0.2714
     84  CB        13.3870  -28.9640   -1.2960 C.3   196  THR196      0.1808
     85  OG1       12.9720  -27.6370   -1.0200 O.3   196  THR196     -0.2208
     86  CG2       13.1590  -29.1810   -2.7150 C.3   196  THR196      0.0379
     87  N         12.0440  -28.7750    1.5920 N.am  197  GLU197     -0.1963
     88  CA        12.2920  -28.3640    3.0280 C.3   197  GLU197      0.1733
     89  C         11.8660  -29.4890    3.9850 C.2   197  GLU197      0.2616
     90  O         12.5330  -29.8020    4.9730 O.2   197  GLU197     -0.2715
     91  CB        11.5660  -27.0860    3.3460 C.3   197  GLU197      0.0429
     92  CG        12.1430  -25.8970    2.6320 C.3   197  GLU197      0.1163
     93  CD        13.5890  -25.5810    3.0680 C.2   197  GLU197      0.3649
     94  OE1       14.0500  -25.9420    4.1690 O.co2 197  GLU197     -0.2457
     95  OE2       14.2910  -24.9850    2.2630 O.co2 197  GLU197     -0.2457
     96  N         10.8080  -30.1990    3.6110 N.am  198  GLU198     -0.1977
     97  CA        10.4150  -31.3580    4.3880 C.3   198  GLU198      0.1602
     98  C         11.3110  -32.5430    4.2380 C.2   198  GLU198      0.2287
     99  O         11.4520  -33.3890    5.1460 O.2   198  GLU198     -0.2864
    100  CB         8.9350  -31.6980    4.0940 C.3   198  GLU198      0.0415
    101  CG         8.0800  -30.7810    5.0100 C.3   198  GLU198      0.1163
    102  CD         6.5700  -30.8440    4.8160 C.2   198  GLU198      0.3649
    103  OE1        5.9130  -31.4670    5.6320 O.co2 198  GLU198     -0.2457
    104  OE2        6.0900  -30.2530    3.8610 O.co2 198  GLU198     -0.2457
@<TRIPOS>BOND
     1    68    67    1
     2    51    52    1
     3    53    52    1
     4    53    54    2
     5    63    64    1
     6    52    55    1
     7    67    64    1
     8    67    69    1
     9    64    65    1
    10    55    56    1
    11    56    57   ar
    12    56    58   ar
    13    65    66    2
    14    65    70   am
    15    57    59   ar
    16    58    60   ar
    17    59    61   ar
    18    86    84    1
    19    60    61   ar
    20    61    62    1
    21    70    71    1
    22    78    79   ar
    23    78    76   ar
    24    79    77   ar
    25    84    85    1
    26    84    81    1
    27    76    75   ar
    28    71    72    1
    29    71    74    1
    30    80    81    1
    31    80    72   am
    32    77    75   ar
    33    75    74    1
    34    81    82    1
    35    72    73    2
    36    82    87   am
    37    82    83    2
    38    10    11    1
    39    10     9    1
    40    10    13    1
    41    14    13    1
    42    87    88    1
    43    11    12    2
    44    95    93   ar
    45    92    93    1
    46    92    91    1
    47    88    91    1
    48    88    89    1
    49    93    94   ar
    50     7     6   ar
    51    96    89   am
    52    96    97    1
    53   104   102   ar
    54    89    90    2
    55   100    97    1
    56   100   101    1
    57     6     8   ar
    58     6     5    1
    59    98    97    1
    60    98    99    2
    61    49    48    1
    62    50    48    1
    63    48    47    2
    64   102   101    1
    65   102   103   ar
    66    39    37   ar
    67    39    38   ar
    68     5     2    1
    69    37    35   ar
    70    47    46    1
    71    38    36   ar
    72     3     4    2
    73     3     2    1
    74    46    45    1
    75     2     1    1
    76    18    17    2
    77    35    36   ar
    78    35    34    1
    79    15    16    1
    80    28    27   ar
    81    45    44    1
    82    17    16    1
    83    17    22   am
    84    27    29   ar
    85    27    26    1
    86    34    31    1
    87    23    26    1
    88    23    22    1
    89    23    24    1
    90    30    24   am
    91    30    31    1
    92    16    19    1
    93    24    25    2
    94    44    41    1
    95    31    32    1
    96    40    32   am
    97    40    41    1
    98    19    21    1
    99    19    20    1
   100    32    33    2
   101    41    42    1
   102    42    43    2
