@<TRIPOS>MOLECULE
tmp/4nzfA00.pdb
 120 116 0 0 0
SMALL
GASTEIGER

@<TRIPOS>ATOM
      1  N          1.5180  -52.4550   -1.1760 N.3    19  TRP19      -0.1241
      2  CA         0.6510  -51.6150   -1.9540 C.3    19  TRP19       0.1605
      3  C          0.0120  -52.3040   -3.1430 C.2    19  TRP19       0.2264
      4  O         -1.1860  -52.2040   -3.3820 O.2    19  TRP19      -0.2867
      5  CB         1.4270  -50.4330   -2.4350 C.3    19  TRP19       0.0550
      6  CG         0.6780  -49.5050   -3.4060 C.ar   19  TRP19       0.0003
      7  CD1        1.0420  -49.2590   -4.6830 C.ar   19  TRP19       0.0946
      8  CD2       -0.4100  -48.6270   -3.1300 C.ar   19  TRP19       0.0152
      9  NE1        0.2170  -48.3140   -5.2460 N.ar   19  TRP19      -0.2442
     10  CE2       -0.6960  -47.9260   -4.3210 C.ar   19  TRP19       0.0810
     11  CE3       -1.1810  -48.3890   -2.0340 C.ar   19  TRP19       0.0012
     12  CZ2       -1.6790  -47.0280   -4.4210 C.ar   19  TRP19       0.0191
     13  CZ3       -2.2020  -47.5540   -2.1470 C.ar   19  TRP19       0.0001
     14  CH2       -2.4320  -46.8360   -3.3160 C.ar   19  TRP19       0.0015
     15  N          2.6060  -50.5120    3.6000 N.3    53  ASP53      -0.1225
     16  CA         2.4280  -49.2850    2.8260 C.3    53  ASP53       0.1805
     17  C          1.3150  -48.3830    3.4150 C.2    53  ASP53       0.2597
     18  O          0.9510  -48.4760    4.6050 O.2    53  ASP53      -0.2718
     19  CB         2.2490  -49.6290    1.3660 C.3    53  ASP53       0.1424
     20  CG         2.7040  -48.4710    0.4240 C.2    53  ASP53       0.3668
     21  OD1        1.8330  -47.7460   -0.1180 O.co2  53  ASP53      -0.2456
     22  OD2        3.9350  -48.3210    0.2790 O.co2  53  ASP53      -0.2456
     23  N          0.7890  -47.4710    2.6170 N.am   54  ILE54      -0.1980
     24  CA         0.1020  -46.3170    3.1130 C.3    54  ILE54       0.1595
     25  C         -1.1740  -46.6610    3.9600 C.2    54  ILE54       0.2287
     26  O         -1.8620  -47.6930    3.7630 O.2    54  ILE54      -0.2864
     27  CB        -0.3020  -45.4910    1.8880 C.3    54  ILE54       0.0276
     28  CG1       -0.9540  -44.1760    2.2770 C.3    54  ILE54       0.0022
     29  CG2       -1.2250  -46.3100    1.0020 C.3    54  ILE54       0.0022
     30  CD1       -1.0340  -43.1410    1.1420 C.3    54  ILE54       0.0001
     31  N         -8.6980  -44.0290   -1.4840 N.3    66  TYR66      -0.1241
     32  CA        -8.6980  -43.6110   -0.1250 C.3    66  TYR66       0.1605
     33  C        -10.1760  -43.1320    0.1710 C.2    66  TYR66       0.2264
     34  O        -10.8640  -42.6050   -0.7320 O.2    66  TYR66      -0.2867
     35  CB        -7.6700  -42.4460    0.1140 C.3    66  TYR66       0.0534
     36  CG        -6.3220  -42.7440   -0.3850 C.ar   66  TYR66      -0.0201
     37  CD1       -5.5840  -43.8020    0.1770 C.ar   66  TYR66      -0.0009
     38  CD2       -5.8260  -42.1120   -1.4890 C.ar   66  TYR66      -0.0009
     39  CE1       -4.3700  -44.1830   -0.3210 C.ar   66  TYR66       0.0417
     40  CE2       -4.5890  -42.4710   -2.0280 C.ar   66  TYR66       0.0417
     41  CZ        -3.8590  -43.4920   -1.4470 C.ar   66  TYR66       0.1957
     42  OH        -2.7120  -43.9050   -1.9890 O.3    66  TYR66      -0.2866
     43  N          5.2170  -46.9070    5.4360 N.3   113  HIS113     -0.1241
     44  CA         4.9370  -45.7180    4.6740 C.3   113  HIS113      0.1621
     45  C          4.4060  -44.6450    5.5640 C.2   113  HIS113      0.2264
     46  O          3.6750  -44.9450    6.4950 O.2   113  HIS113     -0.2867
     47  CB         3.7960  -46.1170    3.7650 C.3   113  HIS113      0.0745
     48  CG         3.4240  -45.1380    2.7310 C.ar  113  HIS113      0.0817
     49  ND1        2.7680  -43.9820    3.0050 N.ar  113  HIS113     -0.2268
     50  CD2        3.4820  -45.2200    1.3930 C.ar  113  HIS113      0.1154
     51  CE1        2.4610  -43.3640    1.8870 C.ar  113  HIS113      0.1986
     52  NE2        2.9140  -44.0870    0.8930 N.ar  113  HIS113     -0.2212
     53  N         -3.9190  -35.8760   -3.9760 N.3   148  TRP148     -0.1241
     54  CA        -4.5080  -37.1460   -4.1660 C.3   148  TRP148      0.1605
     55  C         -4.7920  -37.9170   -2.8650 C.2   148  TRP148      0.2264
     56  O         -5.1440  -39.1200   -2.8690 O.2   148  TRP148     -0.2867
     57  CB        -3.6110  -37.9690   -5.0980 C.3   148  TRP148      0.0550
     58  CG        -2.1800  -37.9880   -4.7490 C.ar  148  TRP148      0.0003
     59  CD1       -1.2060  -37.2110   -5.3020 C.ar  148  TRP148      0.0946
     60  CD2       -1.5330  -38.8740   -3.8080 C.ar  148  TRP148      0.0152
     61  NE1       -0.0080  -37.5230   -4.7220 N.ar  148  TRP148     -0.2442
     62  CE2       -0.1750  -38.5740   -3.8420 C.ar  148  TRP148      0.0810
     63  CE3       -1.9720  -39.9410   -3.0220 C.ar  148  TRP148      0.0012
     64  CZ2        0.7560  -39.2180   -3.0220 C.ar  148  TRP148      0.0191
     65  CZ3       -1.0530  -40.6400   -2.2500 C.ar  148  TRP148      0.0001
     66  CH2        0.3080  -40.2660   -2.2380 C.ar  148  TRP148      0.0015
     67  N          9.1850  -45.1730    3.8120 N.3   182  LYS182     -0.1245
     68  CA         8.8430  -44.6390    2.5130 C.3   182  LYS182      0.1561
     69  C          7.9270  -43.4520    2.7250 C.2   182  LYS182      0.2260
     70  O          6.8380  -43.6150    3.2170 O.2   182  LYS182     -0.2867
     71  CB         8.1380  -45.7610    1.7520 C.3   182  LYS182      0.0271
     72  CG         7.4750  -45.3400    0.4470 C.3   182  LYS182      0.0035
     73  CD         6.8830  -46.5420   -0.3040 C.3   182  LYS182      0.0206
     74  CE         5.9920  -46.0740   -1.4430 C.3   182  LYS182      0.1093
     75  NZ         5.2810  -47.1260   -2.2150 N.3   182  LYS182     -0.1314
     76  N          5.6580  -40.3930    1.2800 N.3   184  ALA184     -0.1245
     77  CA         4.8390  -40.0530    0.1240 C.3   184  ALA184      0.1562
     78  C          4.4860  -38.6160    0.0540 C.2   184  ALA184      0.2260
     79  O          4.6080  -37.9100    1.0480 O.2   184  ALA184     -0.2867
     80  CB         3.5910  -40.8880    0.1670 C.3   184  ALA184      0.0290
     81  N          8.8120  -40.8380   -2.5300 N.3   218  SER218     -0.1203
     82  CA         7.7150  -41.1150   -3.5350 C.3   218  SER218      0.2005
     83  C          6.6570  -40.0120   -3.5570 C.2   218  SER218      0.2460
     84  O          6.6320  -39.1090   -2.6930 O.2   218  SER218     -0.2732
     85  CB         7.0190  -42.4460   -3.2250 C.3   218  SER218      0.2103
     86  OG         6.2950  -42.3400   -2.0100 O.3   218  SER218     -0.2182
     87  N          5.8220  -39.9900   -4.5880 N.am  219  PRO219     -0.2728
     88  CA         5.9260  -40.6940   -5.8180 C.3   219  PRO219      0.1401
     89  C          6.8190  -39.8670   -6.7670 C.2   219  PRO219      0.2269
     90  O          7.0860  -38.7300   -6.5010 O.2   219  PRO219     -0.2865
     91  CB         4.4960  -40.6530   -6.3050 C.3   219  PRO219      0.0296
     92  CG         4.0550  -39.2570   -5.9810 C.3   219  PRO219      0.0237
     93  CD         4.6550  -39.0720   -4.6150 C.3   219  PRO219      0.0939
     94  N         11.9460  -42.1660   -6.1110 N.3   238  ARG238     -0.1245
     95  CA        11.1660  -42.6870   -7.2670 C.3   238  ARG238      0.1563
     96  C         11.3560  -41.8730   -8.5070 C.2   238  ARG238      0.2260
     97  O         11.1030  -40.7130   -8.5220 O.2   238  ARG238     -0.2867
     98  CB         9.6880  -42.7440   -6.8820 C.3   238  ARG238      0.0307
     99  CG         9.4040  -43.9790   -5.9770 C.3   238  ARG238      0.0489
    100  CD         8.9070  -45.1910   -6.7710 C.3   238  ARG238      0.2205
    101  NE         7.8250  -44.6620   -7.5400 N.pl3 238  ARG238     -0.0865
    102  CZ         6.5810  -44.5250   -7.0650 C.cat 238  ARG238      0.5346
    103  NH1        6.2130  -45.1270   -5.9060 N.pl3 238  ARG238      0.1354
    104  NH2        5.6990  -43.8790   -7.8080 N.pl3 238  ARG238      0.1354
    105  N          3.4400  -43.8720  -10.1640 N.3   242  ASP242     -0.1239
    106  CA         3.3020  -45.2690   -9.7310 C.3   242  ASP242      0.1674
    107  C          3.3980  -46.2910  -10.8450 C.2   242  ASP242      0.2266
    108  O          2.7070  -46.1840  -11.8200 O.2   242  ASP242     -0.2867
    109  CB         1.9660  -45.5190   -8.9680 C.3   242  ASP242      0.1410
    110  CG         1.8450  -44.6680   -7.6700 C.2   242  ASP242      0.3668
    111  OD1        2.7630  -43.8510   -7.3800 O.co2 242  ASP242     -0.2456
    112  OD2        0.8060  -44.8000   -6.9490 O.co2 242  ASP242     -0.2456
    113  N          8.2560  -50.5460   -7.3350 N.3   274  MET274     -0.1245
    114  CA         7.8960  -51.8690   -6.9320 C.3   274  MET274      0.1570
    115  C          7.5920  -52.7100   -8.1160 C.2   274  MET274      0.2261
    116  O          7.1860  -52.2260   -9.1050 O.2   274  MET274     -0.2867
    117  CB         6.6710  -51.7450   -5.9890 C.3   274  MET274      0.0387
    118  CG         6.9820  -50.9700   -4.7120 C.3   274  MET274      0.0595
    119  SD         5.5360  -50.5500   -3.7290 S.3   274  MET274     -0.1393
    120  CE         4.6880  -49.3690   -4.8000 C.3   274  MET274      0.0692
@<TRIPOS>BOND
     1   108   107    2
     2   107   106    1
     3   105   106    1
     4   106   109    1
     5   116   115    2
     6   109   110    1
     7    97    96    2
     8    96    95    1
     9   115   114    1
    10   104   102    1
    11   110   111   ar
    12   110   112   ar
    13   101   102    2
    14   101   100    1
    15   113   114    1
    16    95    98    1
    17    95    94    1
    18   102   103    1
    19   114   117    1
    20    98    99    1
    21   100    99    1
    22    89    90    2
    23    89    88    1
    24    91    92    1
    25    91    88    1
    26   117   118    1
    27    92    93    1
    28    88    87    1
    29    59    58   ar
    30    59    61   ar
    31     9     7   ar
    32     9    10   ar
    33    57    58    1
    34    57    54    1
    35   120   119    1
    36    58    60   ar
    37    61    62   ar
    38   118   119    1
    39     7     6   ar
    40    93    87    1
    41    87    83   am
    42    12    10   ar
    43    12    14   ar
    44    10     8   ar
    45    54    53    1
    46    54    55    1
    47    62    60   ar
    48    62    64   ar
    49    60    63   ar
    50    83    82    1
    51    83    84    2
    52    82    85    1
    53    82    81    1
    54     6     8   ar
    55     6     5    1
    56     4     3    2
    57    14    13   ar
    58    85    86    1
    59     3     2    1
    60     8    11   ar
    61    64    66   ar
    62    63    65   ar
    63    56    55    2
    64     5     2    1
    65    65    66   ar
    66    75    74    1
    67    13    11   ar
    68    40    38   ar
    69    40    41   ar
    70    42    41    1
    71     2     1    1
    72    38    36   ar
    73    31    32    1
    74    41    39   ar
    75    74    73    1
    76    34    33    2
    77    36    35    1
    78    36    37   ar
    79    39    37   ar
    80    73    72    1
    81    32    35    1
    82    32    33    1
    83    21    20   ar
    84    78    77    1
    85    78    79    2
    86    77    80    1
    87    77    76    1
    88    22    20   ar
    89    20    19    1
    90    72    71    1
    91    52    50   ar
    92    52    51   ar
    93    29    27    1
    94    30    28    1
    95    19    16    1
    96    50    48   ar
    97    71    68    1
    98    51    49   ar
    99    27    28    1
   100    27    24    1
   101    68    69    1
   102    68    67    1
   103    23    24    1
   104    23    17   am
   105    69    70    2
   106    48    49   ar
   107    48    47    1
   108    16    17    1
   109    16    15    1
   110    24    25    1
   111    17    18    2
   112    26    25    2
   113    47    44    1
   114    44    43    1
   115    44    45    1
   116    45    46    2
