@<TRIPOS>MOLECULE
tmp/4nzgA01.pdb
 82 77 0 0 0
SMALL
GASTEIGER

@<TRIPOS>ATOM
      1  N         60.4050    0.6050   12.0870 N.3    34  MET34      -0.1245
      2  CA        60.6120    1.1810   13.4030 C.3    34  MET34       0.1570
      3  C         61.8390    0.5620   14.0540 C.2    34  MET34       0.2261
      4  O         61.9150   -0.6590   14.2020 O.2    34  MET34      -0.2867
      5  CB        59.3810    0.9550   14.2810 C.3    34  MET34       0.0387
      6  CG        59.4430    1.6500   15.6310 C.3    34  MET34       0.0595
      7  SD        57.8890    1.5010   16.5290 S.3    34  MET34      -0.1393
      8  CE        56.8260    2.5660   15.5590 C.3    34  MET34       0.0692
      9  N         63.1790    2.3270   19.4830 N.3    38  PHE38      -0.1241
     10  CA        61.9220    3.0580   19.4130 C.3    38  PHE38       0.1605
     11  C         60.7610    2.1130   19.6830 C.2    38  PHE38       0.2264
     12  O         59.8220    2.4650   20.3940 O.2    38  PHE38      -0.2867
     13  CB        61.7730    3.7140   18.0390 C.3    38  PHE38       0.0534
     14  CG        60.6530    4.7140   17.9460 C.ar   38  PHE38      -0.0203
     15  CD1       60.9400    6.0660   17.8620 C.ar   38  PHE38      -0.0042
     16  CD2       59.3220    4.3110   17.9290 C.ar   38  PHE38      -0.0042
     17  CE1       59.9270    6.9980   17.7680 C.ar   38  PHE38      -0.0003
     18  CE2       58.3000    5.2430   17.8390 C.ar   38  PHE38      -0.0003
     19  CZ        58.6050    6.5860   17.7590 C.ar   38  PHE38      -0.0000
     20  N         58.1380    2.2670   22.8720 N.3    42  LEU42      -0.1245
     21  CA        56.7180    2.3630   22.5840 C.3    42  LEU42       0.1561
     22  C         55.9300    1.2460   23.2610 C.2    42  LEU42       0.2260
     23  O         54.9570    1.5040   23.9650 O.2    42  LEU42      -0.2867
     24  CB        56.4830    2.3340   21.0730 C.3    42  LEU42       0.0270
     25  CG        55.0200    2.3000   20.6400 C.3    42  LEU42       0.0019
     26  CD1       54.3370    3.5980   21.0310 C.3    42  LEU42       0.0001
     27  CD2       54.9210    2.0610   19.1390 C.3    42  LEU42       0.0001
     28  N         53.1710    1.3050   26.3260 N.3    46  LEU46      -0.1245
     29  CA        51.8090    0.8050   26.1580 C.3    46  LEU46       0.1561
     30  C         51.4540   -0.2630   27.1870 C.2    46  LEU46       0.2260
     31  O         50.3250   -0.3070   27.6790 O.2    46  LEU46      -0.2867
     32  CB        51.6160    0.2450   24.7450 C.3    46  LEU46       0.0270
     33  CG        51.6970    1.2620   23.6050 C.3    46  LEU46       0.0019
     34  CD1       51.5760    0.5780   22.2510 C.3    46  LEU46       0.0001
     35  CD2       50.6070    2.3120   23.7690 C.3    46  LEU46       0.0001
     36  N         48.0870   -5.5760   18.2620 N.3    61  LEU61      -0.1245
     37  CA        48.9770   -4.8400   17.3710 C.3    61  LEU61       0.1561
     38  C         48.8230   -5.2380   15.9050 C.2    61  LEU61       0.2260
     39  O         48.9340   -4.3930   15.0210 O.2    61  LEU61      -0.2867
     40  CB        50.4320   -5.0300   17.8080 C.3    61  LEU61       0.0270
     41  CG        50.8390   -4.2280   19.0440 C.3    61  LEU61       0.0019
     42  CD1       52.0260   -4.8720   19.7380 C.3    61  LEU61       0.0001
     43  CD2       51.1560   -2.7920   18.6580 C.3    61  LEU61       0.0001
     44  N         46.0350   -3.3670   14.3970 N.3    64  SER64      -0.1217
     45  CA        46.1530   -1.9350   14.6890 C.3    64  SER64       0.1889
     46  C         46.1990   -0.9890   13.4840 C.2    64  SER64       0.2288
     47  O         46.1570    0.2330   13.6600 O.2    64  SER64      -0.2866
     48  CB        47.3980   -1.6930   15.5480 C.3    64  SER64       0.2089
     49  OG        48.5870   -1.9860   14.8400 O.3    64  SER64      -0.2183
     50  N         48.8450   -0.6010   11.8700 N.3    66  SER66      -0.1203
     51  CA        50.1010    0.0900   12.1160 C.3    66  SER66       0.2005
     52  C         50.7990    0.3050   10.7880 C.2    66  SER66       0.2461
     53  O         50.9170   -0.6200    9.9910 O.2    66  SER66      -0.2732
     54  CB        50.9920   -0.7040   13.0790 C.3    66  SER66       0.2103
     55  OG        52.2630   -0.0970   13.2330 O.3    66  SER66      -0.2182
     56  N         51.2440    1.5420   10.5390 N.am   67  PRO67      -0.2717
     57  CA        51.9560    1.8780    9.3050 C.3    67  PRO67       0.1535
     58  C         53.4130    1.4350    9.3470 C.2    67  PRO67       0.2598
     59  O         54.1330    1.6150    8.3640 O.2    67  PRO67      -0.2715
     60  CB        51.8470    3.4030    9.2400 C.3    67  PRO67       0.0310
     61  CG        51.6900    3.8430   10.6570 C.3    67  PRO67       0.0237
     62  CD        51.1480    2.6890   11.4610 C.3    67  PRO67       0.0939
     63  N         53.8350    0.8450   10.4620 N.am   68  TYR68      -0.1974
     64  CA        55.2440    0.5060   10.6470 C.3    68  TYR68       0.1639
     65  C         55.5390   -0.9810   10.8010 C.2    68  TYR68       0.2290
     66  O         54.7360   -1.7380   11.3460 O.2    68  TYR68      -0.2864
     67  CB        55.7850    1.2300   11.8810 C.3    68  TYR68       0.0560
     68  CG        55.6940    2.7270   11.7850 C.ar   68  TYR68      -0.0198
     69  CD1       56.4720    3.4290   10.8820 C.ar   68  TYR68      -0.0009
     70  CD2       54.8290    3.4420   12.6040 C.ar   68  TYR68      -0.0009
     71  CE1       56.3910    4.7980   10.7870 C.ar   68  TYR68       0.0417
     72  CE2       54.7430    4.8160   12.5190 C.ar   68  TYR68       0.0417
     73  CZ        55.5280    5.4880   11.6060 C.ar   68  TYR68       0.1957
     74  OH        55.4540    6.8570   11.5070 O.3    68  TYR68      -0.2866
     75  N         57.8270   -3.2420   12.9470 N.3    70  MET70      -0.1245
     76  CA        58.5480   -3.0780   14.2090 C.3    70  MET70       0.1570
     77  C         59.6730   -4.1000   14.3400 C.2    70  MET70       0.2261
     78  O         59.4300   -5.3000   14.4610 O.2    70  MET70      -0.2867
     79  CB        57.5860   -3.1880   15.3950 C.3    70  MET70       0.0387
     80  CG        56.5210   -2.1000   15.4230 C.3    70  MET70       0.0595
     81  SD        55.4170   -2.2030   16.8510 S.3    70  MET70      -0.1393
     82  CE        54.4690   -0.7010   16.6360 C.3    70  MET70       0.0692
@<TRIPOS>BOND
     1    59    58    2
     2    60    57    1
     3    60    61    1
     4    57    58    1
     5    57    56    1
     6    58    63   am
     7    53    52    2
     8    63    64    1
     9    56    52   am
    10    56    62    1
    11    64    65    1
    12    64    67    1
    13    61    62    1
    14    71    69   ar
    15    71    73   ar
    16    52    51    1
    17    65    66    2
    18    69    68   ar
    19    74    73    1
    20    73    72   ar
    21    68    67    1
    22    68    70   ar
    23    50    51    1
    24     1     2    1
    25    51    54    1
    26    72    70   ar
    27    75    76    1
    28    54    55    1
    29     2     3    1
    30     2     5    1
    31    46    47    2
    32    46    45    1
    33     3     4    2
    34    76    77    1
    35    76    79    1
    36     5     6    1
    37    77    78    2
    38    44    45    1
    39    45    48    1
    40    49    48    1
    41    39    38    2
    42    79    80    1
    43    80    81    1
    44     8     7    1
    45     6     7    1
    46    38    37    1
    47    82    81    1
    48    37    40    1
    49    37    36    1
    50    19    17   ar
    51    19    18   ar
    52    17    15   ar
    53    40    41    1
    54    18    16   ar
    55    15    14   ar
    56    16    14   ar
    57    14    13    1
    58    13    10    1
    59    43    41    1
    60    41    42    1
    61    27    25    1
    62    10     9    1
    63    10    11    1
    64    11    12    2
    65    25    26    1
    66    25    24    1
    67    24    21    1
    68    34    33    1
    69    21    20    1
    70    21    22    1
    71    22    23    2
    72    33    35    1
    73    33    32    1
    74    32    29    1
    75    29    28    1
    76    29    30    1
    77    30    31    2
