@<TRIPOS>MOLECULE
tmp/4nzhA01.pdb
 96 89 0 0 0
SMALL
GASTEIGER

@<TRIPOS>ATOM
      1  N        -29.2050  -33.5340   11.8280 N.3    68  GLN68      -0.1231
      2  CA       -28.6350  -34.5780   10.9860 C.3    68  GLN68       0.1698
      3  C        -28.5080  -35.8980   11.7500 C.2    68  GLN68       0.2592
      4  O        -27.7760  -36.7930   11.3300 O.2    68  GLN68      -0.2718
      5  CB       -27.2800  -34.1350   10.4320 C.3    68  GLN68       0.0381
      6  CG       -27.3280  -32.8410    9.6310 C.3    68  GLN68       0.0905
      7  CD       -25.9580  -32.2160    9.4750 C.2    68  GLN68       0.2608
      8  OE1      -25.6190  -31.2550   10.1670 O.2    68  GLN68      -0.2717
      9  NE2      -25.1550  -32.7690    8.5750 N.am   68  GLN68      -0.0878
     10  N        -29.2270  -35.9980   12.8680 N.am   69  ILE69      -0.1966
     11  CA       -29.2560  -37.1990   13.7130 C.3    69  ILE69       0.1727
     12  C        -30.6430  -37.4170   14.2810 C.2    69  ILE69       0.2616
     13  O        -31.3630  -36.4550   14.5530 O.2    69  ILE69      -0.2715
     14  CB       -28.3320  -37.0860   14.9450 C.3    69  ILE69       0.0290
     15  CG1      -28.1290  -35.6220   15.3350 C.3    69  ILE69       0.0022
     16  CG2      -27.0190  -37.8030   14.7060 C.3    69  ILE69       0.0023
     17  CD1      -27.9450  -35.4090   16.8160 C.3    69  ILE69       0.0001
     18  N        -30.9910  -38.6830   14.4960 N.am   70  SER70      -0.1950
     19  CA       -32.2640  -39.0590   15.1070 C.3    70  SER70       0.1924
     20  C        -32.4540  -38.4020   16.4760 C.2    70  SER70       0.2314
     21  O        -31.5040  -38.3040   17.2580 O.2    70  SER70      -0.2863
     22  CB       -32.3480  -40.5830   15.2320 C.3    70  SER70       0.2116
     23  OG       -33.5170  -40.9910   15.9260 O.3    70  SER70      -0.2180
     24  N        -31.0790  -39.9080   19.6960 N.3    73  LYS73      -0.1245
     25  CA       -29.7520  -39.5170   20.1480 C.3    73  LYS73       0.1561
     26  C        -29.7900  -38.1100   20.7450 C.2    73  LYS73       0.2260
     27  O        -28.9750  -37.2530   20.4030 O.2    73  LYS73      -0.2867
     28  CB       -28.7470  -39.6080   18.9950 C.3    73  LYS73       0.0271
     29  CG       -28.7760  -40.9560   18.2800 C.3    73  LYS73       0.0035
     30  CD       -27.5020  -41.1850   17.4930 C.3    73  LYS73       0.0206
     31  CE       -27.5290  -42.5070   16.7490 C.3    73  LYS73       0.1093
     32  NZ       -26.1720  -42.7870   16.2010 N.3    73  LYS73      -0.1314
     33  N        -22.5920  -40.0260    4.5700 N.3   253  ASP253     -0.1225
     34  CA       -22.8850  -41.4500    4.6480 C.3   253  ASP253      0.1805
     35  C        -23.5930  -41.7490    5.9610 C.2   253  ASP253      0.2597
     36  O        -22.9700  -41.7620    7.0230 O.2   253  ASP253     -0.2718
     37  CB       -21.6040  -42.2770    4.5110 C.3   253  ASP253      0.1424
     38  CG       -21.8780  -43.7550    4.2700 C.2   253  ASP253      0.3668
     39  OD1      -23.0420  -44.1950    4.4070 O.co2 253  ASP253     -0.2456
     40  OD2      -20.9150  -44.4790    3.9440 O.co2 253  ASP253     -0.2456
     41  N        -24.9020  -41.9660    5.8780 N.am  254  ASP254     -0.1974
     42  CA       -25.6980  -42.3440    7.0410 C.3   254  ASP254      0.1709
     43  C        -26.2680  -43.7600    6.8970 C.2   254  ASP254      0.2293
     44  O        -27.1920  -44.1390    7.6270 O.2   254  ASP254     -0.2864
     45  CB       -26.8230  -41.3290    7.2830 C.3   254  ASP254      0.1436
     46  CG       -27.8920  -41.3650    6.2020 C.2   254  ASP254      0.3671
     47  OD1      -27.6570  -41.9670    5.1300 O.co2 254  ASP254     -0.2456
     48  OD2      -28.9770  -40.7910    6.4270 O.co2 254  ASP254     -0.2456
     49  N        -22.8380  -46.2450    9.7520 N.3   259  ASN259     -0.1240
     50  CA       -23.2960  -45.4120   10.8640 C.3   259  ASN259      0.1653
     51  C        -23.0660  -45.9900   12.2640 C.2   259  ASN259      0.2266
     52  O        -23.0700  -45.2510   13.2480 O.2   259  ASN259     -0.2867
     53  CB       -24.7770  -45.0630   10.6860 C.3   259  ASN259      0.1155
     54  CG       -25.1530  -43.7600   11.3580 C.2   259  ASN259      0.2627
     55  OD1      -26.0010  -43.7310   12.2510 O.2   259  ASN259     -0.2716
     56  ND2      -24.5150  -42.6740   10.9390 N.am  259  ASN259     -0.0877
     57  N        -20.8040  -44.6310   15.0510 N.3   262  PHE262     -0.1241
     58  CA       -21.2760  -43.6090   15.9740 C.3   262  PHE262      0.1605
     59  C        -21.9340  -44.1840   17.2300 C.2   262  PHE262      0.2264
     60  O        -22.3300  -43.4300   18.1210 O.2   262  PHE262     -0.2867
     61  CB       -22.2280  -42.6350   15.2660 C.3   262  PHE262      0.0534
     62  CG       -21.5890  -41.8830   14.1330 C.ar  262  PHE262     -0.0203
     63  CD1      -20.8070  -40.7580   14.3790 C.ar  262  PHE262     -0.0042
     64  CD2      -21.7600  -42.3070   12.8150 C.ar  262  PHE262     -0.0042
     65  CE1      -20.2080  -40.0690   13.3320 C.ar  262  PHE262     -0.0003
     66  CE2      -21.1690  -41.6140   11.7650 C.ar  262  PHE262     -0.0003
     67  CZ       -20.3940  -40.4930   12.0240 C.ar  262  PHE262     -0.0000
     68  N        -18.6960  -39.5100    6.4730 N.3   288  THR288     -0.1203
     69  CA       -19.8380  -39.5740    7.3920 C.3   288  THR288      0.1994
     70  C        -20.1390  -38.2470    8.0840 C.2   288  THR288      0.2617
     71  O        -21.2510  -38.0400    8.5820 O.2   288  THR288     -0.2717
     72  CB       -19.6500  -40.6590    8.4690 C.3   288  THR288      0.1784
     73  OG1      -18.4150  -40.4410    9.1610 O.3   288  THR288     -0.2211
     74  CG2      -19.6410  -42.0420    7.8450 C.3   288  THR288      0.0376
     75  N        -19.1510  -37.3530    8.1140 N.am  289  ASN289     -0.1974
     76  CA       -19.3030  -36.0700    8.7920 C.3   289  ASN289      0.1688
     77  C        -18.4900  -34.9370    8.1710 C.2   289  ASN289      0.2292
     78  O        -18.9000  -33.7770    8.2270 O.2   289  ASN289     -0.2864
     79  CB       -18.9670  -36.2040   10.2850 C.3   289  ASN289      0.1181
     80  CG       -19.2830  -34.9450   11.0770 C.2   289  ASN289      0.2629
     81  OD1      -20.3000  -34.2810   10.8470 O.2   289  ASN289     -0.2716
     82  ND2      -18.4080  -34.6090   12.0190 N.am  289  ASN289     -0.0877
     83  N        -19.5920  -34.6360   18.2150 N.3   425  LEU425     -0.1245
     84  CA       -20.9970  -34.6120   17.8160 C.3   425  LEU425      0.1561
     85  C        -21.9340  -34.7950   19.0060 C.2   425  LEU425      0.2260
     86  O        -21.4820  -34.8870   20.1430 O.2   425  LEU425     -0.2867
     87  CB       -21.2640  -35.6790   16.7420 C.3   425  LEU425      0.0270
     88  CG       -20.4180  -35.6260   15.4630 C.3   425  LEU425      0.0019
     89  CD1      -20.7240  -36.8140   14.5630 C.3   425  LEU425      0.0001
     90  CD2      -20.6170  -34.3200   14.7000 C.3   425  LEU425      0.0001
     91  N        -23.8750  -37.4200   19.0090 N.3   427  SER427     -0.1217
     92  CA       -24.1070  -38.8710   18.8950 C.3   427  SER427      0.1889
     93  C        -23.9980  -39.6900   20.1850 C.2   427  SER427      0.2288
     94  O        -24.8110  -40.5900   20.4150 O.2   427  SER427     -0.2866
     95  CB       -23.1610  -39.4810   17.8530 C.3   427  SER427      0.2089
     96  OG       -23.2460  -38.7970   16.6190 O.3   427  SER427     -0.2183
@<TRIPOS>BOND
     1    40    38   ar
     2    38    39   ar
     3    38    37    1
     4    37    34    1
     5    33    34    1
     6    34    35    1
     7    47    46   ar
     8    41    35   am
     9    41    42    1
    10    35    36    2
    11    46    48   ar
    12    46    45    1
    13    68    69    1
    14    43    42    1
    15    43    44    2
    16    42    45    1
    17    69    70    1
    18    69    72    1
    19    74    72    1
    20    70    75   am
    21    70    71    2
    22    75    76    1
    23    77    78    2
    24    77    76    1
    25    72    73    1
    26     9     7   am
    27    76    79    1
    28     7     6    1
    29     7     8    2
    30     6     5    1
    31    49    50    1
    32    79    80    1
    33     5     2    1
    34    53    50    1
    35    53    54    1
    36    81    80    2
    37    50    51    1
    38    56    54   am
    39     2     3    1
    40     2     1    1
    41    80    82   am
    42     4     3    2
    43    54    55    2
    44     3    10   am
    45    66    67   ar
    46    66    64   ar
    47    67    65   ar
    48    51    52    2
    49    64    62   ar
    50    10    11    1
    51    65    63   ar
    52    11    12    1
    53    11    14    1
    54    62    63   ar
    55    62    61    1
    56    12    18   am
    57    12    13    2
    58    18    19    1
    59    89    88    1
    60    90    88    1
    61    16    14    1
    62    14    15    1
    63    57    58    1
    64    19    22    1
    65    19    20    1
    66    22    23    1
    67    61    58    1
    68    15    17    1
    69    88    87    1
    70    58    59    1
    71    32    31    1
    72    20    21    2
    73    96    95    1
    74    87    84    1
    75    31    30    1
    76    59    60    2
    77    30    29    1
    78    84    83    1
    79    84    85    1
    80    95    92    1
    81    29    28    1
    82    92    91    1
    83    92    93    1
    84    28    25    1
    85    85    86    2
    86    24    25    1
    87    25    26    1
    88    93    94    2
    89    27    26    2
