@<TRIPOS>MOLECULE
tmp/4nzlA01.pdb
 81 79 0 0 0
SMALL
GASTEIGER

@<TRIPOS>ATOM
      1  N        -34.4210   19.7630  -17.6540 N.3     5  ARG5       -0.1245
      2  CA       -35.4290   18.9650  -18.3510 C.3     5  ARG5        0.1563
      3  C        -36.4450   18.4450  -17.3340 C.2     5  ARG5        0.2260
      4  O        -36.1540   18.4070  -16.1400 O.2     5  ARG5       -0.2867
      5  CB       -34.7680   17.7980  -19.0830 C.3     5  ARG5        0.0307
      6  CG       -33.9770   16.9040  -18.1470 C.3     5  ARG5        0.0489
      7  CD       -33.3610   15.6840  -18.8520 C.3     5  ARG5        0.2205
      8  NE       -32.5980   14.9080  -17.8760 N.pl3   5  ARG5       -0.0865
      9  CZ       -31.3040   15.1100  -17.6230 C.cat   5  ARG5        0.5346
     10  NH1      -30.6270   16.0220  -18.3140 N.pl3   5  ARG5        0.1354
     11  NH2      -30.6810   14.3920  -16.7000 N.pl3   5  ARG5        0.1354
     12  N        -37.2810   10.5040   -8.4150 N.3    12  TRP12      -0.1241
     13  CA       -36.5280   10.8550   -7.2060 C.3    12  TRP12       0.1605
     14  C        -37.4730   10.8830   -6.0200 C.2    12  TRP12       0.2264
     15  O        -37.8890   11.9500   -5.5680 O.2    12  TRP12      -0.2867
     16  CB       -35.8240   12.2110   -7.3870 C.3    12  TRP12       0.0550
     17  CG       -35.1940   12.3050   -8.7360 C.ar   12  TRP12       0.0003
     18  CD1      -35.5550   13.1250   -9.7660 C.ar   12  TRP12       0.0946
     19  CD2      -34.1260   11.4880   -9.2240 C.ar   12  TRP12       0.0152
     20  NE1      -34.7580   12.8780  -10.8690 N.ar   12  TRP12      -0.2442
     21  CE2      -33.8790   11.8720  -10.5550 C.ar   12  TRP12       0.0810
     22  CE3      -33.3570   10.4600   -8.6610 C.ar   12  TRP12       0.0012
     23  CZ2      -32.8920   11.2640  -11.3330 C.ar   12  TRP12       0.0191
     24  CZ3      -32.3740    9.8610   -9.4380 C.ar   12  TRP12       0.0001
     25  CH2      -32.1510   10.2690  -10.7550 C.ar   12  TRP12       0.0015
     26  N        -19.6740   14.6710  -11.3920 N.3   121  GLN121     -0.1231
     27  CA       -20.9430   14.8930  -12.0830 C.3   121  GLN121      0.1698
     28  C        -22.1210   14.5920  -11.1680 C.2   121  GLN121      0.2592
     29  O        -22.2370   13.4830  -10.6330 O.2   121  GLN121     -0.2718
     30  CB       -21.0480   14.0230  -13.3370 C.3   121  GLN121      0.0381
     31  CG       -19.9080   14.1730  -14.3250 C.3   121  GLN121      0.0905
     32  CD       -19.8540   15.5430  -14.9520 C.2   121  GLN121      0.2608
     33  OE1      -18.8130   16.1970  -14.9400 O.2   121  GLN121     -0.2717
     34  NE2      -20.9760   15.9830  -15.5170 N.am  121  GLN121     -0.0878
     35  N        -23.0030   15.5760  -11.0250 N.am  122  CYS122     -0.1956
     36  CA       -24.1280   15.5030  -10.0980 C.3   122  CYS122      0.1843
     37  C        -25.4180   15.8580  -10.8160 C.2   122  CYS122      0.2625
     38  O        -25.4140   16.2880  -11.9730 O.2   122  CYS122     -0.2714
     39  CB       -23.9340   16.4590   -8.9140 C.3   122  CYS122      0.0997
     40  SG       -22.4430   16.2100   -7.9040 S.3   122  CYS122     -0.0797
     41  N        -26.5230   15.7050  -10.1070 N.am  123  LEU123     -0.1977
     42  CA       -27.8130   16.1000  -10.6430 C.3   123  LEU123      0.1596
     43  C        -28.4970   17.0250   -9.6450 C.2   123  LEU123      0.2287
     44  O        -28.6250   16.6760   -8.4800 O.2   123  LEU123     -0.2864
     45  CB       -28.6720   14.8590  -10.9040 C.3   123  LEU123      0.0297
     46  CG       -29.8910   14.9770  -11.8020 C.3   123  LEU123      0.0022
     47  CD1      -29.4570   15.2490  -13.2290 C.3   123  LEU123      0.0001
     48  CD2      -30.6890   13.6760  -11.7270 C.3   123  LEU123      0.0001
     49  N        -28.1840   18.3290  -15.1210 N.3   144  ASN144     -0.1240
     50  CA       -26.8140   17.8420  -14.9770 C.3   144  ASN144      0.1653
     51  C        -25.8800   18.9950  -14.6560 C.2   144  ASN144      0.2266
     52  O        -25.8090   19.9530  -15.4290 O.2   144  ASN144     -0.2867
     53  CB       -26.3480   17.1530  -16.2650 C.3   144  ASN144      0.1155
     54  CG       -26.9760   15.8060  -16.4550 C.2   144  ASN144      0.2627
     55  OD1      -28.1950   15.6900  -16.5990 O.2   144  ASN144     -0.2716
     56  ND2      -26.1450   14.7650  -16.4740 N.am  144  ASN144     -0.0877
     57  N        -27.7430   15.5330   -5.9510 N.3   178  VAL178     -0.1231
     58  CA       -27.4470   14.0970   -5.9020 C.3   178  VAL178      0.1692
     59  C        -26.1530   13.8110   -6.6520 C.2   178  VAL178      0.2592
     60  O        -26.0140   14.1750   -7.8170 O.2   178  VAL178     -0.2718
     61  CB       -28.5820   13.2570   -6.5240 C.3   178  VAL178      0.0266
     62  CG1      -28.3340   11.7500   -6.2670 C.3   178  VAL178      0.0020
     63  CG2      -29.9320   13.6920   -5.9600 C.3   178  VAL178      0.0020
     64  N        -25.2210   13.1370   -5.9920 N.am  179  CYS179     -0.1956
     65  CA       -23.9220   12.8430   -6.5950 C.3   179  CYS179      0.1843
     66  C        -23.5970   11.3860   -6.3350 C.2   179  CYS179      0.2625
     67  O        -23.4400   10.9870   -5.1850 O.2   179  CYS179     -0.2714
     68  CB       -22.8130   13.7300   -6.0200 C.3   179  CYS179      0.0997
     69  SG       -23.1000   15.5230   -6.0760 S.3   179  CYS179     -0.0797
     70  N        -23.5150   10.6110   -7.4100 N.am  180  ASN180     -0.1958
     71  CA       -23.3540    9.1590   -7.3380 C.3   180  ASN180      0.1819
     72  C        -24.2980    8.4990   -6.3360 C.2   180  ASN180      0.2621
     73  O        -23.8880    7.6690   -5.5210 O.2   180  ASN180     -0.2715
     74  CB       -21.8930    8.8340   -7.0350 C.3   180  ASN180      0.1195
     75  CG       -20.9670    9.3390   -8.1240 C.2   180  ASN180      0.2630
     76  OD1      -21.1350    9.0010   -9.2990 O.2   180  ASN180     -0.2716
     77  ND2      -20.0030   10.1710   -7.7500 N.am  180  ASN180     -0.0877
     78  N        -25.5710    8.8880   -6.4040 N.am  181  GLY181     -0.1954
     79  CA       -26.6170    8.2570   -5.6270 C.3   181  GLY181      0.1869
     80  C        -26.8070    8.7980   -4.2220 C.2   181  GLY181      0.2309
     81  O        -27.7460    8.4020   -3.5320 O.2   181  GLY181     -0.2863
@<TRIPOS>BOND
     1     5     2    1
     2     5     6    1
     3     7     6    1
     4     7     8    1
     5     2     1    1
     6     2     3    1
     7    10     9    1
     8     8     9    2
     9     9    11    1
    10     3     4    2
    11    55    54    2
    12    56    54   am
    13    54    53    1
    14    53    50    1
    15    34    32   am
    16    52    51    2
    17    49    50    1
    18    50    51    1
    19    32    33    2
    20    32    31    1
    21    31    30    1
    22    30    27    1
    23    47    46    1
    24    27    26    1
    25    27    28    1
    26    38    37    2
    27    46    48    1
    28    46    45    1
    29    23    25   ar
    30    23    21   ar
    31    28    35   am
    32    28    29    2
    33    35    36    1
    34    45    42    1
    35    20    21   ar
    36    20    18   ar
    37    37    41   am
    38    37    36    1
    39    25    24   ar
    40    42    41    1
    41    42    43    1
    42    21    19   ar
    43    36    39    1
    44    18    17   ar
    45    43    44    2
    46    24    22   ar
    47    76    75    2
    48    19    17   ar
    49    19    22   ar
    50    39    40    1
    51    17    16    1
    52    12    13    1
    53    75    77   am
    54    75    74    1
    55    40    69    1
    56    60    59    2
    57    70    71    1
    58    70    66   am
    59    16    13    1
    60    71    74    1
    61    71    72    1
    62    13    14    1
    63    59    64   am
    64    59    58    1
    65    65    66    1
    66    65    68    1
    67    65    64    1
    68    61    62    1
    69    61    63    1
    70    61    58    1
    71    78    72   am
    72    78    79    1
    73    72    73    2
    74    66    67    2
    75    69    68    1
    76    14    15    2
    77    57    58    1
    78    79    80    1
    79    80    81    2
