@<TRIPOS>MOLECULE
tmp/4nznA01.pdb
 101 98 0 0 0
SMALL
GASTEIGER

@<TRIPOS>ATOM
      1  N        -11.9000   24.7250    6.8180 N.3    10  MET10      -0.1245
      2  CA       -12.2330   25.1150    8.1830 C.3    10  MET10       0.1570
      3  C        -11.4960   26.4060    8.5080 C.2    10  MET10       0.2261
      4  O        -10.4230   26.6660    7.9630 O.2    10  MET10      -0.2867
      5  CB       -11.8670   24.0120    9.1730 C.3    10  MET10       0.0387
      6  CG       -12.5980   22.7100    8.9010 C.3    10  MET10       0.0595
      7  SD       -14.3870   22.8380    9.1190 S.3    10  MET10      -0.1393
      8  CE       -14.5050   22.7240   10.9020 C.3    10  MET10       0.0692
      9  N         -9.7710   27.4350   11.0440 N.3    12  LYS12      -0.1231
     10  CA        -8.4020   27.2130   11.5370 C.3    12  LYS12       0.1693
     11  C         -7.3910   27.2230   10.3930 C.2    12  LYS12       0.2591
     12  O         -6.2580   27.6830   10.5540 O.2    12  LYS12      -0.2718
     13  CB        -8.3260   25.8620   12.2610 C.3    12  LYS12       0.0285
     14  CG        -7.1400   25.6910   13.2060 C.3    12  LYS12       0.0035
     15  CD        -7.0240   24.2600   13.7400 C.3    12  LYS12       0.0206
     16  CE        -8.3880   23.6080   13.9360 C.3    12  LYS12       0.1093
     17  NZ        -8.3490   22.3160   14.6700 N.3    12  LYS12      -0.1314
     18  N         -7.8160   26.7130    9.2370 N.am   13  LYS13      -0.1980
     19  CA        -6.9590   26.6340    8.0640 C.3    13  LYS13       0.1596
     20  C         -7.0410   27.8950    7.2050 C.2    13  LYS13       0.2287
     21  O         -6.0080   28.4160    6.7790 O.2    13  LYS13      -0.2864
     22  CB        -7.3320   25.4170    7.2200 C.3    13  LYS13       0.0298
     23  CG        -7.3650   24.0920    7.9870 C.3    13  LYS13       0.0038
     24  CD        -6.0510   23.7870    8.6790 C.3    13  LYS13       0.0206
     25  CE        -6.1500   22.4580    9.4180 C.3    13  LYS13       0.1093
     26  NZ        -4.8430   22.0230    9.9610 N.3    13  LYS13      -0.1314
     27  N         -9.9980   19.0590    2.9950 N.3    60  HIS60      -0.1226
     28  CA       -10.5130   18.4790    4.2030 C.3    60  HIS60       0.1752
     29  C         -9.5130   18.5930    5.3440 C.2    60  HIS60       0.2597
     30  O         -8.2940   18.4340    5.1490 O.2    60  HIS60      -0.2718
     31  CB       -10.8470   17.0120    3.9440 C.3    60  HIS60       0.0759
     32  CG       -11.2750   16.2700    5.1650 C.ar   60  HIS60       0.0818
     33  ND1      -10.3830   15.6130    5.9830 N.ar   60  HIS60      -0.2268
     34  CD2      -12.4960   16.0980    5.7210 C.ar   60  HIS60       0.1154
     35  CE1      -11.0390   15.0600    6.9880 C.ar   60  HIS60       0.1986
     36  NE2      -12.3210   15.3450    6.8570 N.ar   60  HIS60      -0.2212
     37  N        -10.0410   18.9080    6.5260 N.am   61  SER61      -0.1938
     38  CA        -9.3380   18.7020    7.7940 C.3    61  SER61       0.2055
     39  C        -10.3970   18.3000    8.8100 C.2    61  SER61       0.2643
     40  O        -11.5770   18.2110    8.4660 O.2    61  SER61      -0.2714
     41  CB        -8.5690   19.9490    8.2390 C.3    61  SER61       0.2130
     42  OG        -9.4220   21.0620    8.4090 O.3    61  SER61      -0.2179
     43  N        -10.0010   18.0440   10.0500 N.am   62  LYS62      -0.1963
     44  CA       -10.9690   17.5410   11.0340 C.3    62  LYS62       0.1728
     45  C        -12.1970   18.4520   11.1290 C.2    62  LYS62       0.2616
     46  O        -12.0660   19.6610   11.2940 O.2    62  LYS62      -0.2715
     47  CB       -10.3200   17.3820   12.4090 C.3    62  LYS62       0.0311
     48  CG       -11.2110   16.6680   13.4080 C.3    62  LYS62       0.0038
     49  CD       -10.4650   16.3580   14.6900 C.3    62  LYS62       0.0206
     50  CE       -11.3510   15.6420   15.6970 C.3    62  LYS62       0.1093
     51  NZ       -11.5430   14.2030   15.3470 N.3    62  LYS62      -0.1314
     52  N        -13.3860   17.8640   11.0000 N.am   63  GLY63      -0.1955
     53  CA       -14.6380   18.6080   11.1200 C.3    63  GLY63       0.1869
     54  C        -15.2170   19.0920    9.7960 C.2    63  GLY63       0.2309
     55  O        -16.3770   19.4860    9.7300 O.2    63  GLY63      -0.2863
     56  N         -5.5670    9.8600    9.4270 N.3   151  GLU151     -0.1231
     57  CA        -5.8120   10.9000   10.4170 C.3   151  GLU151      0.1699
     58  C         -5.4530   10.4660   11.8450 C.2   151  GLU151      0.2592
     59  O         -5.5240   11.2710   12.7710 O.2   151  GLU151     -0.2718
     60  CB        -7.2850   11.3150   10.3820 C.3   151  GLU151      0.0402
     61  CG        -7.7900   11.7620    9.0170 C.3   151  GLU151      0.1161
     62  CD        -9.1530   12.4170    9.1100 C.2   151  GLU151      0.3649
     63  OE1      -10.1640   11.7080    8.8970 O.co2 151  GLU151     -0.2457
     64  OE2       -9.2160   13.6300    9.4270 O.co2 151  GLU151     -0.2457
     65  N         -5.1140    9.1910   12.0330 N.am  152  ASP152     -0.1960
     66  CA        -4.6930    8.6920   13.3530 C.3   152  ASP152      0.1840
     67  C         -3.1650    8.6300   13.3470 C.2   152  ASP152      0.2622
     68  O         -2.5640    7.8260   12.6290 O.2   152  ASP152     -0.2715
     69  CB        -5.3400    7.3210   13.6250 C.3   152  ASP152      0.1450
     70  CG        -4.9520    6.7140   14.9790 C.2   152  ASP152      0.3671
     71  OD1       -3.9680    7.1520   15.6150 O.co2 152  ASP152     -0.2456
     72  OD2       -5.6420    5.7570   15.3950 O.co2 152  ASP152     -0.2456
     73  N         -2.5500    9.5080   14.1380 N.am  153  HIS153     -0.1959
     74  CA        -1.1070    9.7160   14.1250 C.3   153  HIS153      0.1787
     75  C         -0.3490    8.8840   15.1640 C.2   153  HIS153      0.2620
     76  O          0.8460    9.0940   15.3920 O.2   153  HIS153     -0.2715
     77  CB        -0.8250   11.2190   14.2780 C.3   153  HIS153      0.0785
     78  CG        -1.4810   12.0420   13.2120 C.ar  153  HIS153      0.0821
     79  ND1       -1.1850   11.8840   11.8770 N.ar  153  HIS153     -0.2267
     80  CD2       -2.4530   12.9840   13.2700 C.ar  153  HIS153      0.1154
     81  CE1       -1.9230   12.7100   11.1590 C.ar  153  HIS153      0.1986
     82  NE2       -2.7000   13.3900   11.9790 N.ar  153  HIS153     -0.2212
     83  N         -1.0510    7.9340   15.7800 N.am  154  ASN154     -0.1972
     84  CA        -0.4420    6.9880   16.7180 C.3   154  ASN154      0.1688
     85  C          0.2960    5.8550   15.9810 C.2   154  ASN154      0.2292
     86  O         -0.1420    4.7120   15.9550 O.2   154  ASN154     -0.2864
     87  CB        -1.5060    6.4450   17.6720 C.3   154  ASN154      0.1181
     88  CG        -2.1270    7.5500   18.5090 C.2   154  ASN154      0.2629
     89  OD1       -1.4490    8.1720   19.3180 O.2   154  ASN154     -0.2716
     90  ND2       -3.3990    7.8270   18.2880 N.am  154  ASN154     -0.0877
     91  N          0.8470   13.1990   17.4350 N.3   172  ARG172     -0.1245
     92  CA         0.8140   14.6190   17.1020 C.3   172  ARG172      0.1563
     93  C          1.5230   15.3740   18.2260 C.2   172  ARG172      0.2260
     94  O          1.2310   15.1340   19.3880 O.2   172  ARG172     -0.2867
     95  CB        -0.6440   15.0860   16.9750 C.3   172  ARG172      0.0307
     96  CG        -0.8210   16.5300   16.5450 C.3   172  ARG172      0.0489
     97  CD        -2.2530   16.9960   16.7780 C.3   172  ARG172      0.2205
     98  NE        -2.5130   18.2860   16.1430 N.pl3 172  ARG172     -0.0865
     99  CZ        -2.7060   18.4680   14.8370 C.cat 172  ARG172      0.5346
    100  NH1       -2.6730   17.4440   13.9830 N.pl3 172  ARG172      0.1354
    101  NH2       -2.9320   19.6930   14.3740 N.pl3 172  ARG172      0.1354
@<TRIPOS>BOND
     1    27    28    1
     2    31    28    1
     3    31    32    1
     4    28    29    1
     5    30    29    2
     6    32    34   ar
     7    32    33   ar
     8    29    37   am
     9    34    36   ar
    10    33    35   ar
    11    37    38    1
    12    21    20    2
    13     1     2    1
    14    36    35   ar
    15    20    19    1
    16    22    23    1
    17    22    19    1
    18    38    41    1
    19    38    39    1
    20     4     3    2
    21    23    24    1
    22    19    18    1
    23     2     3    1
    24     2     5    1
    25    41    42    1
    26    40    39    2
    27    24    25    1
    28    39    43   am
    29    63    62   ar
    30     6     7    1
    31     6     5    1
    32    61    62    1
    33    61    60    1
    34    62    64   ar
    35     7     8    1
    36    18    11   am
    37    25    26    1
    38    56    57    1
    39    55    54    2
    40    54    53    1
    41    43    44    1
    42    60    57    1
    43    11    12    2
    44    11    10    1
    45    57    58    1
    46    52    53    1
    47    52    45   am
    48    44    45    1
    49    44    47    1
    50     9    10    1
    51    45    46    2
    52    81    79   ar
    53    81    82   ar
    54    10    13    1
    55    58    65   am
    56    58    59    2
    57    79    78   ar
    58    82    80   ar
    59    65    66    1
    60    13    14    1
    61    47    48    1
    62    68    67    2
    63    14    15    1
    64    78    80   ar
    65    78    77    1
    66    67    66    1
    67    67    73   am
    68    66    69    1
    69    48    49    1
    70    69    70    1
    71    15    16    1
    72    16    17    1
    73   100    99    1
    74    74    73    1
    75    74    77    1
    76    74    75    1
    77   101    99    1
    78    49    50    1
    79    99    98    2
    80    70    72   ar
    81    70    71   ar
    82    75    76    2
    83    75    83   am
    84    51    50    1
    85    83    84    1
    86    86    85    2
    87    85    84    1
    88    98    97    1
    89    96    97    1
    90    96    95    1
    91    84    87    1
    92    95    92    1
    93    92    91    1
    94    92    93    1
    95    87    88    1
    96    93    94    2
    97    90    88   am
    98    88    89    2
