@<TRIPOS>MOLECULE
tmp/4nzwB00.pdb
 178 169 0 0 0
SMALL
GASTEIGER

@<TRIPOS>ATOM
      1  N        -39.1910  -54.5550  -28.1990 N.3    16  ILE16      -0.1231
      2  CA       -39.9400  -53.8480  -29.2350 C.3    16  ILE16       0.1692
      3  C        -38.9810  -53.2190  -30.2350 C.2    16  ILE16       0.2593
      4  O        -37.7690  -53.2150  -30.0240 O.2    16  ILE16      -0.2718
      5  CB       -40.8830  -52.7500  -28.6630 C.3    16  ILE16       0.0266
      6  CG1      -40.1220  -51.4450  -28.3950 C.3    16  ILE16       0.0019
      7  CG2      -41.6210  -53.2500  -27.4280 C.3    16  ILE16       0.0020
      8  CD1      -39.2220  -51.4890  -27.1910 C.3    16  ILE16       0.0001
      9  N        -39.5260  -52.6890  -31.3240 N.am   17  GLY17      -0.1942
     10  CA       -38.7000  -52.0930  -32.3550 C.3    17  GLY17       0.2014
     11  C        -37.8630  -53.1480  -33.0450 C.2    17  GLY17       0.2638
     12  O        -36.6550  -52.9790  -33.2110 O.2    17  GLY17      -0.2714
     13  N        -38.5320  -54.2430  -33.4080 N.am   18  LYS18      -0.1977
     14  CA       -37.9990  -55.3770  -34.1780 C.3    18  LYS18       0.1596
     15  C        -36.5930  -55.2450  -34.7740 C.2    18  LYS18       0.2287
     16  O        -36.4080  -55.4090  -35.9800 O.2    18  LYS18      -0.2864
     17  CB       -38.9880  -55.7130  -35.2990 C.3    18  LYS18       0.0298
     18  CG       -39.7680  -54.4980  -35.7930 C.3    18  LYS18       0.0038
     19  CD       -40.5230  -54.7770  -37.0840 C.3    18  LYS18       0.0206
     20  CE       -41.3000  -53.5480  -37.5400 C.3    18  LYS18       0.1093
     21  NZ       -41.8790  -53.7250  -38.9020 N.3    18  LYS18      -0.1314
     22  N        -34.5840  -50.0190  -34.1080 N.3    21  PHE21      -0.1241
     23  CA       -33.7460  -49.0900  -33.3660 C.3    21  PHE21       0.1605
     24  C        -32.6480  -49.8650  -32.6490 C.2    21  PHE21       0.2264
     25  O        -32.7620  -51.0760  -32.4480 O.2    21  PHE21      -0.2867
     26  CB       -34.5810  -48.2800  -32.3740 C.3    21  PHE21       0.0534
     27  CG       -35.8320  -47.7000  -32.9690 C.ar   21  PHE21      -0.0203
     28  CD1      -35.8020  -46.4890  -33.6420 C.ar   21  PHE21      -0.0042
     29  CD2      -37.0400  -48.3690  -32.8570 C.ar   21  PHE21      -0.0042
     30  CE1      -36.9550  -45.9570  -34.1920 C.ar   21  PHE21      -0.0003
     31  CE2      -38.1940  -47.8430  -33.4040 C.ar   21  PHE21      -0.0003
     32  CZ       -38.1530  -46.6350  -34.0720 C.ar   21  PHE21      -0.0000
     33  N        -33.7320  -51.7730  -28.4290 N.3    24  VAL24      -0.1245
     34  CA       -34.6450  -51.1490  -27.4780 C.3    24  VAL24       0.1561
     35  C        -35.5950  -52.1740  -26.8750 C.2    24  VAL24       0.2260
     36  O        -36.1830  -52.9880  -27.5870 O.2    24  VAL24      -0.2867
     37  CB       -35.4870  -50.0500  -28.1420 C.3    24  VAL24       0.0252
     38  CG1      -36.3340  -49.3340  -27.1000 C.3    24  VAL24       0.0019
     39  CG2      -34.5890  -49.0690  -28.8710 C.3    24  VAL24       0.0019
     40  N        -39.5440  -47.2530  -22.0880 N.3    37  ALA37      -0.1245
     41  CA       -38.8190  -47.8820  -23.1860 C.3    37  ALA37       0.1562
     42  C        -37.3180  -47.6860  -23.0110 C.2    37  ALA37       0.2260
     43  O        -36.8170  -46.5630  -23.0790 O.2    37  ALA37      -0.2867
     44  CB       -39.2770  -47.3180  -24.5180 C.3    37  ALA37       0.0290
     45  N        -41.2400  -37.6200  -28.1010 N.3    69  THR69      -0.1218
     46  CA       -40.9940  -38.6120  -27.0570 C.3    69  THR69       0.1862
     47  C        -40.0550  -38.0630  -25.9870 C.2    69  THR69       0.2287
     48  O        -38.9300  -37.6600  -26.2800 O.2    69  THR69      -0.2866
     49  CB       -40.4040  -39.9110  -27.6340 C.3    69  THR69       0.1770
     50  OG1      -39.3040  -39.5960  -28.4960 O.3    69  THR69      -0.2211
     51  CG2      -41.4570  -40.6680  -28.4250 C.3    69  THR69       0.0375
     52  N        -36.6560  -43.8250  -22.0150 N.3    85  MET85      -0.1230
     53  CA       -37.5670  -42.8420  -22.5940 C.3    85  MET85       0.1702
     54  C        -39.0400  -43.2350  -22.4940 C.2    85  MET85       0.2592
     55  O        -39.3850  -44.2760  -21.9350 O.2    85  MET85      -0.2718
     56  CB       -37.1960  -42.5520  -24.0490 C.3    85  MET85       0.0401
     57  CG       -36.2170  -41.4030  -24.2080 C.3    85  MET85       0.0596
     58  SD       -35.6270  -41.2300  -25.8970 S.3    85  MET85      -0.1393
     59  CE       -34.7110  -42.7560  -26.0610 C.3    85  MET85       0.0692
     60  N        -39.8970  -42.3790  -23.0430 N.am   86  GLU86      -0.1966
     61  CA       -41.3440  -42.5600  -22.9980 C.3    86  GLU86       0.1733
     62  C        -41.7660  -43.8370  -23.7170 C.2    86  GLU86       0.2616
     63  O        -41.0970  -44.2850  -24.6450 O.2    86  GLU86      -0.2715
     64  CB       -42.0320  -41.3460  -23.6280 C.3    86  GLU86       0.0429
     65  CG       -43.4560  -41.1010  -23.1600 C.3    86  GLU86       0.1163
     66  CD       -43.9950  -39.7610  -23.6270 C.2    86  GLU86       0.3649
     67  OE1      -45.1150  -39.3920  -23.2180 O.co2  86  GLU86      -0.2457
     68  OE2      -43.2950  -39.0760  -24.4040 O.co2  86  GLU86      -0.2457
     69  N        -42.8750  -44.4250  -23.2780 N.am   87  TYR87      -0.1960
     70  CA       -43.3900  -45.6390  -23.9000 C.3    87  TYR87       0.1771
     71  C        -44.6880  -45.3750  -24.6510 C.2    87  TYR87       0.2619
     72  O        -45.6380  -44.8220  -24.0960 O.2    87  TYR87      -0.2715
     73  CB       -43.6060  -46.7390  -22.8580 C.3    87  TYR87       0.0574
     74  CG       -44.1050  -48.0390  -23.4500 C.ar   87  TYR87      -0.0198
     75  CD1      -43.2290  -48.9210  -24.0680 C.ar   87  TYR87      -0.0009
     76  CD2      -45.4500  -48.3830  -23.3950 C.ar   87  TYR87      -0.0009
     77  CE1      -43.6770  -50.1090  -24.6130 C.ar   87  TYR87       0.0417
     78  CE2      -45.9080  -49.5700  -23.9380 C.ar   87  TYR87       0.0417
     79  CZ       -45.0160  -50.4290  -24.5460 C.ar   87  TYR87       0.1957
     80  OH       -45.4630  -51.6120  -25.0880 O.3    87  TYR87      -0.2866
     81  N        -44.7210  -45.7830  -25.9150 N.am   88  LEU88      -0.1963
     82  CA       -45.9030  -45.6190  -26.7490 C.3    88  LEU88       0.1728
     83  C        -46.3740  -46.9750  -27.2590 C.2    88  LEU88       0.2616
     84  O        -45.8490  -47.4940  -28.2430 O.2    88  LEU88      -0.2715
     85  CB       -45.5940  -44.6910  -27.9240 C.3    88  LEU88       0.0311
     86  CG       -45.1410  -43.2870  -27.5250 C.3    88  LEU88       0.0022
     87  CD1      -44.7910  -42.4590  -28.7490 C.3    88  LEU88       0.0001
     88  CD2      -46.2190  -42.6030  -26.7020 C.3    88  LEU88       0.0001
     89  N        -47.3680  -47.5420  -26.5830 N.am   89  GLY89      -0.1955
     90  CA       -47.8510  -48.8730  -26.9070 C.3    89  GLY89       0.1869
     91  C        -48.9100  -48.9050  -27.9910 C.2    89  GLY89       0.2309
     92  O        -49.6350  -49.8900  -28.1300 O.2    89  GLY89      -0.2863
     93  N        -47.9530  -48.2310  -31.1380 N.3    91  GLY91      -0.1210
     94  CA       -47.1830  -48.5900  -32.3140 C.3    91  GLY91       0.1956
     95  C        -46.8730  -47.4000  -33.2000 C.2    91  GLY91       0.2612
     96  O        -47.2800  -46.2740  -32.9120 O.2    91  GLY91      -0.2717
     97  N        -46.1460  -47.6520  -34.2830 N.am   92  SER92      -0.1952
     98  CA       -45.7910  -46.6010  -35.2280 C.3    92  SER92       0.1924
     99  C        -46.8890  -46.4100  -36.2690 C.2    92  SER92       0.2314
    100  O        -47.8100  -47.2210  -36.3670 O.2    92  SER92      -0.2863
    101  CB       -44.4610  -46.9200  -35.9150 C.3    92  SER92       0.2116
    102  OG       -44.5430  -48.1260  -36.6530 O.3    92  SER92      -0.2180
    103  N        -47.1740  -49.2150  -38.7210 N.3    95  ASP95      -0.1239
    104  CA       -47.8500  -50.4040  -38.2180 C.3    95  ASP95       0.1674
    105  C        -49.3620  -50.2920  -38.3770 C.2    95  ASP95       0.2266
    106  O        -50.0700  -51.2980  -38.3970 O.2    95  ASP95      -0.2867
    107  CB       -47.4870  -50.6430  -36.7520 C.3    95  ASP95       0.1410
    108  CG       -46.0010  -50.8600  -36.5490 C.2    95  ASP95       0.3668
    109  OD1      -45.3800  -51.5480  -37.3870 O.co2  95  ASP95      -0.2456
    110  OD2      -45.4510  -50.3360  -35.5580 O.co2  95  ASP95      -0.2456
    111  N        -50.2120  -51.4920  -42.0540 N.3    98  LYS98      -0.1245
    112  CA       -50.1940  -52.9320  -42.3100 C.3    98  LYS98       0.1561
    113  C        -51.5770  -53.5950  -42.4380 C.2    98  LYS98       0.2260
    114  O        -51.7540  -54.4710  -43.2850 O.2    98  LYS98      -0.2867
    115  CB       -49.3260  -53.6660  -41.2780 C.3    98  LYS98       0.0271
    116  CG       -47.8340  -53.4240  -41.4490 C.3    98  LYS98       0.0035
    117  CD       -47.0100  -54.3060  -40.5230 C.3    98  LYS98       0.0206
    118  CE       -47.2270  -53.9400  -39.0660 C.3    98  LYS98       0.1093
    119  NZ       -46.4090  -54.7850  -38.1530 N.3    98  LYS98      -0.1314
    120  N        -44.8980  -42.3530  -34.0640 N.3   137  LEU137     -0.1245
    121  CA       -45.5160  -43.3410  -33.1900 C.3   137  LEU137      0.1561
    122  C        -46.7730  -42.7890  -32.5370 C.2   137  LEU137      0.2260
    123  O        -46.9790  -41.5770  -32.4810 O.2   137  LEU137     -0.2867
    124  CB       -44.5280  -43.7700  -32.1080 C.3   137  LEU137      0.0270
    125  CG       -43.0700  -43.8830  -32.5510 C.3   137  LEU137      0.0019
    126  CD1      -42.1510  -43.4140  -31.4390 C.3   137  LEU137      0.0001
    127  CD2      -42.7380  -45.3090  -32.9590 C.3   137  LEU137      0.0001
    128  N        -40.2230  -39.3760  -33.2040 N.3   147  ALA147     -0.1231
    129  CA       -39.2070  -40.2220  -32.5860 C.3   147  ALA147      0.1694
    130  C        -38.3220  -39.4340  -31.6230 C.2   147  ALA147      0.2592
    131  O        -38.8030  -38.5720  -30.8870 O.2   147  ALA147     -0.2718
    132  CB       -38.3620  -40.9010  -33.6520 C.3   147  ALA147      0.0304
    133  N        -37.0270  -39.7350  -31.6310 N.am  148  ALA148     -0.1966
    134  CA       -36.0800  -39.0600  -30.7510 C.3   148  ALA148      0.1728
    135  C        -34.6520  -39.1740  -31.2720 C.2   148  ALA148      0.2616
    136  O        -33.9140  -38.1920  -31.3050 O.2   148  ALA148     -0.2715
    137  CB       -36.1740  -39.6220  -29.3420 C.3   148  ALA148      0.0334
    138  N        -34.2720  -40.3800  -31.6780 N.am  149  PHE149     -0.1974
    139  CA       -32.9200  -40.6490  -32.1520 C.3   149  PHE149      0.1639
    140  C        -32.6040  -39.8970  -33.4440 C.2   149  PHE149      0.2290
    141  O        -33.2680  -40.0960  -34.4610 O.2   149  PHE149     -0.2864
    142  CB       -32.7360  -42.1520  -32.3690 C.3   149  PHE149      0.0560
    143  CG       -33.3250  -42.9960  -31.2740 C.ar  149  PHE149     -0.0200
    144  CD1      -32.7720  -42.9840  -30.0080 C.ar  149  PHE149     -0.0042
    145  CD2      -34.4270  -43.8030  -31.5120 C.ar  149  PHE149     -0.0042
    146  CE1      -33.3050  -43.7560  -28.9970 C.ar  149  PHE149     -0.0003
    147  CE2      -34.9640  -44.5790  -30.5040 C.ar  149  PHE149     -0.0003
    148  CZ       -34.4030  -44.5550  -29.2440 C.ar  149  PHE149     -0.0000
    149  N        -55.3810  -52.7220  -35.9330 N.3   261  TYR261     -0.1227
    150  CA       -54.1630  -53.5200  -36.0030 C.3   261  TYR261      0.1736
    151  C        -54.1390  -54.6340  -34.9610 C.2   261  TYR261      0.2595
    152  O        -53.6330  -55.7280  -35.2190 O.2   261  TYR261     -0.2718
    153  CB       -52.9180  -52.6450  -35.8470 C.3   261  TYR261      0.0548
    154  CG       -51.6410  -53.4510  -35.8750 C.ar  261  TYR261     -0.0200
    155  CD1      -51.1780  -54.0020  -37.0610 C.ar  261  TYR261     -0.0009
    156  CD2      -50.9100  -53.6790  -34.7150 C.ar  261  TYR261     -0.0009
    157  CE1      -50.0220  -54.7490  -37.0970 C.ar  261  TYR261      0.0417
    158  CE2      -49.7460  -54.4270  -34.7430 C.ar  261  TYR261      0.0417
    159  CZ       -49.3090  -54.9580  -35.9410 C.ar  261  TYR261      0.1957
    160  OH       -48.1570  -55.7060  -35.9990 O.3   261  TYR261     -0.2866
    161  N        -54.6850  -54.3500  -33.7830 N.am  262  LYS262     -0.1980
    162  CA       -54.7020  -55.3250  -32.7000 C.3   262  LYS262      0.1596
    163  C        -55.6640  -56.4750  -32.9770 C.2   262  LYS262      0.2287
    164  O        -55.6480  -57.4850  -32.2760 O.2   262  LYS262     -0.2864
    165  CB       -55.0280  -54.6530  -31.3640 C.3   262  LYS262      0.0298
    166  CG       -53.9100  -53.7710  -30.8340 C.3   262  LYS262      0.0038
    167  CD       -54.1120  -53.4520  -29.3640 C.3   262  LYS262      0.0206
    168  CE       -52.9210  -52.6960  -28.8000 C.3   262  LYS262      0.1093
    169  NZ       -53.0410  -52.4850  -27.3310 N.3   262  LYS262     -0.1314
    170  N        -53.7160  -58.6520  -36.3990 N.3   265  LYS265     -0.1245
    171  CA       -52.7720  -59.6570  -35.9290 C.3   265  LYS265      0.1561
    172  C        -53.5130  -60.6550  -35.0440 C.2   265  LYS265      0.2260
    173  O        -53.5800  -60.5010  -33.8230 O.2   265  LYS265     -0.2867
    174  CB       -51.5910  -59.0150  -35.1820 C.3   265  LYS265      0.0271
    175  CG       -50.2900  -59.8230  -35.2700 C.3   265  LYS265      0.0035
    176  CD       -50.1430  -60.5120  -36.6230 C.3   265  LYS265      0.0206
    177  CE       -48.6860  -60.7250  -36.9920 C.3   265  LYS265      0.1093
    178  NZ       -48.5910  -61.0800  -38.4350 N.3   265  LYS265     -0.1314
@<TRIPOS>BOND
     1   114   113    2
     2   113   112    1
     3   112   111    1
     4   112   115    1
     5   116   115    1
     6   116   117    1
     7   117   118    1
     8   118   119    1
     9    21    20    1
    10   103   104    1
    11   178   177    1
    12   106   105    2
    13   105   104    1
    14   104   107    1
    15    20    19    1
    16   109   108   ar
    17   157   155   ar
    18   157   159   ar
    19    19    18    1
    20   155   154   ar
    21   177   176    1
    22   107   108    1
    23   102   101    1
    24   176   175    1
    25   108   110   ar
    26   170   171    1
    27   100    99    2
    28    99    98    1
    29   150   149    1
    30   150   153    1
    31   150   151    1
    32   160   159    1
    33    16    15    2
    34   159   158   ar
    35   171   174    1
    36   171   172    1
    37   101    98    1
    38   154   153    1
    39   154   156   ar
    40    18    17    1
    41    17    14    1
    42   175   174    1
    43    98    97    1
    44   152   151    2
    45   172   173    2
    46   151   161   am
    47    15    14    1
    48   158   156   ar
    49   141   140    2
    50    97    95   am
    51    30    32   ar
    52    30    28   ar
    53    14    13    1
    54    22    23    1
    55    32    31   ar
    56   120   121    1
    57   161   162    1
    58   132   129    1
    59    28    27   ar
    60   140   139    1
    61    13    11   am
    62    31    29   ar
    63    23    24    1
    64    23    26    1
    65    12    11    2
    66   128   129    1
    67    95    96    2
    68    95    94    1
    69   121   122    1
    70   121   124    1
    71    11    10    1
    72   163   162    1
    73   163   164    2
    74    27    29   ar
    75    27    26    1
    76   127   125    1
    77   162   165    1
    78    24    25    2
    79   129   130    1
    80   125   124    1
    81   125   126    1
    82   122   123    2
    83   142   139    1
    84   142   143    1
    85    10     9    1
    86    94    93    1
    87   139   138    1
    88   138   135   am
    89   133   130   am
    90   133   134    1
    91   130   131    2
    92   145   143   ar
    93   145   147   ar
    94   165   166    1
    95     9     3   am
    96   136   135    2
    97   143   144   ar
    98   135   134    1
    99   166   167    1
   100   134   137    1
   101   147   148   ar
   102     3     4    2
   103     3     2    1
   104   144   146   ar
   105   167   168    1
   106   148   146   ar
   107     2     5    1
   108     2     1    1
   109    39    37    1
   110   168   169    1
   111    87    86    1
   112     5     6    1
   113     5     7    1
   114    50    49    1
   115    33    34    1
   116    51    49    1
   117     6     8    1
   118    84    83    2
   119    37    34    1
   120    37    38    1
   121    92    91    2
   122    45    46    1
   123    91    90    1
   124    85    86    1
   125    85    82    1
   126    49    46    1
   127    36    35    2
   128    86    88    1
   129    34    35    1
   130    83    82    1
   131    83    89   am
   132    46    47    1
   133    90    89    1
   134    82    81    1
   135    48    47    2
   136    59    58    1
   137    81    71   am
   138    58    57    1
   139    80    79    1
   140    71    72    2
   141    71    70    1
   142    63    62    2
   143    77    79   ar
   144    77    75   ar
   145    79    78   ar
   146    44    41    1
   147    68    66   ar
   148    57    56    1
   149    75    74   ar
   150    56    53    1
   151    78    76   ar
   152    70    69    1
   153    70    73    1
   154    62    69   am
   155    62    61    1
   156    64    65    1
   157    64    61    1
   158    66    67   ar
   159    66    65    1
   160    74    76   ar
   161    74    73    1
   162    41    42    1
   163    41    40    1
   164    43    42    2
   165    60    61    1
   166    60    54   am
   167    53    54    1
   168    53    52    1
   169    54    55    2
