@<TRIPOS>MOLECULE
tmp/4o02A00.pdb
 74 72 0 0 0
SMALL
GASTEIGER

@<TRIPOS>ATOM
      1  N        -61.1150   26.6290   23.5500 N.3    14  PRO14      -0.2102
      2  CA       -61.6100   27.6920   24.4270 C.3    14  PRO14       0.1504
      3  C        -61.8180   29.0060   23.6760 C.2    14  PRO14       0.2576
      4  O        -61.2130   29.2150   22.6220 O.2    14  PRO14      -0.2718
      5  CB       -60.5010   27.8250   25.4730 C.3    14  PRO14       0.0282
      6  CG       -59.2690   27.3990   24.7540 C.3    14  PRO14       0.0208
      7  CD       -59.6940   26.3290   23.7870 C.3    14  PRO14       0.0893
      8  N        -62.6890   29.8630   24.2000 N.am   15  GLU15      -0.1966
      9  CA       -62.9960   31.1260   23.5470 C.3    15  GLU15       0.1733
     10  C        -61.7630   32.0160   23.5250 C.2    15  GLU15       0.2617
     11  O        -61.1190   32.2190   24.5540 O.2    15  GLU15      -0.2715
     12  CB       -64.1440   31.8330   24.2650 C.3    15  GLU15       0.0429
     13  CG       -64.3240   33.2760   23.8540 C.3    15  GLU15       0.1163
     14  CD       -65.1850   34.0510   24.8250 C.2    15  GLU15       0.3649
     15  OE1      -66.1290   33.4670   25.4000 O.co2  15  GLU15      -0.2457
     16  OE2      -64.9070   35.2510   25.0220 O.co2  15  GLU15      -0.2457
     17  N        -61.4360   32.5510   22.3510 N.am   16  GLY16      -0.1940
     18  CA       -60.2860   33.4350   22.2170 C.3    16  GLY16       0.2014
     19  C        -58.9510   32.7550   21.9540 C.2    16  GLY16       0.2639
     20  O        -57.9190   33.4200   21.9080 O.2    16  GLY16      -0.2714
     21  N        -58.9600   31.4350   21.7960 N.am   17  SER17      -0.1949
     22  CA       -57.7180   30.6910   21.6240 C.3    17  SER17       0.1924
     23  C        -57.2430   30.6590   20.1780 C.2    17  SER17       0.2314
     24  O        -56.1730   30.1200   19.8930 O.2    17  SER17      -0.2863
     25  CB       -57.8720   29.2550   22.1380 C.3    17  SER17       0.2116
     26  OG       -58.7520   28.5030   21.3240 O.3    17  SER17      -0.2180
     27  N        -53.3660   31.1160   20.9960 N.3    42  LYS42      -0.1231
     28  CA       -53.6330   32.0470   22.0940 C.3    42  LYS42       0.1693
     29  C        -54.1820   31.4330   23.3860 C.2    42  LYS42       0.2592
     30  O        -54.4410   32.1540   24.3520 O.2    42  LYS42      -0.2718
     31  CB       -54.6070   33.1280   21.6260 C.3    42  LYS42       0.0285
     32  CG       -53.9430   34.4350   21.2630 C.3    42  LYS42       0.0035
     33  CD       -54.8270   35.6060   21.6380 C.3    42  LYS42       0.0206
     34  CE       -54.1490   36.9160   21.3060 C.3    42  LYS42       0.1093
     35  NZ       -54.9240   38.0700   21.8220 N.3    42  LYS42      -0.1314
     36  N        -54.3410   30.1160   23.4210 N.am   43  ALA43      -0.1966
     37  CA       -55.0000   29.4670   24.5570 C.3    43  ALA43       0.1728
     38  C        -54.1990   29.5440   25.8530 C.2    43  ALA43       0.2616
     39  O        -52.9850   29.3300   25.8600 O.2    43  ALA43      -0.2715
     40  CB       -55.2940   28.0260   24.2260 C.3    43  ALA43       0.0334
     41  N        -54.8930   29.8320   26.9510 N.am   44  ASN44      -0.1972
     42  CA       -54.2680   29.8530   28.2640 C.3    44  ASN44       0.1688
     43  C        -53.8480   28.4560   28.6620 C.2    44  ASN44       0.2292
     44  O        -54.5300   27.4770   28.3550 O.2    44  ASN44      -0.2864
     45  CB       -55.2120   30.4520   29.3110 C.3    44  ASN44       0.1181
     46  CG       -55.0560   31.9510   29.4320 C.2    44  ASN44       0.2629
     47  OD1      -53.9550   32.4510   29.6640 O.2    44  ASN44      -0.2716
     48  ND2      -56.1510   32.6820   29.2680 N.am   44  ASN44      -0.0877
     49  N        -48.6180   33.3360   30.1020 N.3    51  VAL51      -0.1231
     50  CA       -49.9440   33.7990   29.7080 C.3    51  VAL51       0.1692
     51  C        -50.1590   33.6210   28.2080 C.2    51  VAL51       0.2591
     52  O        -49.3710   34.1180   27.4060 O.2    51  VAL51      -0.2718
     53  CB       -50.1540   35.2740   30.0930 C.3    51  VAL51       0.0266
     54  CG1      -51.4140   35.8220   29.4500 C.3    51  VAL51       0.0020
     55  CG2      -50.2150   35.4120   31.6080 C.3    51  VAL51       0.0020
     56  N        -51.2270   32.9130   27.8410 N.am   52  GLU52      -0.1979
     57  CA       -51.5480   32.6250   26.4400 C.3    52  GLU52       0.1602
     58  C        -50.3580   31.9940   25.7270 C.2    52  GLU52       0.2287
     59  O        -49.9810   32.4240   24.6360 O.2    52  GLU52      -0.2864
     60  CB       -51.9850   33.8910   25.7000 C.3    52  GLU52       0.0415
     61  CG       -53.2740   34.5030   26.2060 C.3    52  GLU52       0.1163
     62  CD       -53.7130   35.6890   25.3720 C.2    52  GLU52       0.3649
     63  OE1      -54.8190   36.2170   25.6150 O.co2  52  GLU52      -0.2457
     64  OE2      -52.9510   36.0970   24.4690 O.co2  52  GLU52      -0.2457
     65  N        -47.5950   34.8050   25.4320 N.3    91  HIS91      -0.1241
     66  CA       -47.9670   35.2580   24.0940 C.3    91  HIS91       0.1621
     67  C        -46.9610   34.7640   23.0560 C.2    91  HIS91       0.2264
     68  O        -46.6620   35.4670   22.0940 O.2    91  HIS91      -0.2867
     69  CB       -48.0850   36.7870   24.0540 C.3    91  HIS91       0.0745
     70  CG       -49.0090   37.3510   25.0890 C.ar   91  HIS91       0.0817
     71  ND1      -50.1920   36.7390   25.4420 N.ar   91  HIS91      -0.2268
     72  CD2      -48.9200   38.4650   25.8540 C.ar   91  HIS91       0.1154
     73  CE1      -50.7940   37.4540   26.3750 C.ar   91  HIS91       0.1986
     74  NE2      -50.0430   38.5060   26.6440 N.ar   91  HIS91      -0.2212
@<TRIPOS>BOND
     1    24    23    2
     2    23    22    1
     3    27    28    1
     4    32    31    1
     5    32    33    1
     6    34    33    1
     7    34    35    1
     8    26    25    1
     9    22    21    1
    10    22    25    1
    11    31    28    1
    12    21    19   am
    13    20    19    2
    14    19    18    1
    15    28    29    1
    16    68    67    2
    17    18    17    1
    18    17    10   am
    19     4     3    2
    20    67    66    1
    21    29    36   am
    22    29    30    2
    23    36    37    1
    24    10     9    1
    25    10    11    2
    26     9     8    1
    27     9    12    1
    28     1     7    1
    29     1     2    1
    30     3     8   am
    31     3     2    1
    32     7     6    1
    33    13    12    1
    34    13    14    1
    35    69    66    1
    36    69    70    1
    37    66    65    1
    38    40    37    1
    39     2     5    1
    40    64    62   ar
    41    37    38    1
    42    59    58    2
    43     6     5    1
    44    14    16   ar
    45    14    15   ar
    46    70    71   ar
    47    70    72   ar
    48    62    63   ar
    49    62    61    1
    50    71    73   ar
    51    60    61    1
    52    60    57    1
    53    58    57    1
    54    38    39    2
    55    38    41   am
    56    72    74   ar
    57    73    74   ar
    58    57    56    1
    59    41    42    1
    60    52    51    2
    61    56    51   am
    62    51    50    1
    63    42    43    1
    64    42    45    1
    65    44    43    2
    66    48    46   am
    67    45    46    1
    68    46    47    2
    69    54    53    1
    70    50    53    1
    71    50    49    1
    72    53    55    1
