@<TRIPOS>MOLECULE
tmp/4o04A00.pdb
 162 152 0 0 0
SMALL
GASTEIGER

@<TRIPOS>ATOM
      1  N         -0.8420  -11.6340  -16.3210 N.3    33  LEU33      -0.1245
      2  CA        -1.3640  -12.2120  -17.5800 C.3    33  LEU33       0.1561
      3  C         -2.6390  -11.4970  -18.0070 C.2    33  LEU33       0.2260
      4  O         -2.8270  -11.2550  -19.2170 O.2    33  LEU33      -0.2867
      5  CB        -1.5670  -13.7470  -17.4700 C.3    33  LEU33       0.0270
      6  CG        -0.2580  -14.5460  -17.0920 C.3    33  LEU33       0.0019
      7  CD1       -0.5750  -16.0520  -16.9830 C.3    33  LEU33       0.0001
      8  CD2        0.8980  -14.3520  -18.0920 C.3    33  LEU33       0.0001
      9  N         -1.6080   -8.2590  -19.6160 N.3    36  ASN36      -0.1225
     10  CA        -1.1290   -8.4990  -21.0040 C.3    36  ASN36       0.1785
     11  C         -2.3360   -8.5900  -21.9220 C.2    36  ASN36       0.2597
     12  O         -2.3240   -7.9600  -22.9630 O.2    36  ASN36      -0.2718
     13  CB        -0.3060   -9.8100  -21.1190 C.3    36  ASN36       0.1169
     14  CG         1.1160   -9.7150  -20.5580 C.2    36  ASN36       0.2627
     15  OD1        1.7230   -8.6360  -20.4050 O.2    36  ASN36      -0.2716
     16  ND2        1.6700  -10.8370  -20.2870 N.am   36  ASN36      -0.0877
     17  N         -3.4050   -9.3040  -21.4850 N.am   37  SER37      -0.1952
     18  CA        -4.6650   -9.4790  -22.2380 C.3    37  SER37       0.1924
     19  C         -5.3860   -8.1430  -22.4390 C.2    37  SER37       0.2314
     20  O         -5.7950   -7.8090  -23.5500 O.2    37  SER37      -0.2863
     21  CB        -5.5700  -10.4460  -21.4570 C.3    37  SER37       0.2116
     22  OG        -5.0630  -11.7750  -21.6040 O.3    37  SER37      -0.2180
     23  N         -3.6450   -6.0040  -24.9330 N.3    40  ALA40      -0.1245
     24  CA        -3.9210   -6.5100  -26.3240 C.3    40  ALA40       0.1562
     25  C         -5.3270   -6.1480  -26.7980 C.2    40  ALA40       0.2260
     26  O         -5.5400   -5.8780  -27.9870 O.2    40  ALA40      -0.2867
     27  CB        -3.7280   -8.0060  -26.3750 C.3    40  ALA40       0.0290
     28  N         -5.4260   -2.4820  -27.7190 N.3    43  LYS43      -0.1245
     29  CA        -4.7850   -2.3150  -29.0270 C.3    43  LYS43       0.1561
     30  C         -5.6900   -2.6090  -30.1990 C.2    43  LYS43       0.2260
     31  O         -5.7570   -1.7950  -31.1390 O.2    43  LYS43      -0.2867
     32  CB        -3.4770   -3.1350  -29.1300 C.3    43  LYS43       0.0271
     33  CG        -2.3420   -2.5290  -28.2500 C.3    43  LYS43       0.0035
     34  CD        -1.0720   -3.4540  -28.2820 C.3    43  LYS43       0.0206
     35  CE        -0.1280   -3.1360  -27.1290 C.3    43  LYS43       0.1093
     36  NZ         1.0420   -4.0560  -27.1110 N.3    43  LYS43      -0.1314
     37  N         -7.9480  -14.4030  -24.4580 N.3    78  ASP78      -0.1239
     38  CA        -8.4290  -13.0660  -24.7590 C.3    78  ASP78       0.1674
     39  C         -8.7000  -13.0010  -26.2680 C.2    78  ASP78       0.2266
     40  O         -8.1720  -13.8180  -27.0330 O.2    78  ASP78      -0.2867
     41  CB        -7.4990  -11.9430  -24.2900 C.3    78  ASP78       0.1410
     42  CG        -6.1490  -11.8960  -25.0050 C.2    78  ASP78       0.3668
     43  OD1       -6.1350  -11.6300  -26.2320 O.co2  78  ASP78      -0.2456
     44  OD2       -5.1100  -12.2150  -24.3530 O.co2  78  ASP78      -0.2456
     45  N         -3.5800  -10.1730  -30.6040 N.3    82  GLY82      -0.1210
     46  CA        -2.8090  -11.3690  -30.9290 C.3    82  GLY82       0.1956
     47  C         -1.3680  -11.0130  -31.2440 C.2    82  GLY82       0.2611
     48  O         -0.9370   -9.8580  -31.0800 O.2    82  GLY82      -0.2717
     49  N         -0.6040  -12.0220  -31.6810 N.am   83  MET83      -0.1979
     50  CA         0.8180  -11.8650  -31.9710 C.3    83  MET83       0.1605
     51  C          1.1660  -12.5410  -33.2710 C.2    83  MET83       0.2287
     52  O          0.6720  -13.6250  -33.5390 O.2    83  MET83      -0.2864
     53  CB         1.6910  -12.4890  -30.8430 C.3    83  MET83       0.0413
     54  CG         1.6150  -11.6880  -29.5050 C.3    83  MET83       0.0598
     55  SD         2.4120  -12.5490  -28.1100 S.3    83  MET83      -0.1393
     56  CE         1.0620  -13.6470  -27.6210 C.3    83  MET83       0.0692
     57  N          6.4430  -13.3200  -31.7320 N.3    88  LEU88      -0.1245
     58  CA         6.8110  -14.5110  -30.9470 C.3    88  LEU88       0.1561
     59  C          8.2640  -14.8600  -30.9360 C.2    88  LEU88       0.2260
     60  O          8.7540  -15.2490  -29.8700 O.2    88  LEU88      -0.2867
     61  CB         6.0120  -15.7660  -31.3870 C.3    88  LEU88       0.0270
     62  CG         4.5240  -15.7430  -31.1850 C.3    88  LEU88       0.0019
     63  CD1        3.9090  -16.9370  -31.9310 C.3    88  LEU88       0.0001
     64  CD2        4.1080  -15.8380  -29.6580 C.3    88  LEU88       0.0001
     65  N          9.0940   -9.2880  -29.3170 N.3    92  LEU92      -0.1231
     66  CA         8.8050   -9.1570  -27.8760 C.3    92  LEU92       0.1693
     67  C         10.0250   -9.4520  -27.0250 C.2    92  LEU92       0.2592
     68  O         10.2570   -8.7290  -26.0340 O.2    92  LEU92      -0.2718
     69  CB         7.5760   -9.9830  -27.5120 C.3    92  LEU92       0.0284
     70  CG         6.3040   -9.3560  -28.1760 C.3    92  LEU92       0.0019
     71  CD1        5.1290  -10.3020  -28.1050 C.3    92  LEU92       0.0001
     72  CD2        5.8990   -8.0100  -27.5460 C.3    92  LEU92       0.0001
     73  N         10.8230  -10.4300  -27.4510 N.am   93  GLY93      -0.1957
     74  CA        12.0970  -10.8090  -26.8160 C.3    93  GLY93       0.1869
     75  C         13.0560   -9.6240  -26.7690 C.2    93  GLY93       0.2309
     76  O         13.6820   -9.3970  -25.7290 O.2    93  GLY93      -0.2863
     77  N         12.2720   -6.2960  -26.9090 N.3    95  ILE95      -0.1231
     78  CA        11.6530   -5.3510  -25.9680 C.3    95  ILE95       0.1692
     79  C         11.9120   -5.8350  -24.5260 C.2    95  ILE95       0.2591
     80  O         12.3010   -5.0300  -23.6740 O.2    95  ILE95      -0.2718
     81  CB        10.1180   -5.2090  -26.3260 C.3    95  ILE95       0.0266
     82  CG1        9.8990   -4.4990  -27.6950 C.3    95  ILE95       0.0019
     83  CG2        9.2510   -4.5740  -25.2410 C.3    95  ILE95       0.0020
     84  CD1       10.4580   -3.0360  -27.9450 C.3    95  ILE95       0.0001
     85  N         11.7300   -7.1340  -24.2800 N.am   96  ALA96      -0.1980
     86  CA        11.9030   -7.7670  -22.9800 C.3    96  ALA96       0.1597
     87  C         13.3400   -7.6980  -22.4000 C.2    96  ALA96       0.2287
     88  O         13.4630   -7.6430  -21.1750 O.2    96  ALA96      -0.2864
     89  CB        11.4160   -9.2000  -23.0120 C.3    96  ALA96       0.0319
     90  N          7.7650   -4.3680  -17.8070 N.3   120  GLY120     -0.1210
     91  CA         7.1810   -4.9260  -19.0210 C.3   120  GLY120      0.1956
     92  C          7.6000   -6.3480  -19.3100 C.2   120  GLY120      0.2612
     93  O          7.7720   -6.7160  -20.4590 O.2   120  GLY120     -0.2717
     94  N          7.8240   -7.1550  -18.2790 N.am  121  VAL121     -0.1965
     95  CA         8.2450   -8.5670  -18.4370 C.3   121  VAL121      0.1727
     96  C          7.3710   -9.5070  -17.5580 C.2   121  VAL121      0.2617
     97  O          7.7650  -10.6570  -17.2970 O.2   121  VAL121     -0.2715
     98  CB         9.7910   -8.8420  -18.2620 C.3   121  VAL121      0.0290
     99  CG1       10.6190   -8.1860  -19.3700 C.3   121  VAL121      0.0023
    100  CG2       10.3280   -8.4460  -16.8650 C.3   121  VAL121      0.0023
    101  N          6.2170   -9.0170  -17.1460 N.am  122  GLY122     -0.1940
    102  CA         5.2330   -9.7190  -16.2990 C.3   122  GLY122      0.2014
    103  C          4.7970  -11.0640  -16.8750 C.2   122  GLY122      0.2639
    104  O          4.5000  -11.9700  -16.1070 O.2   122  GLY122     -0.2714
    105  N          4.8190  -11.2310  -18.2220 N.am  123  PHE123     -0.1959
    106  CA         4.4740  -12.5690  -18.7950 C.3   123  PHE123      0.1771
    107  C          5.2950  -13.6830  -18.1450 C.2   123  PHE123      0.2619
    108  O          4.7520  -14.7640  -17.8540 O.2   123  PHE123     -0.2715
    109  CB         4.7780  -12.5800  -20.3080 C.3   123  PHE123      0.0574
    110  CG         4.7000  -13.9780  -20.8750 C.ar  123  PHE123     -0.0200
    111  CD1        3.4640  -14.5710  -21.1340 C.ar  123  PHE123     -0.0042
    112  CD2        5.8810  -14.7250  -21.1040 C.ar  123  PHE123     -0.0042
    113  CE1        3.3900  -15.8950  -21.6560 C.ar  123  PHE123     -0.0003
    114  CE2        5.8100  -16.0640  -21.6190 C.ar  123  PHE123     -0.0003
    115  CZ         4.5540  -16.6240  -21.8690 C.ar  123  PHE123     -0.0000
    116  N          6.6020  -13.4300  -17.9000 N.am  124  TYR124     -0.1974
    117  CA         7.4830  -14.4650  -17.3400 C.3   124  TYR124      0.1639
    118  C          7.1470  -14.8660  -15.9070 C.2   124  TYR124      0.2290
    119  O          7.5810  -15.9440  -15.4860 O.2   124  TYR124     -0.2864
    120  CB         8.9510  -14.0850  -17.5020 C.3   124  TYR124      0.0560
    121  CG         9.3150  -14.1210  -18.9780 C.ar  124  TYR124     -0.0198
    122  CD1        9.6160  -15.3290  -19.6160 C.ar  124  TYR124     -0.0009
    123  CD2        9.2640  -12.9600  -19.7610 C.ar  124  TYR124     -0.0009
    124  CE1        9.8790  -15.3760  -20.9940 C.ar  124  TYR124      0.0417
    125  CE2        9.5250  -12.9990  -21.1440 C.ar  124  TYR124      0.0417
    126  CZ         9.8510  -14.2070  -21.7440 C.ar  124  TYR124      0.1957
    127  OH        10.1700  -14.2570  -23.0820 O.3   124  TYR124     -0.2866
    128  N          1.5310  -20.9790  -25.5620 N.3   135  VAL135     -0.1245
    129  CA         0.8300  -19.7570  -25.9940 C.3   135  VAL135      0.1561
    130  C          0.3250  -19.9830  -27.4180 C.2   135  VAL135      0.2260
    131  O          1.1600  -20.1700  -28.3340 O.2   135  VAL135     -0.2867
    132  CB         1.7320  -18.5010  -25.9130 C.3   135  VAL135      0.0252
    133  CG1        0.9790  -17.2620  -26.4340 C.3   135  VAL135      0.0019
    134  CG2        2.2730  -18.2680  -24.4670 C.3   135  VAL135      0.0019
    135  N          3.4760  -21.2340  -29.4230 N.3   147  TRP147     -0.1241
    136  CA         4.7770  -20.9940  -28.8270 C.3   147  TRP147      0.1605
    137  C          4.7480  -21.8710  -27.5820 C.2   147  TRP147      0.2264
    138  O          3.6830  -22.0090  -26.9420 O.2   147  TRP147     -0.2867
    139  CB         4.8730  -19.5060  -28.3950 C.3   147  TRP147      0.0550
    140  CG         6.0940  -19.0520  -27.6240 C.ar  147  TRP147      0.0003
    141  CD1        7.1690  -18.3690  -28.1300 C.ar  147  TRP147      0.0946
    142  CD2        6.3360  -19.1980  -26.2010 C.ar  147  TRP147      0.0152
    143  NE1        8.0700  -18.0710  -27.1110 N.ar  147  TRP147     -0.2442
    144  CE2        7.5940  -18.5870  -25.9230 C.ar  147  TRP147      0.0810
    145  CE3        5.6010  -19.7830  -25.1230 C.ar  147  TRP147      0.0012
    146  CZ2        8.1180  -18.5030  -24.6160 C.ar  147  TRP147      0.0191
    147  CZ3        6.1490  -19.7280  -23.8260 C.ar  147  TRP147      0.0001
    148  CH2        7.3760  -19.0790  -23.5860 C.ar  147  TRP147      0.0015
    149  N         -5.2950  -14.4350  -28.0830 N.3   169  THR169     -0.1218
    150  CA        -4.2640  -15.2640  -27.4850 C.3   169  THR169      0.1862
    151  C         -4.8240  -16.1460  -26.4130 C.2   169  THR169      0.2287
    152  O         -5.6890  -15.7190  -25.6260 O.2   169  THR169     -0.2866
    153  CB        -3.1440  -14.3170  -26.9190 C.3   169  THR169      0.1770
    154  OG1       -2.6070  -13.5310  -27.9870 O.3   169  THR169     -0.2211
    155  CG2       -1.9810  -15.0680  -26.1780 C.3   169  THR169      0.0375
    156  N         -3.1410  -18.3420  -23.2300 N.3   171  VAL171     -0.1245
    157  CA        -1.9230  -18.6750  -22.4750 C.3   171  VAL171      0.1561
    158  C         -2.3250  -19.9000  -21.6100 C.2   171  VAL171      0.2260
    159  O         -3.1480  -19.7650  -20.6840 O.2   171  VAL171     -0.2867
    160  CB        -1.4080  -17.5090  -21.6090 C.3   171  VAL171      0.0252
    161  CG1       -0.2060  -17.9680  -20.7360 C.3   171  VAL171      0.0019
    162  CG2       -1.0510  -16.2960  -22.5040 C.3   171  VAL171      0.0019
@<TRIPOS>BOND
     1    52    51    2
     2    51    50    1
     3    50    49    1
     4    50    53    1
     5    63    62    1
     6    57    58    1
     7    49    47   am
     8    61    62    1
     9    61    58    1
    10    47    48    2
    11    47    46    1
    12    62    64    1
    13    31    30    2
    14    58    59    1
    15    59    60    2
    16    46    45    1
    17    53    54    1
    18    30    29    1
    19    54    55    1
    20   135   136    1
    21    65    66    1
    22    32    29    1
    23    32    33    1
    24    29    28    1
    25   136   139    1
    26   136   137    1
    27   139   140    1
    28   131   130    2
    29    34    33    1
    30    34    35    1
    31    70    71    1
    32    70    72    1
    33    70    69    1
    34   141   140   ar
    35   141   143   ar
    36    55    56    1
    37   149   150    1
    38    26    25    2
    39   154   153    1
    40    84    82    1
    41    66    69    1
    42    66    67    1
    43    82    81    1
    44   140   142   ar
    45   137   138    2
    46   150   153    1
    47   150   151    1
    48    73    67   am
    49    73    74    1
    50   130   129    1
    51    35    36    1
    52   143   144   ar
    53    40    39    2
    54    67    68    2
    55   153   155    1
    56    77    78    1
    57    74    75    1
    58    25    24    1
    59    75    76    2
    60   133   132    1
    61   151   152    2
    62    27    24    1
    63    81    78    1
    64    81    83    1
    65    24    23    1
    66    39    38    1
    67    43    42   ar
    68   142   144   ar
    69   142   145   ar
    70   129   132    1
    71   129   128    1
    72    78    79    1
    73   144   146   ar
    74   132   134    1
    75   145   147   ar
    76    42    44   ar
    77    42    41    1
    78    38    37    1
    79    38    41    1
    80   146   148   ar
    81    79    85   am
    82    79    80    2
    83    85    86    1
    84   147   148   ar
    85    20    19    2
    86   156   157    1
    87   127   126    1
    88    89    86    1
    89    86    87    1
    90    12    11    2
    91   162   160    1
    92   157   158    1
    93   157   160    1
    94    19    18    1
    95    87    88    2
    96    18    17    1
    97    18    21    1
    98    11    17   am
    99    11    10    1
   100   115   113   ar
   101   115   114   ar
   102   126   125   ar
   103   126   124   ar
   104   113   111   ar
   105   114   112   ar
   106   158   159    2
   107   160   161    1
   108    22    21    1
   109   125   123   ar
   110   111   110   ar
   111    13    10    1
   112    13    14    1
   113   112   110   ar
   114    10     9    1
   115   124   122   ar
   116   110   109    1
   117    14    15    2
   118    14    16   am
   119    93    92    2
   120   109   106    1
   121   123   121   ar
   122   122   121   ar
   123    99    98    1
   124    92    91    1
   125    92    94   am
   126     4     3    2
   127    91    90    1
   128   121   120    1
   129   106   105    1
   130   106   107    1
   131    95    94    1
   132    95    98    1
   133    95    96    1
   134    98   100    1
   135   105   103   am
   136   107   116   am
   137   107   108    2
   138     8     6    1
   139     3     2    1
   140   116   117    1
   141     2     5    1
   142     2     1    1
   143    96    97    2
   144    96   101   am
   145   120   117    1
   146     5     6    1
   147   117   118    1
   148   101   102    1
   149     6     7    1
   150   103   102    1
   151   103   104    2
   152   118   119    2
