@<TRIPOS>MOLECULE
tmp/4o05A00.pdb
 186 176 0 0 0
SMALL
GASTEIGER

@<TRIPOS>ATOM
      1  N         -0.4480  -11.7550  -16.2520 N.3    33  LEU33      -0.1245
      2  CA        -0.9270  -12.3590  -17.5080 C.3    33  LEU33       0.1561
      3  C         -2.2410  -11.7180  -17.9390 C.2    33  LEU33       0.2260
      4  O         -2.3980  -11.4450  -19.1300 O.2    33  LEU33      -0.2867
      5  CB        -0.9870  -13.8920  -17.4510 C.3    33  LEU33       0.0270
      6  CG         0.3810  -14.5900  -17.2710 C.3    33  LEU33       0.0019
      7  CD1        0.2050  -16.0350  -16.8940 C.3    33  LEU33       0.0001
      8  CD2        1.2770  -14.4660  -18.5360 C.3    33  LEU33       0.0001
      9  N         -1.3560   -8.3970  -19.5270 N.3    36  ASN36      -0.1225
     10  CA        -0.8120   -8.6360  -20.8870 C.3    36  ASN36       0.1785
     11  C         -1.9980   -8.7790  -21.8530 C.2    36  ASN36       0.2597
     12  O         -2.0180   -8.1110  -22.8900 O.2    36  ASN36      -0.2718
     13  CB         0.0560   -9.9150  -20.9530 C.3    36  ASN36       0.1169
     14  CG         1.4200   -9.8830  -20.2940 C.2    36  ASN36       0.2627
     15  OD1        1.9140  -10.9100  -19.8270 O.2    36  ASN36      -0.2716
     16  ND2        2.0780   -8.7450  -20.2630 N.am   36  ASN36      -0.0877
     17  N         -3.0080   -9.6060  -21.4660 N.am   37  SER37      -0.1952
     18  CA        -4.2280   -9.8540  -22.2510 C.3    37  SER37       0.1924
     19  C         -5.0140   -8.5530  -22.4320 C.2    37  SER37       0.2314
     20  O         -5.4030   -8.2330  -23.5600 O.2    37  SER37      -0.2863
     21  CB        -5.0930  -10.9150  -21.5760 C.3    37  SER37       0.2116
     22  OG        -4.4740  -12.1840  -21.7030 O.3    37  SER37      -0.2180
     23  N         -3.8700   -5.4430  -22.2640 N.3    39  ASP39      -0.1225
     24  CA        -3.0920   -4.5870  -23.1740 C.3    39  ASP39       0.1805
     25  C         -3.3160   -4.9920  -24.6390 C.2    39  ASP39       0.2597
     26  O         -3.5050   -4.1080  -25.4650 O.2    39  ASP39      -0.2718
     27  CB        -1.6020   -4.5780  -22.8100 C.3    39  ASP39       0.1424
     28  CG        -1.2530   -3.8650  -21.5020 C.2    39  ASP39       0.3668
     29  OD1       -2.1550   -3.2310  -20.9000 O.co2  39  ASP39      -0.2456
     30  OD2       -0.0900   -3.9520  -21.0770 O.co2  39  ASP39      -0.2456
     31  N         -3.3540   -6.3200  -24.9440 N.am   40  ALA40      -0.1979
     32  CA        -3.5940   -6.8500  -26.3140 C.3    40  ALA40       0.1597
     33  C         -4.9920   -6.4860  -26.8130 C.2    40  ALA40       0.2287
     34  O         -5.1530   -6.1590  -27.9950 O.2    40  ALA40      -0.2864
     35  CB        -3.4150   -8.3530  -26.3480 C.3    40  ALA40       0.0319
     36  N         -5.1560   -2.7880  -27.6890 N.3    43  LYS43      -0.1245
     37  CA        -4.4980   -2.6250  -28.9930 C.3    43  LYS43       0.1561
     38  C         -5.4200   -2.9200  -30.1730 C.2    43  LYS43       0.2260
     39  O         -5.5000   -2.0860  -31.0800 O.2    43  LYS43      -0.2867
     40  CB        -3.1940   -3.4300  -29.0870 C.3    43  LYS43       0.0271
     41  CG        -2.1000   -2.8480  -28.2170 C.3    43  LYS43       0.0035
     42  CD        -0.7380   -3.4810  -28.4620 C.3    43  LYS43       0.0206
     43  CE         0.1590   -3.4050  -27.2390 C.3    43  LYS43       0.1093
     44  NZ         0.4880   -2.0220  -26.7950 N.3    43  LYS43      -0.1314
     45  N         -7.4210  -14.9410  -24.6180 N.3    78  ASP78      -0.1239
     46  CA        -7.8760  -13.5870  -24.9140 C.3    78  ASP78       0.1674
     47  C         -8.1300  -13.4700  -26.4150 C.2    78  ASP78       0.2266
     48  O         -7.5590  -14.2340  -27.2030 O.2    78  ASP78      -0.2867
     49  CB        -6.9020  -12.5020  -24.3960 C.3    78  ASP78       0.1410
     50  CG        -5.5760  -12.3910  -25.1250 C.2    78  ASP78       0.3668
     51  OD1       -5.5850  -12.0560  -26.3390 O.co2  78  ASP78      -0.2456
     52  OD2       -4.5320  -12.5860  -24.4800 O.co2  78  ASP78      -0.2456
     53  N         -5.0610   -8.5070  -29.9230 N.3    81  ILE81      -0.1231
     54  CA        -4.3680   -8.3110  -31.2000 C.3    81  ILE81       0.1692
     55  C         -3.5330   -9.5540  -31.6740 C.2    81  ILE81       0.2593
     56  O         -3.3220   -9.7150  -32.8760 O.2    81  ILE81      -0.2718
     57  CB        -3.5140   -7.0090  -31.1110 C.3    81  ILE81       0.0266
     58  CG1       -3.1030   -6.5080  -32.5230 C.3    81  ILE81       0.0019
     59  CG2       -2.3120   -7.1340  -30.1410 C.3    81  ILE81       0.0020
     60  CD1       -2.6720   -4.9870  -32.6130 C.3    81  ILE81       0.0001
     61  N         -3.0780  -10.3910  -30.7420 N.am   82  GLY82      -0.1942
     62  CA        -2.2500  -11.5520  -31.0640 C.3    82  GLY82       0.2014
     63  C         -0.8250  -11.1090  -31.3460 C.2    82  GLY82       0.2638
     64  O         -0.5120   -9.9140  -31.3170 O.2    82  GLY82      -0.2714
     65  N          0.0490  -12.0710  -31.6170 N.am   83  MET83      -0.1976
     66  CA         1.4550  -11.8090  -31.8850 C.3    83  MET83       0.1605
     67  C          1.8860  -12.4710  -33.1650 C.2    83  MET83       0.2287
     68  O          1.4500  -13.5830  -33.4760 O.2    83  MET83      -0.2864
     69  CB         2.3300  -12.3030  -30.7120 C.3    83  MET83       0.0413
     70  CG         2.2160  -11.4430  -29.4550 C.3    83  MET83       0.0598
     71  SD         2.9100  -12.2750  -28.0020 S.3    83  MET83      -0.1393
     72  CE         1.5940  -13.3910  -27.5930 C.3    83  MET83       0.0692
     73  N          7.2310  -10.8700  -33.4290 N.3    87  ASP87      -0.1225
     74  CA         6.9470  -10.5220  -32.0240 C.3    87  ASP87       0.1805
     75  C          7.4950  -11.6030  -31.0780 C.2    87  ASP87       0.2597
     76  O          8.2200  -11.2820  -30.1340 O.2    87  ASP87      -0.2718
     77  CB         5.4290  -10.3980  -31.7890 C.3    87  ASP87       0.1424
     78  CG         4.7810   -9.1470  -32.3230 C.2    87  ASP87       0.3668
     79  OD1        5.4820   -8.1090  -32.4230 O.co2  87  ASP87      -0.2456
     80  OD2        3.5740   -9.2000  -32.6440 O.co2  87  ASP87      -0.2456
     81  N          7.1680  -12.8810  -31.3640 N.am   88  LEU88      -0.1979
     82  CA         7.5810  -14.0460  -30.5740 C.3    88  LEU88       0.1596
     83  C          9.0770  -14.3040  -30.5360 C.2    88  LEU88       0.2287
     84  O          9.5810  -14.7060  -29.4880 O.2    88  LEU88      -0.2864
     85  CB         6.8830  -15.3230  -31.0660 C.3    88  LEU88       0.0297
     86  CG         5.3630  -15.4030  -30.9690 C.3    88  LEU88       0.0022
     87  CD1        4.8820  -16.6200  -31.6990 C.3    88  LEU88       0.0001
     88  CD2        4.8790  -15.4410  -29.5010 C.3    88  LEU88       0.0001
     89  N          9.3850   -8.5810  -29.0310 N.3    92  LEU92      -0.1231
     90  CA         9.0640   -8.5000  -27.6000 C.3    92  LEU92       0.1693
     91  C         10.2810   -8.7800  -26.7160 C.2    92  LEU92       0.2592
     92  O         10.4030   -8.1300  -25.6770 O.2    92  LEU92      -0.2718
     93  CB         7.8470   -9.3450  -27.2300 C.3    92  LEU92       0.0284
     94  CG         6.5480   -8.8540  -27.9370 C.3    92  LEU92       0.0019
     95  CD1        5.5020   -9.9020  -27.9370 C.3    92  LEU92       0.0001
     96  CD2        6.0110   -7.5320  -27.3570 C.3    92  LEU92       0.0001
     97  N         11.1760   -9.6590  -27.1760 N.am   93  GLY93      -0.1957
     98  CA        12.4320   -9.9930  -26.5040 C.3    93  GLY93       0.1869
     99  C         13.3380   -8.7720  -26.4310 C.2    93  GLY93       0.2309
    100  O         13.9270   -8.5060  -25.3780 O.2    93  GLY93      -0.2863
    101  N         12.3310   -5.5230  -26.6250 N.3    95  ILE95      -0.1231
    102  CA        11.6160   -4.5960  -25.7320 C.3    95  ILE95       0.1692
    103  C         11.8660   -4.9740  -24.2590 C.2    95  ILE95       0.2591
    104  O         12.1820   -4.0890  -23.4590 O.2    95  ILE95      -0.2718
    105  CB        10.0900   -4.5020  -26.1200 C.3    95  ILE95       0.0266
    106  CG1        9.8630   -3.8180  -27.5120 C.3    95  ILE95       0.0019
    107  CG2        9.1830   -3.8610  -25.0420 C.3    95  ILE95       0.0020
    108  CD1       10.4800   -2.3970  -27.7970 C.3    95  ILE95       0.0001
    109  N         11.7330   -6.2810  -23.9320 N.am   96  ALA96      -0.1980
    110  CA        11.9110   -6.8580  -22.5980 C.3    96  ALA96       0.1597
    111  C         13.3350   -6.7410  -22.0330 C.2    96  ALA96       0.2287
    112  O         13.4670   -6.6220  -20.8140 O.2    96  ALA96      -0.2864
    113  CB        11.4480   -8.3010  -22.5770 C.3    96  ALA96       0.0319
    114  N          7.6420   -3.8520  -17.2170 N.3   120  GLY120     -0.1210
    115  CA         7.0250   -4.4080  -18.4160 C.3   120  GLY120      0.1956
    116  C          7.5050   -5.7920  -18.7940 C.2   120  GLY120      0.2612
    117  O          7.5740   -6.1080  -19.9800 O.2   120  GLY120     -0.2717
    118  N          7.8620   -6.6270  -17.7910 N.am  121  VAL121     -0.1965
    119  CA         8.3570   -7.9950  -18.0280 C.3   121  VAL121      0.1727
    120  C          7.5220   -9.0140  -17.2150 C.2   121  VAL121      0.2617
    121  O          7.9710  -10.1430  -16.9680 O.2   121  VAL121     -0.2715
    122  CB         9.9030   -8.1530  -17.8450 C.3   121  VAL121      0.0290
    123  CG1       10.6670   -7.3770  -18.9210 C.3   121  VAL121      0.0023
    124  CG2       10.3710   -7.7510  -16.4380 C.3   121  VAL121      0.0023
    125  N          6.3050   -8.5880  -16.8470 N.am  122  GLY122     -0.1940
    126  CA         5.3250   -9.3560  -16.0870 C.3   122  GLY122      0.2014
    127  C          5.0110  -10.7350  -16.6300 C.2   122  GLY122      0.2639
    128  O          4.7410  -11.6380  -15.8430 O.2   122  GLY122     -0.2714
    129  N          5.0760  -10.9270  -17.9670 N.am  123  PHE123     -0.1959
    130  CA         4.8180  -12.2310  -18.6020 C.3   123  PHE123      0.1771
    131  C          5.6350  -13.3480  -17.9320 C.2   123  PHE123      0.2619
    132  O          5.1010  -14.4240  -17.6690 O.2   123  PHE123     -0.2715
    133  CB         5.1420  -12.2090  -20.1220 C.3   123  PHE123      0.0574
    134  CG         5.0880  -13.6030  -20.7280 C.ar  123  PHE123     -0.0200
    135  CD1        3.8630  -14.1970  -21.0470 C.ar  123  PHE123     -0.0042
    136  CD2        6.2620  -14.3430  -20.9350 C.ar  123  PHE123     -0.0042
    137  CE1        3.8090  -15.5060  -21.5710 C.ar  123  PHE123     -0.0003
    138  CE2        6.2100  -15.6510  -21.4530 C.ar  123  PHE123     -0.0003
    139  CZ         4.9840  -16.2200  -21.7770 C.ar  123  PHE123     -0.0000
    140  N          6.9290  -13.0700  -17.6650 N.am  124  TYR124     -0.1974
    141  CA         7.8700  -14.0360  -17.0910 C.3   124  TYR124      0.1639
    142  C          7.5190  -14.4730  -15.6550 C.2   124  TYR124      0.2290
    143  O          8.0430  -15.5000  -15.2260 O.2   124  TYR124     -0.2864
    144  CB         9.3110  -13.5310  -17.2280 C.3   124  TYR124      0.0560
    145  CG         9.7000  -13.5200  -18.6920 C.ar  124  TYR124     -0.0198
    146  CD1       10.0090  -14.7060  -19.3600 C.ar  124  TYR124     -0.0009
    147  CD2        9.6890  -12.3320  -19.4310 C.ar  124  TYR124     -0.0009
    148  CE1       10.3130  -14.7120  -20.7220 C.ar  124  TYR124      0.0417
    149  CE2        9.9960  -12.3260  -20.7950 C.ar  124  TYR124      0.0417
    150  CZ        10.3050  -13.5220  -21.4340 C.ar  124  TYR124      0.1957
    151  OH        10.6590  -13.5510  -22.7590 O.3   124  TYR124     -0.2866
    152  N          2.4220  -20.7780  -25.5140 N.3   135  VAL135     -0.1245
    153  CA         1.7030  -19.5900  -25.9830 C.3   135  VAL135      0.1561
    154  C          1.2720  -19.8780  -27.4230 C.2   135  VAL135      0.2260
    155  O          2.1300  -20.0030  -28.2940 O.2   135  VAL135     -0.2867
    156  CB         2.5590  -18.2900  -25.8370 C.3   135  VAL135      0.0252
    157  CG1        1.8540  -17.0750  -26.4420 C.3   135  VAL135      0.0019
    158  CG2        2.9280  -18.0200  -24.3780 C.3   135  VAL135      0.0019
    159  N          4.5370  -20.9520  -29.3340 N.3   147  TRP147     -0.1241
    160  CA         5.7810  -20.6030  -28.6340 C.3   147  TRP147      0.1605
    161  C          5.7490  -21.4870  -27.3930 C.2   147  TRP147      0.2264
    162  O          4.6800  -21.6730  -26.8070 O.2   147  TRP147     -0.2867
    163  CB         5.7840  -19.1150  -28.2250 C.3   147  TRP147      0.0550
    164  CG         6.9600  -18.6170  -27.4270 C.ar  147  TRP147      0.0003
    165  CD1        8.0070  -17.8800  -27.8980 C.ar  147  TRP147      0.0946
    166  CD2        7.1450  -18.7080  -26.0000 C.ar  147  TRP147      0.0152
    167  NE1        8.8460  -17.5270  -26.8630 N.ar  147  TRP147     -0.2442
    168  CE2        8.3540  -18.0370  -25.6920 C.ar  147  TRP147      0.0810
    169  CE3        6.4060  -19.2910  -24.9480 C.ar  147  TRP147      0.0012
    170  CZ2        8.8410  -17.9250  -24.3770 C.ar  147  TRP147      0.0191
    171  CZ3        6.8960  -19.1950  -23.6440 C.ar  147  TRP147      0.0001
    172  CH2        8.0920  -18.5070  -23.3680 C.ar  147  TRP147      0.0015
    173  N         -4.6930  -14.7860  -28.2160 N.3   169  THR169     -0.1218
    174  CA        -3.6460  -15.5860  -27.5760 C.3   169  THR169      0.1862
    175  C         -4.2010  -16.5100  -26.5000 C.2   169  THR169      0.2287
    176  O         -5.1100  -16.1210  -25.7700 O.2   169  THR169     -0.2866
    177  CB        -2.5910  -14.5950  -27.0000 C.3   169  THR169      0.1770
    178  OG1       -2.1140  -13.7590  -28.0530 O.3   169  THR169     -0.2211
    179  CG2       -1.3920  -15.2820  -26.3350 C.3   169  THR169      0.0375
    180  N         -2.5570  -18.7470  -23.3430 N.3   171  VAL171     -0.1245
    181  CA        -1.3530  -18.9630  -22.5250 C.3   171  VAL171      0.1561
    182  C         -1.6910  -20.2140  -21.7140 C.2   171  VAL171      0.2260
    183  O         -2.6100  -20.1800  -20.9000 O.2   171  VAL171     -0.2867
    184  CB        -0.9470  -17.7470  -21.6300 C.3   171  VAL171      0.0252
    185  CG1        0.2470  -18.0870  -20.7340 C.3   171  VAL171      0.0019
    186  CG2       -0.6370  -16.5170  -22.4770 C.3   171  VAL171      0.0019
@<TRIPOS>BOND
     1    68    67    2
     2    73    74    1
     3    67    66    1
     4    56    55    2
     5    80    78   ar
     6    60    58    1
     7    58    57    1
     8    79    78   ar
     9    78    77    1
    10    74    77    1
    11    74    75    1
    12    66    65    1
    13    66    69    1
    14    87    86    1
    15    55    54    1
    16    55    61   am
    17    65    63   am
    18    81    75   am
    19    81    82    1
    20    63    64    2
    21    63    62    1
    22    54    57    1
    23    54    53    1
    24    57    59    1
    25    39    38    2
    26    75    76    2
    27    85    86    1
    28    85    82    1
    29    62    61    1
    30    86    88    1
    31    69    70    1
    32    82    83    1
    33    83    84    2
    34    38    37    1
    35    70    71    1
    36   159   160    1
    37    40    37    1
    38    40    41    1
    39    89    90    1
    40    37    36    1
    41   160   163    1
    42   160   161    1
    43    42    41    1
    44    42    43    1
    45   155   154    2
    46   163   164    1
    47   173   174    1
    48   178   177    1
    49    71    72    1
    50    34    33    2
    51    95    94    1
    52    94    96    1
    53    94    93    1
    54   165   164   ar
    55   165   167   ar
    56   108   106    1
    57    90    93    1
    58    90    91    1
    59   174   177    1
    60   174   175    1
    61   106   105    1
    62   164   166   ar
    63   154   153    1
    64   161   162    2
    65    43    44    1
    66    48    47    2
    67    97    91   am
    68    97    98    1
    69   177   179    1
    70   167   168   ar
    71    33    32    1
    72    91    92    2
    73   101   102    1
    74    98    99    1
    75   175   176    2
    76   157   156    1
    77    99   100    2
    78    47    46    1
    79    35    32    1
    80    51    50   ar
    81    32    31    1
    82   105   102    1
    83   105   107    1
    84   166   168   ar
    85   166   169   ar
    86   153   156    1
    87   153   152    1
    88   156   158    1
    89   102   103    1
    90   168   170   ar
    91    26    25    2
    92    50    52   ar
    93    50    49    1
    94   169   171   ar
    95    31    25   am
    96    46    45    1
    97    46    49    1
    98    25    24    1
    99   170   172   ar
   100   103   109   am
   101   103   104    2
   102   109   110    1
   103   171   172   ar
   104    20    19    2
   105   180   181    1
   106    24    27    1
   107    24    23    1
   108    12    11    2
   109    27    28    1
   110   151   150    1
   111   110   113    1
   112   110   111    1
   113   181   182    1
   114   181   184    1
   115   186   184    1
   116    19    18    1
   117    18    21    1
   118    18    17    1
   119   111   112    2
   120    11    17   am
   121    11    10    1
   122   139   137   ar
   123   139   138   ar
   124   182   183    2
   125    22    21    1
   126   184   185    1
   127   137   135   ar
   128    28    30   ar
   129    28    29   ar
   130   138   136   ar
   131   150   149   ar
   132   150   148   ar
   133   135   134   ar
   134    13    10    1
   135    13    14    1
   136   136   134   ar
   137    10     9    1
   138   149   147   ar
   139   134   133    1
   140   148   146   ar
   141    14    16   am
   142    14    15    2
   143   133   130    1
   144   117   116    2
   145   147   145   ar
   146   146   145   ar
   147     4     3    2
   148   123   122    1
   149   116   115    1
   150   116   118   am
   151   145   144    1
   152   130   129    1
   153   130   131    1
   154     8     6    1
   155   115   114    1
   156   119   122    1
   157   119   118    1
   158   119   120    1
   159   129   127   am
   160     3     2    1
   161   131   132    2
   162   131   140   am
   163   122   124    1
   164   140   141    1
   165     2     5    1
   166     2     1    1
   167     5     6    1
   168     6     7    1
   169   144   141    1
   170   120   121    2
   171   120   125   am
   172   141   142    1
   173   125   126    1
   174   127   126    1
   175   127   128    2
   176   142   143    2
