@<TRIPOS>MOLECULE
tmp/4o07A00.pdb
 178 168 0 0 0
SMALL
GASTEIGER

@<TRIPOS>ATOM
      1  N         -0.5670  -11.8410  -16.3120 N.3    33  LEU33      -0.1245
      2  CA        -1.0670  -12.4410  -17.5600 C.3    33  LEU33       0.1561
      3  C         -2.3580  -11.7590  -17.9930 C.2    33  LEU33       0.2260
      4  O         -2.5180  -11.4900  -19.1910 O.2    33  LEU33      -0.2867
      5  CB        -1.1870  -13.9810  -17.4770 C.3    33  LEU33       0.0270
      6  CG         0.1590  -14.7260  -17.2700 C.3    33  LEU33       0.0019
      7  CD1       -0.0630  -16.1610  -16.8950 C.3    33  LEU33       0.0001
      8  CD2        1.0960  -14.6060  -18.5020 C.3    33  LEU33       0.0001
      9  N         -1.3890   -8.4360  -19.6510 N.3    36  ASN36      -0.1225
     10  CA        -0.8820   -8.6900  -21.0280 C.3    36  ASN36       0.1785
     11  C         -2.0950   -8.8240  -21.9690 C.2    36  ASN36       0.2597
     12  O         -2.1290   -8.1650  -23.0110 O.2    36  ASN36      -0.2718
     13  CB        -0.0610   -9.9940  -21.0740 C.3    36  ASN36       0.1169
     14  CG         1.3430   -9.9700  -20.5130 C.2    36  ASN36       0.2627
     15  OD1        1.9740   -8.9230  -20.3080 O.2    36  ASN36      -0.2716
     16  ND2        1.8690  -11.1600  -20.2860 N.am   36  ASN36      -0.0877
     17  N         -3.1080   -9.6380  -21.5570 N.am   37  SER37      -0.1952
     18  CA        -4.3530   -9.8660  -22.3120 C.3    37  SER37       0.1924
     19  C         -5.1410   -8.5530  -22.4740 C.2    37  SER37       0.2314
     20  O         -5.5910   -8.2560  -23.5830 O.2    37  SER37      -0.2863
     21  CB        -5.2130  -10.9220  -21.6220 C.3    37  SER37       0.2116
     22  OG        -4.6300  -12.2080  -21.7480 O.3    37  SER37      -0.2180
     23  N         -3.9320   -5.4820  -22.4010 N.3    39  ASP39      -0.1225
     24  CA        -3.1390   -4.6550  -23.3270 C.3    39  ASP39       0.1805
     25  C         -3.4060   -5.0690  -24.7830 C.2    39  ASP39       0.2597
     26  O         -3.5840   -4.1910  -25.6340 O.2    39  ASP39      -0.2718
     27  CB        -1.6440   -4.7030  -22.9830 C.3    39  ASP39       0.1424
     28  CG        -1.2600   -3.9760  -21.6970 C.2    39  ASP39       0.3668
     29  OD1       -2.1430   -3.3170  -21.0910 O.co2  39  ASP39      -0.2456
     30  OD2       -0.0970   -4.0930  -21.2830 O.co2  39  ASP39      -0.2456
     31  N         -3.4970   -6.4030  -25.0480 N.am   40  ALA40      -0.1979
     32  CA        -3.7930   -6.9650  -26.3830 C.3    40  ALA40       0.1597
     33  C         -5.1990   -6.5740  -26.8520 C.2    40  ALA40       0.2287
     34  O         -5.3900   -6.2930  -28.0420 O.2    40  ALA40      -0.2864
     35  CB        -3.6460   -8.4730  -26.3630 C.3    40  ALA40       0.0319
     36  N         -5.1900   -2.8010  -27.7050 N.3    43  LYS43      -0.1245
     37  CA        -4.5040   -2.6350  -28.9930 C.3    43  LYS43       0.1561
     38  C         -5.4140   -2.9040  -30.2000 C.2    43  LYS43       0.2260
     39  O         -5.4420   -2.0750  -31.1100 O.2    43  LYS43      -0.2867
     40  CB        -3.2090   -3.4760  -29.0520 C.3    43  LYS43       0.0271
     41  CG        -2.1840   -2.9080  -30.0280 C.3    43  LYS43       0.0035
     42  CD        -0.8310   -3.5790  -29.8980 C.3    43  LYS43       0.0206
     43  CE         0.2120   -2.8140  -30.6760 C.3    43  LYS43       0.1093
     44  NZ         1.5670   -3.4200  -30.5370 N.3    43  LYS43      -0.1314
     45  N         -7.7020  -14.8240  -24.5760 N.3    78  ASP78      -0.1239
     46  CA        -8.1180  -13.4590  -24.8920 C.3    78  ASP78       0.1674
     47  C         -8.3960  -13.3730  -26.3910 C.2    78  ASP78       0.2266
     48  O         -7.8230  -14.1500  -27.1690 O.2    78  ASP78      -0.2867
     49  CB        -7.1080  -12.3910  -24.4030 C.3    78  ASP78       0.1410
     50  CG        -5.7920  -12.3310  -25.1550 C.2    78  ASP78       0.3668
     51  OD1       -5.8070  -11.9460  -26.3490 O.co2  78  ASP78      -0.2456
     52  OD2       -4.7490  -12.6330  -24.5450 O.co2  78  ASP78      -0.2456
     53  N         -5.2990   -8.5720  -29.9630 N.3    81  ILE81      -0.1231
     54  CA        -4.5900   -8.3940  -31.2300 C.3    81  ILE81       0.1692
     55  C         -3.8210   -9.6620  -31.7050 C.2    81  ILE81       0.2593
     56  O         -3.6390   -9.8240  -32.9090 O.2    81  ILE81      -0.2718
     57  CB        -3.6590   -7.1300  -31.1580 C.3    81  ILE81       0.0266
     58  CG1       -3.1590   -6.7130  -32.5710 C.3    81  ILE81       0.0019
     59  CG2       -2.4890   -7.2780  -30.1330 C.3    81  ILE81       0.0020
     60  CD1       -3.1310   -5.2630  -32.8470 C.3    81  ILE81       0.0001
     61  N         -3.3640  -10.5050  -30.7740 N.am   82  GLY82      -0.1942
     62  CA        -2.5650  -11.6780  -31.1150 C.3    82  GLY82       0.2014
     63  C         -1.1380  -11.2570  -31.4160 C.2    82  GLY82       0.2638
     64  O         -0.8080  -10.0600  -31.3960 O.2    82  GLY82      -0.2714
     65  N         -0.2730  -12.2390  -31.6840 N.am   83  MET83      -0.1976
     66  CA         1.1370  -11.9890  -31.9690 C.3    83  MET83       0.1605
     67  C          1.5510  -12.6520  -33.2590 C.2    83  MET83       0.2287
     68  O          1.1500  -13.7920  -33.5330 O.2    83  MET83      -0.2864
     69  CB         2.0320  -12.4940  -30.8080 C.3    83  MET83       0.0413
     70  CG         1.9130  -11.6560  -29.5400 C.3    83  MET83       0.0598
     71  SD         2.5830  -12.4920  -28.0850 S.3    83  MET83      -0.1393
     72  CE         1.2450  -13.5590  -27.6610 C.3    83  MET83       0.0692
     73  N          6.7460  -13.0340  -31.5590 N.3    88  LEU88      -0.1245
     74  CA         7.1320  -14.2030  -30.7590 C.3    88  LEU88       0.1561
     75  C          8.6260  -14.4670  -30.6780 C.2    88  LEU88       0.2260
     76  O          9.1120  -14.8380  -29.6070 O.2    88  LEU88      -0.2867
     77  CB         6.4380  -15.4860  -31.2640 C.3    88  LEU88       0.0270
     78  CG         4.9250  -15.6190  -31.0800 C.3    88  LEU88       0.0019
     79  CD1        4.4270  -16.8300  -31.8110 C.3    88  LEU88       0.0001
     80  CD2        4.5210  -15.7070  -29.5920 C.3    88  LEU88       0.0001
     81  N          9.0330   -8.7540  -29.1240 N.3    92  LEU92      -0.1231
     82  CA         8.7480   -8.7110  -27.6820 C.3    92  LEU92       0.1693
     83  C          9.9780   -8.9820  -26.8170 C.2    92  LEU92       0.2592
     84  O         10.1420   -8.3080  -25.7990 O.2    92  LEU92      -0.2718
     85  CB         7.5690   -9.6190  -27.3160 C.3    92  LEU92       0.0284
     86  CG         6.2060   -9.1050  -27.8510 C.3    92  LEU92       0.0019
     87  CD1        5.2080  -10.1770  -27.8650 C.3    92  LEU92       0.0001
     88  CD2        5.6750   -7.9120  -27.0520 C.3    92  LEU92       0.0001
     89  N         10.8280   -9.9110  -27.2550 N.am   93  GLY93      -0.1957
     90  CA        12.0830  -10.2790  -26.6020 C.3    93  GLY93       0.1869
     91  C         13.0470   -9.1050  -26.5550 C.2    93  GLY93       0.2309
     92  O         13.6760   -8.8730  -25.5200 O.2    93  GLY93      -0.2863
     93  N         12.1640   -5.8240  -26.8090 N.3    95  ILE95      -0.1231
     94  CA        11.4970   -4.8560  -25.9340 C.3    95  ILE95       0.1692
     95  C         11.7420   -5.2080  -24.4640 C.2    95  ILE95       0.2591
     96  O         12.0640   -4.3130  -23.6810 O.2    95  ILE95      -0.2718
     97  CB         9.9880   -4.7320  -26.3420 C.3    95  ILE95       0.0266
     98  CG1        9.8120   -3.8690  -27.6210 C.3    95  ILE95       0.0019
     99  CG2        9.0240   -4.2810  -25.2310 C.3    95  ILE95       0.0020
    100  CD1       10.4550   -2.4490  -27.7490 C.3    95  ILE95       0.0001
    101  N         11.6150   -6.5070  -24.1200 N.am   96  ALA96      -0.1980
    102  CA        11.8010   -7.0640  -22.7800 C.3    96  ALA96       0.1597
    103  C         13.2310   -6.9520  -22.2280 C.2    96  ALA96       0.2287
    104  O         13.3690   -6.9320  -21.0060 O.2    96  ALA96      -0.2864
    105  CB        11.3310   -8.5090  -22.7390 C.3    96  ALA96       0.0319
    106  N          7.6640   -4.0100  -17.2880 N.3   120  GLY120     -0.1210
    107  CA         7.0440   -4.5490  -18.4950 C.3   120  GLY120      0.1956
    108  C          7.4890   -5.9420  -18.8860 C.2   120  GLY120      0.2612
    109  O          7.4980   -6.2580  -20.0740 O.2   120  GLY120     -0.2717
    110  N          7.8670   -6.7870  -17.9020 N.am  121  VAL121     -0.1965
    111  CA         8.3230   -8.1690  -18.1420 C.3   121  VAL121      0.1727
    112  C          7.4880   -9.1830  -17.3090 C.2   121  VAL121      0.2617
    113  O          7.9410  -10.3110  -17.0490 O.2   121  VAL121     -0.2715
    114  CB         9.8700   -8.3620  -17.9840 C.3   121  VAL121      0.0290
    115  CG1       10.6280   -7.6110  -19.0720 C.3   121  VAL121      0.0023
    116  CG2       10.3750   -7.9740  -16.5850 C.3   121  VAL121      0.0023
    117  N          6.2720   -8.7580  -16.9370 N.am  122  GLY122     -0.1940
    118  CA         5.3030   -9.5210  -16.1540 C.3   122  GLY122      0.2014
    119  C          4.9580  -10.8880  -16.7080 C.2   122  GLY122      0.2639
    120  O          4.6730  -11.7930  -15.9260 O.2   122  GLY122     -0.2714
    121  N          5.0110  -11.0720  -18.0580 N.am  123  PHE123     -0.1959
    122  CA         4.7270  -12.3680  -18.7030 C.3   123  PHE123      0.1771
    123  C          5.5120  -13.5230  -18.0330 C.2   123  PHE123      0.2619
    124  O          4.9410  -14.5820  -17.7790 O.2   123  PHE123     -0.2715
    125  CB         5.0290  -12.3490  -20.2370 C.3   123  PHE123      0.0574
    126  CG         4.9170  -13.7340  -20.8470 C.ar  123  PHE123     -0.0200
    127  CD1        3.6660  -14.3000  -21.1120 C.ar  123  PHE123     -0.0042
    128  CD2        6.0620  -14.5110  -21.0800 C.ar  123  PHE123     -0.0042
    129  CE1        3.5590  -15.6080  -21.6240 C.ar  123  PHE123     -0.0003
    130  CE2        5.9550  -15.8200  -21.5880 C.ar  123  PHE123     -0.0003
    131  CZ         4.7040  -16.3550  -21.8680 C.ar  123  PHE123     -0.0000
    132  N          6.8100  -13.2900  -17.7460 N.am  124  TYR124     -0.1974
    133  CA         7.7340  -14.2720  -17.1740 C.3   124  TYR124      0.1639
    134  C          7.3920  -14.6960  -15.7390 C.2   124  TYR124      0.2290
    135  O          7.9210  -15.7270  -15.3030 O.2   124  TYR124     -0.2864
    136  CB         9.1910  -13.7980  -17.3160 C.3   124  TYR124      0.0560
    137  CG         9.5780  -13.8140  -18.7840 C.ar  124  TYR124     -0.0198
    138  CD1        9.8520  -15.0190  -19.4420 C.ar  124  TYR124     -0.0009
    139  CD2        9.5780  -12.6410  -19.5400 C.ar  124  TYR124     -0.0009
    140  CE1       10.1350  -15.0510  -20.8090 C.ar  124  TYR124      0.0417
    141  CE2        9.8730  -12.6590  -20.9070 C.ar  124  TYR124      0.0417
    142  CZ        10.1410  -13.8690  -21.5370 C.ar  124  TYR124      0.1957
    143  OH        10.4660  -13.9050  -22.8690 O.3   124  TYR124     -0.2866
    144  N          1.9950  -20.9370  -25.5820 N.3   135  VAL135     -0.1245
    145  CA         1.3070  -19.7470  -26.0730 C.3   135  VAL135      0.1561
    146  C          0.8160  -20.0300  -27.5090 C.2   135  VAL135      0.2260
    147  O          1.6400  -20.1650  -28.4140 O.2   135  VAL135     -0.2867
    148  CB         2.2030  -18.4630  -25.9550 C.3   135  VAL135      0.0252
    149  CG1        1.5140  -17.2370  -26.5640 C.3   135  VAL135      0.0019
    150  CG2        2.5920  -18.1770  -24.4990 C.3   135  VAL135      0.0019
    151  N          4.0600  -21.1690  -29.4240 N.3   147  TRP147     -0.1241
    152  CA         5.3250  -20.8340  -28.7490 C.3   147  TRP147      0.1605
    153  C          5.3010  -21.7000  -27.4950 C.2   147  TRP147      0.2264
    154  O          4.2400  -21.8590  -26.8820 O.2   147  TRP147     -0.2867
    155  CB         5.3860  -19.3360  -28.3600 C.3   147  TRP147      0.0550
    156  CG         6.5920  -18.8730  -27.5650 C.ar  147  TRP147      0.0003
    157  CD1        7.6700  -18.1850  -28.0450 C.ar  147  TRP147      0.0946
    158  CD2        6.7760  -18.9550  -26.1350 C.ar  147  TRP147      0.0152
    159  NE1        8.5250  -17.8530  -27.0120 N.ar  147  TRP147     -0.2442
    160  CE2        8.0130  -18.3310  -25.8340 C.ar  147  TRP147      0.0810
    161  CE3        6.0160  -19.4960  -25.0750 C.ar  147  TRP147      0.0012
    162  CZ2        8.5050  -18.2260  -24.5200 C.ar  147  TRP147      0.0191
    163  CZ3        6.5140  -19.4110  -23.7730 C.ar  147  TRP147      0.0001
    164  CH2        7.7360  -18.7720  -23.5040 C.ar  147  TRP147      0.0015
    165  N         -5.0070  -14.8030  -28.2700 N.3   169  THR169     -0.1218
    166  CA        -3.9830  -15.6210  -27.6240 C.3   169  THR169      0.1862
    167  C         -4.5550  -16.5170  -26.5230 C.2   169  THR169      0.2287
    168  O         -5.4370  -16.0900  -25.7740 O.2   169  THR169     -0.2866
    169  CB        -2.8740  -14.6810  -27.0680 C.3   169  THR169      0.1770
    170  OG1       -2.3730  -13.8480  -28.1150 O.3   169  THR169     -0.2211
    171  CG2       -1.7070  -15.4320  -26.4150 C.3   169  THR169      0.0375
    172  N         -2.8790  -18.7560  -23.3930 N.3   171  VAL171     -0.1245
    173  CA        -1.6830  -18.9860  -22.5690 C.3   171  VAL171      0.1561
    174  C         -2.0450  -20.2050  -21.7040 C.2   171  VAL171      0.2260
    175  O         -2.9160  -20.1030  -20.8420 O.2   171  VAL171     -0.2867
    176  CB        -1.2070  -17.7390  -21.7450 C.3   171  VAL171      0.0252
    177  CG1       -0.0720  -18.0930  -20.7760 C.3   171  VAL171      0.0019
    178  CG2       -0.7680  -16.6070  -22.6650 C.3   171  VAL171      0.0019
@<TRIPOS>BOND
     1    68    67    2
     2    67    66    1
     3    56    55    2
     4    60    58    1
     5    58    57    1
     6    66    65    1
     7    66    69    1
     8    79    78    1
     9    55    54    1
    10    55    61   am
    11    65    63   am
    12    73    74    1
    13    63    64    2
    14    63    62    1
    15    77    78    1
    16    77    74    1
    17    54    57    1
    18    54    53    1
    19    57    59    1
    20    62    61    1
    21    39    38    2
    22    78    80    1
    23    69    70    1
    24    74    75    1
    25    75    76    2
    26    43    44    1
    27    43    42    1
    28    38    37    1
    29    41    42    1
    30    41    40    1
    31    70    71    1
    32   151   152    1
    33    81    82    1
    34    40    37    1
    35    37    36    1
    36   152   155    1
    37   152   153    1
    38   147   146    2
    39   155   156    1
    40   165   166    1
    41   170   169    1
    42    71    72    1
    43   157   156   ar
    44   157   159   ar
    45    34    33    2
    46    87    86    1
    47    86    85    1
    48    86    88    1
    49   100    98    1
    50    82    85    1
    51    82    83    1
    52   166   169    1
    53   166   167    1
    54    98    97    1
    55   156   158   ar
    56   146   145    1
    57   153   154    2
    58    89    83   am
    59    89    90    1
    60    48    47    2
    61   169   171    1
    62   159   160   ar
    63    33    32    1
    64    83    84    2
    65    93    94    1
    66    90    91    1
    67   149   148    1
    68    91    92    2
    69   167   168    2
    70    47    46    1
    71    32    35    1
    72    32    31    1
    73    51    50   ar
    74    97    94    1
    75    97    99    1
    76   158   160   ar
    77   158   161   ar
    78   145   148    1
    79   145   144    1
    80   148   150    1
    81    94    95    1
    82   160   162   ar
    83    26    25    2
    84    50    52   ar
    85    50    49    1
    86   161   163   ar
    87    31    25   am
    88    46    45    1
    89    46    49    1
    90    25    24    1
    91   162   164   ar
    92    95   101   am
    93    95    96    2
    94   101   102    1
    95   163   164   ar
    96    20    19    2
    97   172   173    1
    98    24    27    1
    99    24    23    1
   100    12    11    2
   101    27    28    1
   102   143   142    1
   103   102   105    1
   104   102   103    1
   105   178   176    1
   106   173   176    1
   107   173   174    1
   108    19    18    1
   109    18    21    1
   110    18    17    1
   111   103   104    2
   112    11    17   am
   113    11    10    1
   114   131   129   ar
   115   131   130   ar
   116    22    21    1
   117   176   177    1
   118   174   175    2
   119    28    30   ar
   120    28    29   ar
   121   129   127   ar
   122   130   128   ar
   123   142   141   ar
   124   142   140   ar
   125   127   126   ar
   126   128   126   ar
   127    13    10    1
   128    13    14    1
   129    10     9    1
   130   141   139   ar
   131   126   125    1
   132   140   138   ar
   133    14    15    2
   134    14    16   am
   135   125   122    1
   136   109   108    2
   137   139   137   ar
   138   138   137   ar
   139     4     3    2
   140   115   114    1
   141   108   107    1
   142   108   110   am
   143   137   136    1
   144   122   121    1
   145   122   123    1
   146     8     6    1
   147   107   106    1
   148   111   114    1
   149   111   110    1
   150   111   112    1
   151   121   119   am
   152   123   124    2
   153   123   132   am
   154     3     2    1
   155   114   116    1
   156   132   133    1
   157     2     5    1
   158     2     1    1
   159     5     6    1
   160   136   133    1
   161   112   113    2
   162   112   117   am
   163     6     7    1
   164   133   134    1
   165   117   118    1
   166   119   118    1
   167   119   120    2
   168   134   135    2
