@<TRIPOS>MOLECULE
tmp/4o08A01.pdb
 87 82 0 0 0
SMALL
GASTEIGER

@<TRIPOS>ATOM
      1  N          6.3560   21.4120   -2.1120 N.3   132  LEU132     -0.1231
      2  CA         7.6790   20.9220   -1.6980 C.3   132  LEU132      0.1693
      3  C          8.0610   19.6650   -2.4770 C.2   132  LEU132      0.2591
      4  O          9.2330   19.4440   -2.7830 O.2   132  LEU132     -0.2718
      5  CB         7.7260   20.6100   -0.2010 C.3   132  LEU132      0.0284
      6  CG         8.0670   21.7230    0.7810 C.3   132  LEU132      0.0019
      7  CD1        8.1690   21.1300    2.1870 C.3   132  LEU132      0.0001
      8  CD2        9.3650   22.4220    0.3830 C.3   132  LEU132      0.0001
      9  N          7.0670   18.8420   -2.7940 N.am  133  ARG133     -0.1980
     10  CA         7.3190   17.5940   -3.5090 C.3   133  ARG133      0.1597
     11  C          7.6540   17.7790   -4.9880 C.2   133  ARG133      0.2287
     12  O          8.4540   17.0230   -5.5350 O.2   133  ARG133     -0.2864
     13  CB         6.1370   16.6290   -3.3680 C.3   133  ARG133      0.0334
     14  CG         6.0480   15.9540   -2.0170 C.3   133  ARG133      0.0492
     15  CD         5.0710   14.7830   -2.0390 C.3   133  ARG133      0.2205
     16  NE         3.6830   15.2260   -2.1520 N.pl3 133  ARG133     -0.0865
     17  CZ         2.9120   15.5400   -1.1120 C.cat 133  ARG133      0.5346
     18  NH1        3.4000   15.4570    0.1180 N.pl3 133  ARG133      0.1354
     19  NH2        1.6530   15.9340   -1.3020 N.pl3 133  ARG133      0.1354
     20  N         11.1720   24.1740   -3.6640 N.3   139  GLN139     -0.1245
     21  CA        12.2540   23.4400   -3.0130 C.3   139  GLN139      0.1566
     22  C         13.4820   24.3340   -2.8050 C.2   139  GLN139      0.2260
     23  O         14.0360   24.3810   -1.7080 O.2   139  GLN139     -0.2867
     24  CB        12.6150   22.1910   -3.8160 C.3   139  GLN139      0.0367
     25  CG        11.5270   21.1420   -3.8480 C.3   139  GLN139      0.0905
     26  CD        11.7280   20.1510   -4.9670 C.2   139  GLN139      0.2608
     27  OE1       12.6330   20.3060   -5.7850 O.2   139  GLN139     -0.2717
     28  NE2       10.8910   19.1240   -5.0110 N.am  139  GLN139     -0.0878
     29  N         12.7700   26.9540   -0.2210 N.3   142  SER142     -0.1202
     30  CA        12.6340   26.4760    1.1470 C.3   142  SER142      0.2020
     31  C         13.9190   25.8390    1.6810 C.2   142  SER142      0.2618
     32  O         13.9320   25.2780    2.7790 O.2   142  SER142     -0.2717
     33  CB        11.4610   25.5010    1.2530 C.3   142  SER142      0.2103
     34  OG        10.2450   26.1580    0.9410 O.3   142  SER142     -0.2182
     35  N         15.0000   25.9450    0.9170 N.am  143  GLU143     -0.1979
     36  CA        16.2760   25.3590    1.3360 C.3   143  GLU143      0.1602
     37  C         16.7350   25.8370    2.7220 C.2   143  GLU143      0.2287
     38  O         17.2690   25.0520    3.5060 O.2   143  GLU143     -0.2864
     39  CB        17.3660   25.6130    0.2870 C.3   143  GLU143      0.0415
     40  CG        18.7380   25.0410    0.6510 C.3   143  GLU143      0.1163
     41  CD        18.7860   23.5100    0.6100 C.2   143  GLU143      0.3649
     42  OE1       17.8180   22.8790    0.1240 O.co2 143  GLU143     -0.2457
     43  OE2       19.8000   22.9370    1.0650 O.co2 143  GLU143     -0.2457
     44  N         15.2230   26.2100    5.2960 N.3   145  MET145     -0.1230
     45  CA        14.6110   25.4270    6.3710 C.3   145  MET145      0.1702
     46  C         15.4820   24.2480    6.8070 C.2   145  MET145      0.2592
     47  O         15.4860   23.8760    7.9810 O.2   145  MET145     -0.2718
     48  CB        13.2130   24.9480    5.9930 C.3   145  MET145      0.0401
     49  CG        12.2060   26.0870    5.8580 C.3   145  MET145      0.0596
     50  SD        10.5200   25.5290    6.0740 S.3   145  MET145     -0.1393
     51  CE        10.1960   24.7430    4.5130 C.3   145  MET145      0.0692
     52  N         16.2100   23.6620    5.8600 N.am  146  LYS146     -0.1980
     53  CA        17.2090   22.6560    6.1950 C.3   146  LYS146      0.1596
     54  C         18.3470   23.3100    6.9700 C.2   146  LYS146      0.2287
     55  O         18.8100   22.7800    7.9710 O.2   146  LYS146     -0.2864
     56  CB        17.7550   21.9790    4.9340 C.3   146  LYS146      0.0298
     57  CG        16.7190   21.1690    4.1670 C.3   146  LYS146      0.0038
     58  CD        17.3130   20.5860    2.8830 C.3   146  LYS146      0.0206
     59  CE        16.2680   19.8160    2.0850 C.3   146  LYS146      0.1093
     60  NZ        16.8310   19.2100    0.8470 N.3   146  LYS146     -0.1314
     61  N          9.6120   17.5360    7.4700 N.3   208  ILE208     -0.1231
     62  CA         9.6280   17.6900    6.0150 C.3   208  ILE208      0.1692
     63  C         10.9820   17.2950    5.4370 C.2   208  ILE208      0.2592
     64  O         11.3120   17.6510    4.3040 O.2   208  ILE208     -0.2718
     65  CB         9.3570   19.1510    5.6010 C.3   208  ILE208      0.0266
     66  CG1       10.3090   20.0970    6.3470 C.3   208  ILE208      0.0019
     67  CG2        7.8860   19.5290    5.8510 C.3   208  ILE208      0.0020
     68  CD1       10.2570   21.5390    5.8710 C.3   208  ILE208      0.0001
     69  N         11.7610   16.5520    6.2140 N.am  209  PHE209     -0.1976
     70  CA        13.1690   16.3400    5.8830 C.3   209  PHE209      0.1639
     71  C         13.5340   14.8910    5.5130 C.2   209  PHE209      0.2290
     72  O         14.5800   14.6460    4.9060 O.2   209  PHE209     -0.2864
     73  CB        14.0560   16.8550    7.0230 C.3   209  PHE209      0.0560
     74  CG        13.8370   18.3170    7.3480 C.ar  209  PHE209     -0.0200
     75  CD1       14.2380   19.3040    6.4620 C.ar  209  PHE209     -0.0042
     76  CD2       13.2220   18.6920    8.5280 C.ar  209  PHE209     -0.0042
     77  CE1       14.0360   20.6420    6.7540 C.ar  209  PHE209     -0.0003
     78  CE2       13.0190   20.0330    8.8310 C.ar  209  PHE209     -0.0003
     79  CZ        13.4250   21.0050    7.9380 C.ar  209  PHE209     -0.0000
     80  N          8.1490   13.6600    3.9700 N.3   214  LEU214     -0.1245
     81  CA         7.8000   14.3880    2.7590 C.3   214  LEU214      0.1561
     82  C          6.5900   13.7730    2.0650 C.2   214  LEU214      0.2260
     83  O          5.8780   14.4490    1.3250 O.2   214  LEU214     -0.2867
     84  CB         8.9900   14.4140    1.8010 C.3   214  LEU214      0.0270
     85  CG         9.3300   15.7550    1.1500 C.3   214  LEU214      0.0019
     86  CD1        9.0670   16.9010    2.1120 C.3   214  LEU214      0.0001
     87  CD2       10.7750   15.7620    0.6840 C.3   214  LEU214      0.0001
@<TRIPOS>BOND
     1    27    26    2
     2    12    11    2
     3    28    26   am
     4    11    10    1
     5    26    25    1
     6    25    24    1
     7    24    21    1
     8    20    21    1
     9    10    13    1
    10    10     9    1
    11    13    14    1
    12    21    22    1
    13    22    23    2
    14     9     3   am
    15     4     3    2
    16     3     2    1
    17    16    15    1
    18    16    17    2
    19     1     2    1
    20    15    14    1
    21     2     5    1
    22    19    17    1
    23    17    18    1
    24    29    30    1
    25     5     6    1
    26    42    41   ar
    27    39    40    1
    28    39    36    1
    29     8     6    1
    30    41    40    1
    31    41    43   ar
    32    87    85    1
    33     6     7    1
    34    60    59    1
    35    35    36    1
    36    35    31   am
    37    34    33    1
    38    30    33    1
    39    30    31    1
    40    85    84    1
    41    85    86    1
    42    83    82    2
    43    36    37    1
    44    31    32    2
    45    84    81    1
    46    82    81    1
    47    59    58    1
    48    37    38    2
    49    81    80    1
    50    58    57    1
    51    57    56    1
    52    64    63    2
    53    51    50    1
    54    72    71    2
    55    56    53    1
    56    44    45    1
    57    63    62    1
    58    63    69   am
    59    71    70    1
    60    65    67    1
    61    65    62    1
    62    65    66    1
    63    49    48    1
    64    49    50    1
    65    52    53    1
    66    52    46   am
    67    68    66    1
    68    70    69    1
    69    70    73    1
    70    48    45    1
    71    62    61    1
    72    53    54    1
    73    45    46    1
    74    75    77   ar
    75    75    74   ar
    76    77    79   ar
    77    46    47    2
    78    54    55    2
    79    73    74    1
    80    74    76   ar
    81    79    78   ar
    82    76    78   ar
