@<TRIPOS>MOLECULE
tmp/4o08A02.pdb
 134 133 0 0 0
SMALL
GASTEIGER

@<TRIPOS>ATOM
      1  N          7.7070   34.4730   11.5110 N.3    30  PHE30      -0.1228
      2  CA         9.1410   34.6970   11.7090 C.3    30  PHE30       0.1721
      3  C          9.7210   35.7010   10.7070 C.2    30  PHE30       0.2437
      4  O          9.4190   35.6300    9.5030 O.2    30  PHE30      -0.2733
      5  CB         9.8720   33.3590   11.5430 C.3    30  PHE30       0.0547
      6  CG        11.3750   33.4710   11.6360 C.ar   30  PHE30      -0.0202
      7  CD1       12.0140   33.3250   12.8540 C.ar   30  PHE30      -0.0042
      8  CD2       12.1390   33.7240   10.5050 C.ar   30  PHE30      -0.0042
      9  CE1       13.4150   33.4220   12.9390 C.ar   30  PHE30      -0.0003
     10  CE2       13.5220   33.8210   10.5810 C.ar   30  PHE30      -0.0003
     11  CZ        14.1550   33.6690   11.8040 C.ar   30  PHE30      -0.0000
     12  N         10.5800   36.6360   11.1750 N.am   31  PRO31      -0.2718
     13  CA        11.0100   36.8950   12.5450 C.3    31  PRO31       0.1535
     14  C         10.2970   38.1340   13.0480 C.2    31  PRO31       0.2598
     15  O         10.9390   39.0320   13.5810 O.2    31  PRO31      -0.2715
     16  CB        12.4980   37.2160   12.3720 C.3    31  PRO31       0.0310
     17  CG        12.5450   37.9620   11.0740 C.3    31  PRO31       0.0237
     18  CD        11.3940   37.4010   10.2140 C.3    31  PRO31       0.0939
     19  N          8.9830   38.1860   12.8590 N.am   32  ASP32      -0.1972
     20  CA         8.2240   39.3700   13.2400 C.3    32  ASP32       0.1709
     21  C          7.6560   39.2070   14.6390 C.2    32  ASP32       0.2293
     22  O          8.1930   38.4490   15.4490 O.2    32  ASP32      -0.2864
     23  CB         7.1290   39.6570   12.1980 C.3    32  ASP32       0.1436
     24  CG         7.6740   39.6320   10.7640 C.2    32  ASP32       0.3671
     25  OD1        8.5270   40.4820   10.4220 O.co2  32  ASP32      -0.2456
     26  OD2        7.2520   38.7530    9.9780 O.co2  32  ASP32      -0.2456
     27  N          2.6170   33.7390    7.6220 N.3    97  ASP97      -0.1239
     28  CA         3.8940   33.0390    7.8540 C.3    97  ASP97       0.1674
     29  C          3.7240   31.9080    8.8830 C.2    97  ASP97       0.2266
     30  O          2.8190   31.0870    8.7400 O.2    97  ASP97      -0.2867
     31  CB         4.9610   34.0590    8.2830 C.3    97  ASP97       0.1410
     32  CG         6.3830   33.5040    8.2070 C.2    97  ASP97       0.3668
     33  OD1        6.9890   33.5840    7.1200 O.co2  97  ASP97      -0.2456
     34  OD2        6.8950   32.9950    9.2300 O.co2  97  ASP97      -0.2456
     35  N         16.5220   27.1140    3.0240 N.3   144  TYR144     -0.1241
     36  CA        16.9340   27.6710    4.3140 C.3   144  TYR144      0.1605
     37  C         16.3540   26.8820    5.5010 C.2   144  TYR144      0.2264
     38  O         16.9260   26.8920    6.5940 O.2   144  TYR144     -0.2867
     39  CB        16.5440   29.1520    4.4220 C.3   144  TYR144      0.0534
     40  CG        15.0580   29.3400    4.5850 C.ar  144  TYR144     -0.0201
     41  CD1       14.2250   29.4280    3.4760 C.ar  144  TYR144     -0.0009
     42  CD2       14.4800   29.3840    5.8460 C.ar  144  TYR144     -0.0009
     43  CE1       12.8600   29.5720    3.6210 C.ar  144  TYR144      0.0417
     44  CE2       13.1140   29.5320    6.0040 C.ar  144  TYR144      0.0417
     45  CZ        12.3090   29.6220    4.8880 C.ar  144  TYR144      0.1957
     46  OH        10.9490   29.7630    5.0370 O.3   144  TYR144     -0.2866
     47  N         17.3090   40.5100    6.5870 N.3   168  LEU168     -0.1231
     48  CA        16.1440   39.7360    6.1980 C.3   168  LEU168      0.1693
     49  C         14.8870   40.5990    6.1000 C.2   168  LEU168      0.2591
     50  O         14.1590   40.5400    5.1030 O.2   168  LEU168     -0.2718
     51  CB        15.9410   38.5780    7.1860 C.3   168  LEU168      0.0284
     52  CG        14.8450   37.5610    6.8590 C.3   168  LEU168      0.0019
     53  CD1       15.1800   36.8190    5.5690 C.3   168  LEU168      0.0001
     54  CD2       14.6660   36.5760    8.0020 C.3   168  LEU168      0.0001
     55  N         14.6260   41.3990    7.1280 N.am  169  VAL169     -0.1980
     56  CA        13.3780   42.1610    7.1660 C.3   169  VAL169      0.1595
     57  C         13.5500   43.6810    7.2610 C.2   169  VAL169      0.2287
     58  O         12.7050   44.4180    6.7690 O.2   169  VAL169     -0.2864
     59  CB        12.4210   41.6860    8.2980 C.3   169  VAL169      0.0276
     60  CG1       12.0500   40.2360    8.1120 C.3   169  VAL169      0.0022
     61  CG2       13.0440   41.9000    9.6550 C.3   169  VAL169      0.0022
     62  N         15.0800   45.5400    3.5020 N.3   172  PRO172     -0.2116
     63  CA        14.0610   45.6340    2.4470 C.3   172  PRO172      0.1372
     64  C         12.9450   46.6190    2.7990 C.2   172  PRO172      0.2244
     65  O         12.4720   47.3440    1.9250 O.2   172  PRO172     -0.2868
     66  CB        13.4890   44.2120    2.3750 C.3   172  PRO172      0.0268
     67  CG        14.5590   43.3340    2.9560 C.3   172  PRO172      0.0207
     68  CD        15.2610   44.1600    3.9870 C.3   172  PRO172      0.0892
     69  N          8.2890   51.1470    3.7420 N.3   178  TYR178     -0.1241
     70  CA         7.1780   50.7870    4.6220 C.3   178  TYR178      0.1605
     71  C          7.5800   50.5730    6.0810 C.2   178  TYR178      0.2264
     72  O          6.7530   50.1750    6.8940 O.2   178  TYR178     -0.2867
     73  CB         6.3720   49.5800    4.0940 C.3   178  TYR178      0.0534
     74  CG         7.1700   48.3160    3.8600 C.ar  178  TYR178     -0.0201
     75  CD1        7.7150   48.0340    2.6130 C.ar  178  TYR178     -0.0009
     76  CD2        7.3560   47.3890    4.8840 C.ar  178  TYR178     -0.0009
     77  CE1        8.4280   46.8850    2.4010 C.ar  178  TYR178      0.0417
     78  CE2        8.0590   46.2370    4.6790 C.ar  178  TYR178      0.0417
     79  CZ         8.5940   45.9840    3.4390 C.ar  178  TYR178      0.1957
     80  OH         9.3110   44.8320    3.2440 O.3   178  TYR178     -0.2866
     81  N          9.8380   35.7770   -1.8410 N.3   240  PRO240     -0.2102
     82  CA        10.8730   34.7830   -2.1450 C.3   240  PRO240      0.1504
     83  C         10.7050   33.4960   -1.3310 C.2   240  PRO240      0.2576
     84  O         11.2730   32.4800   -1.6960 O.2   240  PRO240     -0.2718
     85  CB        12.1750   35.5040   -1.7650 C.3   240  PRO240      0.0282
     86  CG        11.7680   36.5110   -0.7440 C.3   240  PRO240      0.0208
     87  CD        10.3850   36.9580   -1.1470 C.3   240  PRO240      0.0893
     88  N          9.9120   33.5540   -0.2630 N.am  241  THR241     -0.1953
     89  CA         9.7230   32.4390    0.6730 C.3   241  THR241      0.1897
     90  C          8.7060   31.4030    0.1790 C.2   241  THR241      0.2313
     91  O          8.9130   30.1940    0.3320 O.2   241  THR241     -0.2863
     92  CB         9.2250   32.9680    2.0510 C.3   241  THR241      0.1794
     93  OG1       10.0370   34.0770    2.4690 O.3   241  THR241     -0.2208
     94  CG2        9.2750   31.8810    3.1080 C.3   241  THR241      0.0378
     95  N          5.6300   41.6750   -1.6070 N.3   266  SER266     -0.1202
     96  CA         6.4460   40.5170   -1.3270 C.3   266  SER266      0.2020
     97  C          5.8920   39.7570   -0.1230 C.2   266  SER266      0.2619
     98  O          4.6840   39.5420   -0.0210 O.2   266  SER266     -0.2717
     99  CB         7.9080   40.9380   -1.1080 C.3   266  SER266      0.2103
    100  OG         8.7600   39.8060   -1.0250 O.3   266  SER266     -0.2182
    101  N          6.7720   39.3800    0.7990 N.am  267  HIS267     -0.1961
    102  CA         6.4270   38.4520    1.8770 C.3   267  HIS267      0.1787
    103  C          5.3230   38.8990    2.8550 C.2   267  HIS267      0.2620
    104  O          4.5800   38.0620    3.3700 O.2   267  HIS267     -0.2715
    105  CB         7.6830   38.1100    2.6800 C.3   267  HIS267      0.0785
    106  CG         7.4440   37.0930    3.7490 C.ar  267  HIS267      0.0821
    107  ND1        7.0980   35.7900    3.4690 N.ar  267  HIS267     -0.2267
    108  CD2        7.4820   37.1920    5.0990 C.ar  267  HIS267      0.1154
    109  CE1        6.9380   35.1240    4.6000 C.ar  267  HIS267      0.1986
    110  NE2        7.1700   35.9520    5.6040 N.ar  267  HIS267     -0.2212
    111  N          5.2420   40.2000    3.1250 N.am  268  ALA268     -0.1977
    112  CA         4.3730   40.7130    4.1840 C.3   268  ALA268      0.1597
    113  C          3.4900   41.8690    3.7100 C.2   268  ALA268      0.2287
    114  O          3.7110   43.0360    4.0640 O.2   268  ALA268     -0.2864
    115  CB         5.2120   41.1410    5.3890 C.3   268  ALA268      0.0319
    116  N          1.8720   44.9340    5.9900 N.3   271  HIS271     -0.1226
    117  CA         2.5160   46.2200    6.2450 C.3   271  HIS271      0.1752
    118  C          3.2440   46.8300    5.0460 C.2   271  HIS271      0.2595
    119  O          3.6520   47.9960    5.0880 O.2   271  HIS271     -0.2718
    120  CB         3.3100   46.2800    7.5730 C.3   271  HIS271      0.0759
    121  CG         4.5930   45.5060    7.5820 C.ar  271  HIS271      0.0818
    122  ND1        5.5320   45.6580    8.5810 N.ar  271  HIS271     -0.2268
    123  CD2        5.0700   44.5430    6.7600 C.ar  271  HIS271      0.1154
    124  CE1        6.5510   44.8490    8.3520 C.ar  271  HIS271      0.1986
    125  NE2        6.2950   44.1570    7.2530 N.ar  271  HIS271     -0.2212
    126  N          3.3760   46.0550    3.9720 N.am  272  GLU272     -0.1979
    127  CA         3.9530   46.5710    2.7280 C.3   272  GLU272      0.1602
    128  C          2.9650   47.4730    1.9880 C.2   272  GLU272      0.2287
    129  O          3.3360   48.5240    1.4600 O.2   272  GLU272     -0.2864
    130  CB         4.4210   45.4250    1.8250 C.3   272  GLU272      0.0415
    131  CG         5.6160   44.6530    2.3790 C.3   272  GLU272      0.1163
    132  CD         6.0850   43.5600    1.4550 C.2   272  GLU272      0.3649
    133  OE1        5.8800   43.6970    0.2260 O.co2 272  GLU272     -0.2457
    134  OE2        6.6590   42.5630    1.9560 O.co2 272  GLU272     -0.2457
@<TRIPOS>BOND
     1    82    81    1
     2    82    85    1
     3    82    83    1
     4    81    87    1
     5    85    86    1
     6    84    83    2
     7    95    96    1
     8    83    88   am
     9    96    99    1
    10    96    97    1
    11    87    86    1
    12    99   100    1
    13    88    89    1
    14    97    98    2
    15    97   101   am
    16    90    91    2
    17    90    89    1
    18   133   132   ar
    19    89    92    1
    20   101   102    1
    21   132   134   ar
    22   132   131    1
    23   129   128    2
    24   130   131    1
    25   130   127    1
    26   102   105    1
    27   102   103    1
    28    65    64    2
    29   128   127    1
    30    92    93    1
    31    92    94    1
    32    66    63    1
    33    66    67    1
    34    77    75   ar
    35    77    79   ar
    36    63    64    1
    37    63    62    1
    38    75    74   ar
    39   105   106    1
    40   127   126    1
    41   103   111   am
    42   103   104    2
    43    67    68    1
    44    35    36    1
    45   111   112    1
    46    80    79    1
    47    79    78   ar
    48   107   106   ar
    49   107   109   ar
    50    41    43   ar
    51    41    40   ar
    52    62    68    1
    53    43    45   ar
    54   113   114    2
    55   113   112    1
    56    69    70    1
    57   106   108   ar
    58    74    73    1
    59    74    76   ar
    60   126   118   am
    61    73    70    1
    62   112   115    1
    63    36    39    1
    64    36    37    1
    65    39    40    1
    66    40    42   ar
    67   109   110   ar
    68    70    71    1
    69    78    76   ar
    70    45    46    1
    71    45    44   ar
    72   118   119    2
    73   118   117    1
    74   108   110   ar
    75    50    49    2
    76    37    38    2
    77    53    52    1
    78    42    44   ar
    79   116   117    1
    80    71    72    2
    81    49    48    1
    82    49    55   am
    83    48    47    1
    84    48    51    1
    85   117   120    1
    86   123   125   ar
    87   123   121   ar
    88    58    57    2
    89    52    51    1
    90    52    54    1
    91    33    32   ar
    92    55    56    1
    93    56    57    1
    94    56    59    1
    95   125   124   ar
    96   120   121    1
    97   121   122   ar
    98    27    28    1
    99    28    31    1
   100    28    29    1
   101    60    59    1
   102    32    31    1
   103    32    34   ar
   104    59    61    1
   105   124   122   ar
   106    30    29    2
   107     4     3    2
   108    26    24   ar
   109    18    17    1
   110    18    12    1
   111    25    24   ar
   112     8    10   ar
   113     8     6   ar
   114    10    11   ar
   115     3    12   am
   116     3     2    1
   117    24    23    1
   118    17    16    1
   119    12    13    1
   120     1     2    1
   121     5     6    1
   122     5     2    1
   123     6     7   ar
   124    11     9   ar
   125    23    20    1
   126    16    13    1
   127    13    14    1
   128     7     9   ar
   129    19    14   am
   130    19    20    1
   131    14    15    2
   132    20    21    1
   133    21    22    2
