@<TRIPOS>MOLECULE
tmp/4o08A00.pdb
 161 159 0 0 0
SMALL
GASTEIGER

@<TRIPOS>ATOM
      1  N          7.7070   34.4730   11.5110 N.3    30  PHE30      -0.1241
      2  CA         9.1410   34.6970   11.7090 C.3    30  PHE30       0.1605
      3  C          9.7210   35.7010   10.7070 C.2    30  PHE30       0.2264
      4  O          9.4190   35.6300    9.5030 O.2    30  PHE30      -0.2867
      5  CB         9.8720   33.3590   11.5430 C.3    30  PHE30       0.0534
      6  CG        11.3750   33.4710   11.6360 C.ar   30  PHE30      -0.0203
      7  CD1       12.0140   33.3250   12.8540 C.ar   30  PHE30      -0.0042
      8  CD2       12.1390   33.7240   10.5050 C.ar   30  PHE30      -0.0042
      9  CE1       13.4150   33.4220   12.9390 C.ar   30  PHE30      -0.0003
     10  CE2       13.5220   33.8210   10.5810 C.ar   30  PHE30      -0.0003
     11  CZ        14.1550   33.6690   11.8040 C.ar   30  PHE30      -0.0000
     12  N          2.6170   33.7390    7.6220 N.3    97  ASP97      -0.1225
     13  CA         3.8940   33.0390    7.8540 C.3    97  ASP97       0.1805
     14  C          3.7240   31.9080    8.8830 C.2    97  ASP97       0.2597
     15  O          2.8190   31.0870    8.7400 O.2    97  ASP97      -0.2718
     16  CB         4.9610   34.0590    8.2830 C.3    97  ASP97       0.1424
     17  CG         6.3830   33.5040    8.2070 C.2    97  ASP97       0.3668
     18  OD1        6.9890   33.5840    7.1200 O.co2  97  ASP97      -0.2456
     19  OD2        6.8950   32.9950    9.2300 O.co2  97  ASP97      -0.2456
     20  N          4.5480   31.8510    9.9310 N.am   98  TRP98      -0.1976
     21  CA         4.3670   30.7740   10.9200 C.3    98  TRP98       0.1640
     22  C          2.9770   30.8210   11.5540 C.2    98  TRP98       0.2290
     23  O          2.3980   29.7930   11.8890 O.2    98  TRP98      -0.2864
     24  CB         5.4370   30.8210   12.0130 C.3    98  TRP98       0.0576
     25  CG         6.4470   29.7220   11.8730 C.ar   98  TRP98       0.0006
     26  CD1        7.7400   29.8400   11.4480 C.ar   98  TRP98       0.0946
     27  CD2        6.2300   28.3330   12.1220 C.ar   98  TRP98       0.0152
     28  NE1        8.3390   28.6050   11.4200 N.ar   98  TRP98      -0.2442
     29  CE2        7.4370   27.6640   11.8350 C.ar   98  TRP98       0.0810
     30  CE3        5.1360   27.5900   12.5710 C.ar   98  TRP98       0.0012
     31  CZ2        7.5810   26.2890   11.9840 C.ar   98  TRP98       0.0191
     32  CZ3        5.2820   26.2200   12.7190 C.ar   98  TRP98       0.0001
     33  CH2        6.4960   25.5870   12.4260 C.ar   98  TRP98       0.0015
     34  N          0.8560   28.9420    9.3180 N.3   101  GLY101     -0.1225
     35  CA         1.0610   27.4990    9.4480 C.3   101  GLY101      0.1811
     36  C          0.2540   26.9840   10.6310 C.2   101  GLY101      0.2280
     37  O         -0.4240   25.9560   10.5600 O.2   101  GLY101     -0.2866
     38  N          2.2860   28.8300    4.5920 N.3   123  PRO123     -0.2116
     39  CA         1.9780   27.5170    4.0260 C.3   123  PRO123      0.1372
     40  C          0.5570   27.0610    4.3300 C.2   123  PRO123      0.2244
     41  O          0.1530   26.9510    5.4900 O.2   123  PRO123     -0.2868
     42  CB         2.9820   26.5940    4.7240 C.3   123  PRO123      0.0268
     43  CG         3.1590   27.2520    6.1070 C.3   123  PRO123      0.0207
     44  CD         3.0820   28.7440    5.8330 C.3   123  PRO123      0.0892
     45  N          1.1260   23.2780    0.4770 N.3   128  PHE128     -0.1241
     46  CA         2.5660   23.4500    0.7040 C.3   128  PHE128      0.1605
     47  C          3.3430   22.1380    0.5040 C.2   128  PHE128      0.2264
     48  O          4.4230   22.1260   -0.1000 O.2   128  PHE128     -0.2867
     49  CB         2.8650   24.0440    2.0800 C.3   128  PHE128      0.0534
     50  CG         4.3230   24.3260    2.2940 C.ar  128  PHE128     -0.0203
     51  CD1        4.9670   25.2960    1.5390 C.ar  128  PHE128     -0.0042
     52  CD2        5.0510   23.6190    3.2350 C.ar  128  PHE128     -0.0042
     53  CE1        6.3140   25.5670    1.7250 C.ar  128  PHE128     -0.0003
     54  CE2        6.3980   23.8760    3.4220 C.ar  128  PHE128     -0.0003
     55  CZ         7.0300   24.8510    2.6680 C.ar  128  PHE128     -0.0000
     56  N         16.5220   27.1140    3.0240 N.3   144  TYR144     -0.1227
     57  CA        16.9340   27.6710    4.3140 C.3   144  TYR144      0.1736
     58  C         16.3540   26.8820    5.5010 C.2   144  TYR144      0.2595
     59  O         16.9260   26.8920    6.5940 O.2   144  TYR144     -0.2718
     60  CB        16.5440   29.1520    4.4220 C.3   144  TYR144      0.0548
     61  CG        15.0580   29.3400    4.5850 C.ar  144  TYR144     -0.0200
     62  CD1       14.2250   29.4280    3.4760 C.ar  144  TYR144     -0.0009
     63  CD2       14.4800   29.3840    5.8460 C.ar  144  TYR144     -0.0009
     64  CE1       12.8600   29.5720    3.6210 C.ar  144  TYR144      0.0417
     65  CE2       13.1140   29.5320    6.0040 C.ar  144  TYR144      0.0417
     66  CZ        12.3090   29.6220    4.8880 C.ar  144  TYR144      0.1957
     67  OH        10.9490   29.7630    5.0370 O.3   144  TYR144     -0.2866
     68  N         15.2230   26.2100    5.2960 N.am  145  MET145     -0.1979
     69  CA        14.6110   25.4270    6.3710 C.3   145  MET145      0.1605
     70  C         15.4820   24.2480    6.8070 C.2   145  MET145      0.2287
     71  O         15.4860   23.8760    7.9810 O.2   145  MET145     -0.2864
     72  CB        13.2130   24.9480    5.9930 C.3   145  MET145      0.0413
     73  CG        12.2060   26.0870    5.8580 C.3   145  MET145      0.0598
     74  SD        10.5200   25.5290    6.0740 S.3   145  MET145     -0.1393
     75  CE        10.1960   24.7430    4.5130 C.3   145  MET145      0.0692
     76  N         18.2270   25.9460    8.8770 N.3   148  PHE148     -0.1241
     77  CA        17.7340   26.3040   10.2130 C.3   148  PHE148      0.1605
     78  C         17.8110   25.1550   11.2360 C.2   148  PHE148      0.2264
     79  O         17.6740   25.3760   12.4430 O.2   148  PHE148     -0.2867
     80  CB        16.2810   26.8210   10.1340 C.3   148  PHE148      0.0534
     81  CG        16.1600   28.2580    9.6760 C.ar  148  PHE148     -0.0203
     82  CD1       17.2330   28.9100    9.0910 C.ar  148  PHE148     -0.0042
     83  CD2       14.9800   28.9630    9.8690 C.ar  148  PHE148     -0.0042
     84  CE1       17.1300   30.2290    8.6770 C.ar  148  PHE148     -0.0003
     85  CE2       14.8670   30.2830    9.4620 C.ar  148  PHE148     -0.0003
     86  CZ        15.9470   30.9180    8.8610 C.ar  148  PHE148     -0.0000
     87  N         17.3090   40.5100    6.5870 N.3   168  LEU168     -0.1245
     88  CA        16.1440   39.7360    6.1980 C.3   168  LEU168      0.1561
     89  C         14.8870   40.5990    6.1000 C.2   168  LEU168      0.2260
     90  O         14.1590   40.5400    5.1030 O.2   168  LEU168     -0.2867
     91  CB        15.9410   38.5780    7.1860 C.3   168  LEU168      0.0270
     92  CG        14.8450   37.5610    6.8590 C.3   168  LEU168      0.0019
     93  CD1       15.1800   36.8190    5.5690 C.3   168  LEU168      0.0001
     94  CD2       14.6660   36.5760    8.0020 C.3   168  LEU168      0.0001
     95  N         10.9840   25.6310   13.8150 N.3   203  TYR203     -0.1241
     96  CA        11.4410   24.9880   12.5830 C.3   203  TYR203      0.1605
     97  C         12.0170   23.6080   12.8580 C.2   203  TYR203      0.2264
     98  O         11.9670   22.7050   12.0210 O.2   203  TYR203     -0.2867
     99  CB        12.5360   25.8260   11.9210 C.3   203  TYR203      0.0534
    100  CG        12.0700   27.1120   11.2880 C.ar  203  TYR203     -0.0201
    101  CD1       11.6380   27.1450    9.9600 C.ar  203  TYR203     -0.0009
    102  CD2       12.0770   28.3030   12.0110 C.ar  203  TYR203     -0.0009
    103  CE1       11.2230   28.3350    9.3700 C.ar  203  TYR203      0.0417
    104  CE2       11.6660   29.4850   11.4340 C.ar  203  TYR203      0.0417
    105  CZ        11.2420   29.4970   10.1180 C.ar  203  TYR203      0.1957
    106  OH        10.8290   30.6860    9.5730 O.3   203  TYR203     -0.2866
    107  N          9.7330   20.5990   12.4970 N.3   206  LEU206     -0.1245
    108  CA         9.0840   20.3820   11.2060 C.3   206  LEU206      0.1561
    109  C          9.4290   18.9990   10.6740 C.2   206  LEU206      0.2260
    110  O         10.5880   18.6070   10.6900 O.2   206  LEU206     -0.2867
    111  CB         9.5410   21.4380   10.2000 C.3   206  LEU206      0.0270
    112  CG         8.9620   22.8490   10.3800 C.3   206  LEU206      0.0019
    113  CD1        9.7090   23.8290    9.5010 C.3   206  LEU206      0.0001
    114  CD2        7.4800   22.8540   10.0440 C.3   206  LEU206      0.0001
    115  N          1.2530   19.4570    6.0850 N.3   219  LEU219     -0.1231
    116  CA         2.4700   19.8860    6.7560 C.3   219  LEU219      0.1693
    117  C          2.4290   19.4430    8.2100 C.2   219  LEU219      0.2592
    118  O          3.4120   18.9400    8.7420 O.2   219  LEU219     -0.2718
    119  CB         2.6090   21.4010    6.6610 C.3   219  LEU219      0.0284
    120  CG         3.8060   22.0630    7.3370 C.3   219  LEU219      0.0019
    121  CD1        5.1210   21.4590    6.8340 C.3   219  LEU219      0.0001
    122  CD2        3.7580   23.5670    7.0970 C.3   219  LEU219      0.0001
    123  N          1.2800   19.6450    8.8440 N.am  220  PHE220     -0.1976
    124  CA         1.0280   19.1300   10.1880 C.3   220  PHE220      0.1639
    125  C         -0.1380   18.1670   10.1220 C.2   220  PHE220      0.2290
    126  O         -1.0400   18.3460    9.3000 O.2   220  PHE220     -0.2864
    127  CB         0.6940   20.2750   11.1370 C.3   220  PHE220      0.0560
    128  CG         1.7280   21.3500   11.1320 C.ar  220  PHE220     -0.0200
    129  CD1        2.9810   21.1070   11.6530 C.ar  220  PHE220     -0.0042
    130  CD2        1.4640   22.5780   10.5670 C.ar  220  PHE220     -0.0042
    131  CE1        3.9530   22.0950   11.6300 C.ar  220  PHE220     -0.0003
    132  CE2        2.4260   23.5690   10.5470 C.ar  220  PHE220     -0.0003
    133  CZ         3.6680   23.3260   11.0750 C.ar  220  PHE220     -0.0000
    134  N          9.9120   33.5540   -0.2630 N.3   241  THR241     -0.1203
    135  CA         9.7230   32.4390    0.6730 C.3   241  THR241      0.1994
    136  C          8.7060   31.4030    0.1790 C.2   241  THR241      0.2617
    137  O          8.9130   30.1940    0.3320 O.2   241  THR241     -0.2717
    138  CB         9.2250   32.9680    2.0510 C.3   241  THR241      0.1784
    139  OG1       10.0370   34.0770    2.4690 O.3   241  THR241     -0.2211
    140  CG2        9.2750   31.8810    3.1080 C.3   241  THR241      0.0376
    141  N          7.5950   31.8850   -0.3820 N.am  242  PHE242     -0.1975
    142  CA         6.5160   31.0170   -0.8560 C.3   242  PHE242      0.1639
    143  C          6.1640   31.3440   -2.3040 C.2   242  PHE242      0.2290
    144  O          5.8460   32.4880   -2.6250 O.2   242  PHE242     -0.2864
    145  CB         5.2840   31.1380    0.0510 C.3   242  PHE242      0.0560
    146  CG         5.5440   30.7340    1.4850 C.ar  242  PHE242     -0.0200
    147  CD1        5.5140   29.3980    1.8590 C.ar  242  PHE242     -0.0042
    148  CD2        5.8170   31.6900    2.4500 C.ar  242  PHE242     -0.0042
    149  CE1        5.7550   29.0210    3.1720 C.ar  242  PHE242     -0.0003
    150  CE2        6.0620   31.3240    3.7730 C.ar  242  PHE242     -0.0003
    151  CZ         6.0330   29.9840    4.1310 C.ar  242  PHE242     -0.0000
    152  N          6.7720   39.3800    0.7990 N.3   267  HIS267     -0.1241
    153  CA         6.4270   38.4520    1.8770 C.3   267  HIS267      0.1621
    154  C          5.3230   38.8990    2.8550 C.2   267  HIS267      0.2264
    155  O          4.5800   38.0620    3.3700 O.2   267  HIS267     -0.2867
    156  CB         7.6830   38.1100    2.6800 C.3   267  HIS267      0.0745
    157  CG         7.4440   37.0930    3.7490 C.ar  267  HIS267      0.0817
    158  ND1        7.0980   35.7900    3.4690 N.ar  267  HIS267     -0.2268
    159  CD2        7.4820   37.1920    5.0990 C.ar  267  HIS267      0.1154
    160  CE1        6.9380   35.1240    4.6000 C.ar  267  HIS267      0.1986
    161  NE2        7.1700   35.9520    5.6040 N.ar  267  HIS267     -0.2212
@<TRIPOS>BOND
     1   144   143    2
     2   143   142    1
     3   142   141    1
     4   142   145    1
     5   141   136   am
     6   134   135    1
     7    48    47    2
     8   145   146    1
     9   136   137    2
    10   136   135    1
    11    45    46    1
    12    47    46    1
    13   135   138    1
    14    46    49    1
    15   152   153    1
    16   146   147   ar
    17   146   148   ar
    18    51    53   ar
    19    51    50   ar
    20    53    55   ar
    21   147   149   ar
    22   153   156    1
    23   153   154    1
    24   138   139    1
    25   138   140    1
    26    49    50    1
    27    50    52   ar
    28   148   150   ar
    29    55    54   ar
    30   156   157    1
    31   154   155    2
    32    56    57    1
    33   149   151   ar
    34    52    54   ar
    35   158   157   ar
    36   158   160   ar
    37    62    64   ar
    38    62    61   ar
    39    64    66   ar
    40   157   159   ar
    41   150   151   ar
    42    39    40    1
    43    39    38    1
    44    39    42    1
    45    57    60    1
    46    57    58    1
    47    40    41    2
    48    60    61    1
    49    75    74    1
    50    61    63   ar
    51    38    44    1
    52   160   161   ar
    53    42    43    1
    54    66    67    1
    55    66    65   ar
    56   159   161   ar
    57    90    89    2
    58    68    58   am
    59    68    69    1
    60    58    59    2
    61    93    92    1
    62    44    43    1
    63    63    65   ar
    64    73    72    1
    65    73    74    1
    66    72    69    1
    67   115   116    1
    68    89    88    1
    69    88    87    1
    70    88    91    1
    71    69    70    1
    72   119   116    1
    73   119   120    1
    74   116   117    1
    75    70    71    2
    76   121   120    1
    77    92    91    1
    78    92    94    1
    79   122   120    1
    80    18    17   ar
    81    12    13    1
    82    13    16    1
    83    13    14    1
    84    17    16    1
    85    17    19   ar
    86   117   118    2
    87   117   123   am
    88    84    86   ar
    89    84    82   ar
    90    15    14    2
    91   123   124    1
    92    86    85   ar
    93    76    77    1
    94    14    20   am
    95    82    81   ar
    96   126   125    2
    97    34    35    1
    98   103   101   ar
    99   103   105   ar
   100    35    36    1
   101    85    83   ar
   102   113   112    1
   103     4     3    2
   104   106   105    1
   105    81    83   ar
   106    81    80    1
   107    20    21    1
   108   101   100   ar
   109   114   112    1
   110   105   104   ar
   111   125   124    1
   112    80    77    1
   113   124   127    1
   114   111   112    1
   115   111   108    1
   116    77    78    1
   117     8    10   ar
   118     8     6   ar
   119   132   130   ar
   120   132   133   ar
   121    37    36    2
   122   130   128   ar
   123    10    11   ar
   124   109   110    2
   125   109   108    1
   126     3     2    1
   127    21    22    1
   128    21    24    1
   129   133   131   ar
   130   128   127    1
   131   128   129   ar
   132   108   107    1
   133    78    79    2
   134   100    99    1
   135   100   102   ar
   136    28    26   ar
   137    28    29   ar
   138   104   102   ar
   139    26    25   ar
   140     1     2    1
   141     5     6    1
   142     5     2    1
   143    22    23    2
   144   131   129   ar
   145     6     7   ar
   146    11     9   ar
   147    29    31   ar
   148    29    27   ar
   149    25    24    1
   150    25    27   ar
   151    99    96    1
   152    31    33   ar
   153    98    97    2
   154    27    30   ar
   155    33    32   ar
   156    30    32   ar
   157    96    97    1
   158    96    95    1
   159     7     9   ar
