@<TRIPOS>MOLECULE
tmp/4o09A00.pdb
 174 163 0 0 0
SMALL
GASTEIGER

@<TRIPOS>ATOM
      1  N         -0.4920  -11.7460  -16.2470 N.3    33  LEU33      -0.1245
      2  CA        -0.9630  -12.3740  -17.4940 C.3    33  LEU33       0.1561
      3  C         -2.2640  -11.7240  -17.9570 C.2    33  LEU33       0.2260
      4  O         -2.4130  -11.4810  -19.1590 O.2    33  LEU33      -0.2867
      5  CB        -1.0680  -13.9070  -17.3870 C.3    33  LEU33       0.0270
      6  CG         0.2790  -14.6550  -17.2520 C.3    33  LEU33       0.0019
      7  CD1        0.0610  -16.0870  -16.8950 C.3    33  LEU33       0.0001
      8  CD2        1.1530  -14.5430  -18.5350 C.3    33  LEU33       0.0001
      9  N         -1.3880   -8.3870  -19.5360 N.3    36  ASN36      -0.1225
     10  CA        -0.8330   -8.6040  -20.9010 C.3    36  ASN36       0.1785
     11  C         -2.0050   -8.7730  -21.8690 C.2    36  ASN36       0.2597
     12  O         -2.0130   -8.1420  -22.9290 O.2    36  ASN36      -0.2718
     13  CB         0.0370   -9.8700  -20.9630 C.3    36  ASN36       0.1169
     14  CG         1.4240   -9.7810  -20.3890 C.2    36  ASN36       0.2627
     15  OD1        2.0490   -8.7210  -20.3000 O.2    36  ASN36      -0.2716
     16  ND2        1.9480  -10.9330  -20.0310 N.am   36  ASN36      -0.0877
     17  N         -3.0040   -9.6090  -21.4720 N.am   37  SER37      -0.1952
     18  CA        -4.2250   -9.8840  -22.2310 C.3    37  SER37       0.1924
     19  C         -5.0230   -8.5780  -22.4130 C.2    37  SER37       0.2314
     20  O         -5.4390   -8.2910  -23.5330 O.2    37  SER37      -0.2863
     21  CB        -5.0560  -10.9530  -21.5330 C.3    37  SER37       0.2116
     22  OG        -4.3970  -12.2050  -21.6410 O.3    37  SER37      -0.2180
     23  N         -3.8410   -5.4680  -22.2980 N.3    39  ASP39      -0.1225
     24  CA        -3.0730   -4.6160  -23.2190 C.3    39  ASP39       0.1805
     25  C         -3.3010   -5.0440  -24.6860 C.2    39  ASP39       0.2597
     26  O         -3.4350   -4.1720  -25.5460 O.2    39  ASP39      -0.2718
     27  CB        -1.5710   -4.6010  -22.8660 C.3    39  ASP39       0.1424
     28  CG        -1.1850   -3.8830  -21.5700 C.2    39  ASP39       0.3668
     29  OD1       -2.0660   -3.2280  -20.9560 O.co2  39  ASP39      -0.2456
     30  OD2       -0.0070   -3.9840  -21.1660 O.co2  39  ASP39      -0.2456
     31  N         -3.3750   -6.3790  -24.9590 N.am   40  ALA40      -0.1979
     32  CA        -3.6200   -6.9430  -26.3090 C.3    40  ALA40       0.1597
     33  C         -5.0160   -6.5660  -26.8130 C.2    40  ALA40       0.2287
     34  O         -5.1970   -6.2990  -28.0070 O.2    40  ALA40      -0.2864
     35  CB        -3.4790   -8.4520  -26.2800 C.3    40  ALA40       0.0319
     36  N         -5.1420   -2.7630  -27.6590 N.3    43  LYS43      -0.1245
     37  CA        -4.4480   -2.6490  -28.9460 C.3    43  LYS43       0.1561
     38  C         -5.3610   -2.9070  -30.1450 C.2    43  LYS43       0.2260
     39  O         -5.4320   -2.0510  -31.0320 O.2    43  LYS43      -0.2867
     40  CB        -3.2060   -3.5670  -28.9740 C.3    43  LYS43       0.0271
     41  CG        -1.8860   -2.8390  -28.7980 C.3    43  LYS43       0.0035
     42  CD        -1.1430   -2.6520  -30.1230 C.3    43  LYS43       0.0206
     43  CE         0.0690   -3.5460  -30.2410 C.3    43  LYS43       0.1093
     44  NZ         0.8490   -3.2660  -31.4770 N.3    43  LYS43      -0.1314
     45  N         -7.4520  -14.8650  -24.5440 N.3    78  ASP78      -0.1239
     46  CA        -7.8560  -13.5030  -24.8570 C.3    78  ASP78       0.1674
     47  C         -8.1040  -13.4200  -26.3610 C.2    78  ASP78       0.2266
     48  O         -7.4940  -14.1700  -27.1270 O.2    78  ASP78      -0.2867
     49  CB        -6.8270  -12.4550  -24.3680 C.3    78  ASP78       0.1410
     50  CG        -5.5080  -12.3560  -25.1250 C.2    78  ASP78       0.3668
     51  OD1       -5.5330  -11.9840  -26.3210 O.co2  78  ASP78      -0.2456
     52  OD2       -4.4480  -12.5660  -24.5000 O.co2  78  ASP78      -0.2456
     53  N         -5.0560   -8.5620  -29.8860 N.3    81  ILE81      -0.1231
     54  CA        -4.3380   -8.3670  -31.1560 C.3    81  ILE81       0.1692
     55  C         -3.5490   -9.6360  -31.6350 C.2    81  ILE81       0.2593
     56  O         -3.3710   -9.8200  -32.8420 O.2    81  ILE81      -0.2718
     57  CB        -3.4320   -7.0970  -31.0540 C.3    81  ILE81       0.0266
     58  CG1       -2.9980   -6.6140  -32.4650 C.3    81  ILE81       0.0019
     59  CG2       -2.2250   -7.2590  -30.0700 C.3    81  ILE81       0.0020
     60  CD1       -2.6990   -5.1310  -32.6040 C.3    81  ILE81       0.0001
     61  N         -3.0880  -10.4610  -30.6950 N.am   82  GLY82      -0.1942
     62  CA        -2.2850  -11.6440  -30.9960 C.3    82  GLY82       0.2014
     63  C         -0.8510  -11.2170  -31.2620 C.2    82  GLY82       0.2638
     64  O         -0.5210  -10.0260  -31.1890 O.2    82  GLY82      -0.2714
     65  N          0.0140  -12.1860  -31.5640 N.am   83  MET83      -0.1976
     66  CA         1.4230  -11.9250  -31.8340 C.3    83  MET83       0.1605
     67  C          1.8400  -12.5860  -33.1170 C.2    83  MET83       0.2287
     68  O          1.4340  -13.7210  -33.3920 O.2    83  MET83      -0.2864
     69  CB         2.3100  -12.4170  -30.6670 C.3    83  MET83       0.0413
     70  CG         2.2020  -11.5560  -29.4060 C.3    83  MET83       0.0598
     71  SD         2.9000  -12.3480  -27.9350 S.3    83  MET83      -0.1393
     72  CE         1.6200  -13.4630  -27.5130 C.3    83  MET83       0.0692
     73  N          7.0790  -12.9160  -31.3520 N.3    88  LEU88      -0.1245
     74  CA         7.4740  -14.0840  -30.5660 C.3    88  LEU88       0.1561
     75  C          8.9740  -14.3320  -30.4970 C.2    88  LEU88       0.2260
     76  O          9.4540  -14.7620  -29.4470 O.2    88  LEU88      -0.2867
     77  CB         6.7960  -15.3610  -31.0880 C.3    88  LEU88       0.0270
     78  CG         5.2840  -15.4970  -30.9730 C.3    88  LEU88       0.0019
     79  CD1        4.8350  -16.6750  -31.7670 C.3    88  LEU88       0.0001
     80  CD2        4.8150  -15.6420  -29.5010 C.3    88  LEU88       0.0001
     81  N          9.2620   -8.5420  -29.0640 N.3    92  LEU92      -0.1231
     82  CA         8.9960   -8.5170  -27.6220 C.3    92  LEU92       0.1693
     83  C         10.2430   -8.8120  -26.7810 C.2    92  LEU92       0.2592
     84  O         10.3810   -8.2020  -25.7280 O.2    92  LEU92      -0.2718
     85  CB         7.8100   -9.4020  -27.2320 C.3    92  LEU92       0.0284
     86  CG         6.4490   -8.8800  -27.7370 C.3    92  LEU92       0.0019
     87  CD1        5.4620   -9.9730  -27.8320 C.3    92  LEU92       0.0001
     88  CD2        5.8980   -7.7330  -26.8780 C.3    92  LEU92       0.0001
     89  N         11.1340   -9.6740  -27.2860 N.am   93  GLY93      -0.1957
     90  CA        12.4060  -10.0480  -26.6670 C.3    93  GLY93       0.1869
     91  C         13.3640   -8.8690  -26.6000 C.2    93  GLY93       0.2309
     92  O         14.0550   -8.7000  -25.5880 O.2    93  GLY93      -0.2863
     93  N         12.4300   -5.5560  -26.6290 N.3    95  ILE95      -0.1231
     94  CA        11.7990   -4.6390  -25.6600 C.3    95  ILE95       0.1692
     95  C         12.0800   -5.1550  -24.2290 C.2    95  ILE95       0.2591
     96  O         12.4520   -4.3580  -23.3610 O.2    95  ILE95      -0.2718
     97  CB        10.2620   -4.4490  -25.9630 C.3    95  ILE95       0.0266
     98  CG1        9.9920   -3.8030  -27.3700 C.3    95  ILE95       0.0019
     99  CG2        9.4890   -3.6930  -24.8480 C.3    95  ILE95       0.0020
    100  CD1       10.5310   -2.3720  -27.7030 C.3    95  ILE95       0.0001
    101  N         11.9160   -6.4830  -24.0110 N.am   96  ALA96      -0.1980
    102  CA        12.1310   -7.1700  -22.7350 C.3    96  ALA96       0.1597
    103  C         13.5800   -7.1060  -22.2200 C.2    96  ALA96       0.2287
    104  O         13.7620   -7.1720  -21.0070 O.2    96  ALA96      -0.2864
    105  CB        11.6530   -8.6100  -22.8140 C.3    96  ALA96       0.0319
    106  N          7.6400   -4.0500  -17.7070 N.3   120  GLY120     -0.1210
    107  CA         7.0120   -4.6600  -18.8800 C.3   120  GLY120      0.1956
    108  C          7.4030   -6.0920  -19.1860 C.2   120  GLY120      0.2611
    109  O          7.2470   -6.5390  -20.3270 O.2   120  GLY120     -0.2717
    110  N          7.8930   -6.8240  -18.1670 N.am  121  VAL121     -0.1979
    111  CA         8.3370   -8.2230  -18.2890 C.3   121  VAL121      0.1595
    112  C          7.4870   -9.1680  -17.4040 C.2   121  VAL121      0.2287
    113  O          7.9280  -10.2800  -17.0830 O.2   121  VAL121     -0.2864
    114  CB         9.8740   -8.4000  -18.0730 C.3   121  VAL121      0.0276
    115  CG1       10.6560   -7.7750  -19.2220 C.3   121  VAL121      0.0022
    116  CG2       10.3490   -7.8570  -16.7150 C.3   121  VAL121      0.0022
    117  N          5.0220  -11.0700  -18.0610 N.3   123  PHE123     -0.1227
    118  CA         4.7670  -12.3940  -18.6630 C.3   123  PHE123      0.1736
    119  C          5.5810  -13.5010  -17.9740 C.2   123  PHE123      0.2595
    120  O          5.0350  -14.5710  -17.7130 O.2   123  PHE123     -0.2718
    121  CB         5.0580  -12.4180  -20.1960 C.3   123  PHE123      0.0547
    122  CG         5.0380  -13.8210  -20.7890 C.ar  123  PHE123     -0.0202
    123  CD1        3.8270  -14.4640  -21.0690 C.ar  123  PHE123     -0.0042
    124  CD2        6.2310  -14.5130  -21.0350 C.ar  123  PHE123     -0.0042
    125  CE1        3.8100  -15.7730  -21.5910 C.ar  123  PHE123     -0.0003
    126  CE2        6.2130  -15.8250  -21.5460 C.ar  123  PHE123     -0.0003
    127  CZ         5.0050  -16.4410  -21.8270 C.ar  123  PHE123     -0.0000
    128  N          6.8790  -13.2290  -17.6930 N.am  124  TYR124     -0.1976
    129  CA         7.8220  -14.1750  -17.0900 C.3   124  TYR124      0.1639
    130  C          7.4810  -14.5560  -15.6420 C.2   124  TYR124      0.2290
    131  O          8.0170  -15.5610  -15.1720 O.2   124  TYR124     -0.2864
    132  CB         9.2680  -13.6800  -17.2460 C.3   124  TYR124      0.0560
    133  CG         9.6630  -13.7580  -18.7060 C.ar  124  TYR124     -0.0198
    134  CD1        9.9400  -14.9870  -19.3090 C.ar  124  TYR124     -0.0009
    135  CD2        9.6840  -12.6150  -19.5080 C.ar  124  TYR124     -0.0009
    136  CE1       10.2600  -15.0740  -20.6650 C.ar  124  TYR124      0.0417
    137  CE2       10.0080  -12.6900  -20.8680 C.ar  124  TYR124      0.0417
    138  CZ        10.2750  -13.9270  -21.4430 C.ar  124  TYR124      0.1957
    139  OH        10.6290  -14.0310  -22.7650 O.3   124  TYR124     -0.2866
    140  N          2.3340  -20.8820  -25.4850 N.3   135  VAL135     -0.1245
    141  CA         1.6420  -19.6890  -25.9680 C.3   135  VAL135      0.1561
    142  C          1.1730  -19.9760  -27.3950 C.2   135  VAL135      0.2260
    143  O          2.0100  -20.1410  -28.2880 O.2   135  VAL135     -0.2867
    144  CB         2.5120  -18.3900  -25.8330 C.3   135  VAL135      0.0252
    145  CG1        1.8190  -17.1680  -26.4510 C.3   135  VAL135      0.0019
    146  CG2        2.8740  -18.1070  -24.3770 C.3   135  VAL135      0.0019
    147  N          4.4550  -21.1040  -29.2840 N.3   147  TRP147     -0.1241
    148  CA         5.6990  -20.7600  -28.5880 C.3   147  TRP147      0.1605
    149  C          5.6820  -21.6390  -27.3410 C.2   147  TRP147      0.2264
    150  O          4.6240  -21.8040  -26.7270 O.2   147  TRP147     -0.2867
    151  CB         5.7030  -19.2730  -28.1890 C.3   147  TRP147      0.0550
    152  CG         6.8940  -18.7770  -27.4070 C.ar  147  TRP147      0.0003
    153  CD1        7.9510  -18.0710  -27.8990 C.ar  147  TRP147      0.0946
    154  CD2        7.0950  -18.8540  -25.9800 C.ar  147  TRP147      0.0152
    155  NE1        8.8030  -17.7120  -26.8770 N.ar  147  TRP147     -0.2442
    156  CE2        8.3110  -18.1880  -25.6930 C.ar  147  TRP147      0.0810
    157  CE3        6.3560  -19.4060  -24.9110 C.ar  147  TRP147      0.0012
    158  CZ2        8.8140  -18.0680  -24.3860 C.ar  147  TRP147      0.0191
    159  CZ3        6.8610  -19.2960  -23.6140 C.ar  147  TRP147      0.0001
    160  CH2        8.0700  -18.6270  -23.3630 C.ar  147  TRP147      0.0015
    161  N         -4.6740  -14.7750  -28.1620 N.3   169  THR169     -0.1218
    162  CA        -3.6370  -15.5590  -27.4930 C.3   169  THR169      0.1862
    163  C         -4.2140  -16.4770  -26.4210 C.2   169  THR169      0.2287
    164  O         -5.1280  -16.0860  -25.6960 O.2   169  THR169     -0.2866
    165  CB        -2.5630  -14.5800  -26.9320 C.3   169  THR169      0.1770
    166  OG1       -2.0450  -13.8050  -28.0090 O.3   169  THR169     -0.2211
    167  CG2       -1.3960  -15.2760  -26.2270 C.3   169  THR169      0.0375
    168  N         -2.5740  -18.7570  -23.3010 N.3   171  VAL171     -0.1245
    169  CA        -1.3880  -18.9780  -22.4630 C.3   171  VAL171      0.1561
    170  C         -1.7510  -20.2070  -21.6250 C.2   171  VAL171      0.2260
    171  O         -2.6530  -20.1290  -20.7940 O.2   171  VAL171     -0.2867
    172  CB        -0.9480  -17.7360  -21.6190 C.3   171  VAL171      0.0252
    173  CG1        0.2320  -18.0690  -20.7000 C.3   171  VAL171      0.0019
    174  CG2       -0.5900  -16.5610  -22.5190 C.3   171  VAL171      0.0019
@<TRIPOS>BOND
     1    68    67    2
     2    67    66    1
     3    56    55    2
     4    60    58    1
     5    58    57    1
     6    66    65    1
     7    66    69    1
     8    79    78    1
     9    55    54    1
    10    55    61   am
    11    65    63   am
    12    44    43    1
    13    73    74    1
    14    63    64    2
    15    63    62    1
    16    54    57    1
    17    54    53    1
    18    77    78    1
    19    77    74    1
    20    57    59    1
    21    39    38    2
    22    62    61    1
    23    78    80    1
    24    69    70    1
    25    74    75    1
    26    75    76    2
    27    43    42    1
    28    38    37    1
    29    42    41    1
    30    70    71    1
    31   147   148    1
    32    81    82    1
    33    40    37    1
    34    40    41    1
    35    37    36    1
    36   148   151    1
    37   148   149    1
    38   143   142    2
    39   151   152    1
    40   161   162    1
    41   166   165    1
    42    34    33    2
    43    71    72    1
    44   153   152   ar
    45   153   155   ar
    46    87    86    1
    47    86    85    1
    48    86    88    1
    49   100    98    1
    50    82    85    1
    51    82    83    1
    52   162   165    1
    53   162   163    1
    54   152   154   ar
    55   142   141    1
    56    98    97    1
    57   149   150    2
    58    89    83   am
    59    89    90    1
    60    48    47    2
    61   165   167    1
    62   155   156   ar
    63    33    32    1
    64    83    84    2
    65    90    91    1
    66    93    94    1
    67    91    92    2
    68   145   144    1
    69   163   164    2
    70    47    46    1
    71    51    50   ar
    72    32    35    1
    73    32    31    1
    74   154   156   ar
    75   154   157   ar
    76   141   144    1
    77   141   140    1
    78    97    94    1
    79    97    99    1
    80   144   146    1
    81   156   158   ar
    82    94    95    1
    83    26    25    2
    84    50    52   ar
    85    50    49    1
    86    31    25   am
    87   157   159   ar
    88    46    45    1
    89    46    49    1
    90    25    24    1
    91   158   160   ar
    92    95   101   am
    93    95    96    2
    94   101   102    1
    95   159   160   ar
    96    20    19    2
    97   168   169    1
    98    24    27    1
    99    24    23    1
   100    12    11    2
   101    27    28    1
   102   105   102    1
   103   139   138    1
   104   102   103    1
   105   174   172    1
   106   169   170    1
   107   169   172    1
   108    19    18    1
   109    18    21    1
   110    18    17    1
   111   103   104    2
   112    11    17   am
   113    11    10    1
   114   127   125   ar
   115   127   126   ar
   116    22    21    1
   117   170   171    2
   118   172   173    1
   119   125   123   ar
   120    28    30   ar
   121    28    29   ar
   122   126   124   ar
   123   138   137   ar
   124   138   136   ar
   125   123   122   ar
   126   124   122   ar
   127    13    10    1
   128    13    14    1
   129    10     9    1
   130   137   135   ar
   131   122   121    1
   132   136   134   ar
   133    14    15    2
   134    14    16   am
   135   109   108    2
   136   121   118    1
   137   135   133   ar
   138   134   133   ar
   139   115   114    1
   140   108   107    1
   141   108   110   am
   142     4     3    2
   143   107   106    1
   144   133   132    1
   145   118   117    1
   146   118   119    1
   147     8     6    1
   148   111   110    1
   149   111   114    1
   150   111   112    1
   151   114   116    1
   152   119   120    2
   153   119   128   am
   154     3     2    1
   155   128   129    1
   156     2     5    1
   157     2     1    1
   158   112   113    2
   159     5     6    1
   160     6     7    1
   161   132   129    1
   162   129   130    1
   163   130   131    2
