@<TRIPOS>MOLECULE
tmp/4o0bA00.pdb
 182 171 0 0 0
SMALL
GASTEIGER

@<TRIPOS>ATOM
      1  N         -0.4180  -11.7970  -16.3030 N.3    33  LEU33      -0.1245
      2  CA        -0.8610  -12.4410  -17.5420 C.3    33  LEU33       0.1561
      3  C         -2.1790  -11.8410  -18.0150 C.2    33  LEU33       0.2260
      4  O         -2.3290  -11.6320  -19.2220 O.2    33  LEU33      -0.2867
      5  CB        -0.8860  -13.9760  -17.4350 C.3    33  LEU33       0.0270
      6  CG         0.4790  -14.6710  -17.2160 C.3    33  LEU33       0.0019
      7  CD1        0.2910  -16.1120  -16.8490 C.3    33  LEU33       0.0001
      8  CD2        1.3940  -14.5770  -18.4550 C.3    33  LEU33       0.0001
      9  N         -1.2940   -8.5120  -19.6580 N.3    36  ASN36      -0.1225
     10  CA        -0.7230   -8.7190  -21.0200 C.3    36  ASN36       0.1785
     11  C         -1.8940   -8.8910  -21.9870 C.2    36  ASN36       0.2597
     12  O         -1.8830   -8.2710  -23.0540 O.2    36  ASN36      -0.2718
     13  CB         0.1670   -9.9730  -21.1050 C.3    36  ASN36       0.1169
     14  CG         1.5170   -9.9460  -20.4310 C.2    36  ASN36       0.2627
     15  OD1        1.9850  -10.9850  -19.9660 O.2    36  ASN36      -0.2716
     16  ND2        2.2060   -8.8070  -20.4080 N.am   36  ASN36      -0.0877
     17  N         -2.9070   -9.7250  -21.5840 N.am   37  SER37      -0.1952
     18  CA        -4.1350  -10.0010  -22.3400 C.3    37  SER37       0.1924
     19  C         -4.9360   -8.7080  -22.5240 C.2    37  SER37       0.2314
     20  O         -5.3720   -8.4330  -23.6420 O.2    37  SER37      -0.2863
     21  CB        -4.9800  -11.0590  -21.6380 C.3    37  SER37       0.2116
     22  OG        -4.4190  -12.3480  -21.8220 O.3    37  SER37      -0.2180
     23  N         -3.7800   -5.5870  -22.4650 N.3    39  ASP39      -0.1225
     24  CA        -3.0060   -4.7400  -23.3890 C.3    39  ASP39       0.1805
     25  C         -3.2430   -5.1470  -24.8460 C.2    39  ASP39       0.2597
     26  O         -3.3990   -4.2730  -25.7010 O.2    39  ASP39      -0.2718
     27  CB        -1.5030   -4.7550  -23.0510 C.3    39  ASP39       0.1424
     28  CG        -1.0830   -3.9910  -21.7970 C.2    39  ASP39       0.3668
     29  OD1       -1.9340   -3.2900  -21.2060 O.co2  39  ASP39      -0.2456
     30  OD2        0.0950   -4.0880  -21.4180 O.co2  39  ASP39      -0.2456
     31  N         -3.2890   -6.4710  -25.1170 N.am   40  ALA40      -0.1979
     32  CA        -3.5280   -7.0370  -26.4590 C.3    40  ALA40       0.1597
     33  C         -4.9410   -6.6790  -26.9540 C.2    40  ALA40       0.2287
     34  O         -5.1250   -6.3960  -28.1440 O.2    40  ALA40      -0.2864
     35  CB        -3.3640   -8.5360  -26.4180 C.3    40  ALA40       0.0319
     36  N         -5.0880   -2.9050  -27.8080 N.3    43  LYS43      -0.1245
     37  CA        -4.4130   -2.7490  -29.0970 C.3    43  LYS43       0.1561
     38  C         -5.3150   -3.0350  -30.2910 C.2    43  LYS43       0.2260
     39  O         -5.3740   -2.1960  -31.1930 O.2    43  LYS43      -0.2867
     40  CB        -3.1330   -3.5940  -29.1350 C.3    43  LYS43       0.0271
     41  CG        -1.9860   -2.8970  -29.8240 C.3    43  LYS43       0.0035
     42  CD        -0.6720   -3.5920  -29.5280 C.3    43  LYS43       0.0206
     43  CE         0.5130   -2.8950  -30.1630 C.3    43  LYS43       0.1093
     44  NZ         0.5500   -2.9920  -31.6530 N.3    43  LYS43      -0.1314
     45  N         -7.3540  -15.0860  -24.6470 N.3    78  ASP78      -0.1239
     46  CA        -7.7810  -13.7300  -24.9600 C.3    78  ASP78       0.1674
     47  C         -8.0300  -13.6260  -26.4610 C.2    78  ASP78       0.2266
     48  O         -7.4420  -14.3820  -27.2430 O.2    78  ASP78      -0.2867
     49  CB        -6.8110  -12.6530  -24.4290 C.3    78  ASP78       0.1410
     50  CG        -5.4850  -12.5320  -25.1570 C.2    78  ASP78       0.3668
     51  OD1       -5.4920  -12.1160  -26.3420 O.co2  78  ASP78      -0.2456
     52  OD2       -4.4450  -12.8000  -24.5340 O.co2  78  ASP78      -0.2456
     53  N         -5.0410   -8.6910  -29.9830 N.3    81  ILE81      -0.1231
     54  CA        -4.3230   -8.5000  -31.2520 C.3    81  ILE81       0.1692
     55  C         -3.4910   -9.7500  -31.6840 C.2    81  ILE81       0.2593
     56  O         -3.3120   -9.9590  -32.8800 O.2    81  ILE81      -0.2718
     57  CB        -3.4710   -7.1900  -31.1950 C.3    81  ILE81       0.0266
     58  CG1       -3.0330   -6.7390  -32.6320 C.3    81  ILE81       0.0019
     59  CG2       -2.2710   -7.2630  -30.1900 C.3    81  ILE81       0.0020
     60  CD1       -2.7100   -5.2570  -32.7990 C.3    81  ILE81       0.0001
     61  N         -3.0090  -10.5380  -30.7210 N.am   82  GLY82      -0.1942
     62  CA        -2.1770  -11.7050  -30.9910 C.3    82  GLY82       0.2014
     63  C         -0.7470  -11.2750  -31.2690 C.2    82  GLY82       0.2638
     64  O         -0.4280  -10.0800  -31.2310 O.2    82  GLY82      -0.2714
     65  N          0.1260  -12.2440  -31.5520 N.am   83  MET83      -0.1976
     66  CA         1.5340  -11.9700  -31.8240 C.3    83  MET83       0.1605
     67  C          1.9970  -12.6210  -33.1080 C.2    83  MET83       0.2287
     68  O          1.6710  -13.7890  -33.3710 O.2    83  MET83      -0.2864
     69  CB         2.4200  -12.4040  -30.6270 C.3    83  MET83       0.0413
     70  CG         2.2380  -11.5380  -29.3700 C.3    83  MET83       0.0598
     71  SD         2.9010  -12.2520  -27.8390 S.3    83  MET83      -0.1393
     72  CE         1.6440  -13.4380  -27.4540 C.3    83  MET83       0.0692
     73  N          7.1800  -10.8450  -33.4490 N.3    87  ASP87      -0.1225
     74  CA         6.8360  -10.4250  -32.0780 C.3    87  ASP87       0.1805
     75  C          7.3910  -11.4470  -31.0850 C.2    87  ASP87       0.2597
     76  O          8.0720  -11.0550  -30.1360 O.2    87  ASP87      -0.2718
     77  CB         5.3090  -10.2830  -31.8810 C.3    87  ASP87       0.1424
     78  CG         4.6500   -9.0830  -32.5270 C.2    87  ASP87       0.3668
     79  OD1        5.3510   -8.0770  -32.7670 O.co2  87  ASP87      -0.2456
     80  OD2        3.4350   -9.1480  -32.7870 O.co2  87  ASP87      -0.2456
     81  N          7.1310  -12.7550  -31.3370 N.am   88  LEU88      -0.1979
     82  CA         7.5730  -13.8830  -30.5030 C.3    88  LEU88       0.1596
     83  C          9.0850  -14.0970  -30.4350 C.2    88  LEU88       0.2287
     84  O          9.5790  -14.4880  -29.3740 O.2    88  LEU88      -0.2864
     85  CB         6.9150  -15.2030  -30.9470 C.3    88  LEU88       0.0297
     86  CG         5.3990  -15.3580  -30.8690 C.3    88  LEU88       0.0022
     87  CD1        4.9850  -16.5620  -31.6550 C.3    88  LEU88       0.0001
     88  CD2        4.8960  -15.4720  -29.4140 C.3    88  LEU88       0.0001
     89  N          9.2110   -8.3090  -29.1040 N.3    92  LEU92      -0.1231
     90  CA         8.9340   -8.2540  -27.6620 C.3    92  LEU92       0.1693
     91  C         10.1640   -8.5620  -26.8000 C.2    92  LEU92       0.2592
     92  O         10.2500   -8.0210  -25.7030 O.2    92  LEU92      -0.2718
     93  CB         7.7230   -9.1100  -27.2560 C.3    92  LEU92       0.0284
     94  CG         6.3660   -8.6630  -27.8610 C.3    92  LEU92       0.0019
     95  CD1        5.3750   -9.7590  -27.8090 C.3    92  LEU92       0.0001
     96  CD2        5.7960   -7.4110  -27.1860 C.3    92  LEU92       0.0001
     97  N         11.0950   -9.3640  -27.3280 N.am   93  GLY93      -0.1957
     98  CA        12.3570   -9.7480  -26.6980 C.3    93  GLY93       0.1869
     99  C         13.3050   -8.5680  -26.5900 C.2    93  GLY93       0.2309
    100  O         13.9850   -8.4200  -25.5690 O.2    93  GLY93      -0.2863
    101  N         12.3400   -5.3500  -26.4980 N.3    95  ILE95      -0.1231
    102  CA        11.6910   -4.4870  -25.4970 C.3    95  ILE95       0.1692
    103  C         11.9340   -5.0880  -24.0920 C.2    95  ILE95       0.2591
    104  O         12.2410   -4.3390  -23.1590 O.2    95  ILE95      -0.2718
    105  CB        10.1740   -4.2320  -25.8390 C.3    95  ILE95       0.0266
    106  CG1        9.9610   -3.6370  -27.2840 C.3    95  ILE95       0.0019
    107  CG2        9.4320   -3.3860  -24.7790 C.3    95  ILE95       0.0020
    108  CD1       10.6860   -2.2640  -27.7000 C.3    95  ILE95       0.0001
    109  N         11.8180   -6.4340  -23.9650 N.am   96  ALA96      -0.1980
    110  CA        12.0280   -7.1640  -22.7120 C.3    96  ALA96       0.1597
    111  C         13.4790   -7.0950  -22.2090 C.2    96  ALA96       0.2287
    112  O         13.6630   -7.1050  -20.9960 O.2    96  ALA96      -0.2864
    113  CB        11.5710   -8.6060  -22.8390 C.3    96  ALA96       0.0319
    114  N          7.6070   -3.8800  -17.7800 N.3   120  GLY120     -0.1210
    115  CA         6.9770   -4.4930  -18.9490 C.3   120  GLY120      0.1956
    116  C          7.3520   -5.9370  -19.2170 C.2   120  GLY120      0.2611
    117  O          7.1670   -6.4150  -20.3410 O.2   120  GLY120     -0.2717
    118  N          7.8550   -6.6480  -18.1820 N.am  121  VAL121     -0.1979
    119  CA         8.3000   -8.0530  -18.2600 C.3   121  VAL121      0.1595
    120  C          7.4560   -9.0000  -17.3600 C.2   121  VAL121      0.2287
    121  O          7.9130  -10.1120  -17.0340 O.2   121  VAL121     -0.2864
    122  CB         9.8400   -8.2130  -18.0160 C.3   121  VAL121      0.0276
    123  CG1       10.6410   -7.6190  -19.1710 C.3   121  VAL121      0.0022
    124  CG2       10.2900   -7.6290  -16.6700 C.3   121  VAL121      0.0022
    125  N          5.0280  -10.9400  -18.0280 N.3   123  PHE123     -0.1227
    126  CA         4.7930  -12.2600  -18.6390 C.3   123  PHE123      0.1736
    127  C          5.6310  -13.3600  -17.9500 C.2   123  PHE123      0.2595
    128  O          5.1040  -14.4400  -17.6900 O.2   123  PHE123     -0.2718
    129  CB         5.0890  -12.2610  -20.1690 C.3   123  PHE123      0.0547
    130  CG         5.1160  -13.6550  -20.7740 C.ar  123  PHE123     -0.0202
    131  CD1        3.9290  -14.3150  -21.1030 C.ar  123  PHE123     -0.0042
    132  CD2        6.3280  -14.3250  -20.9760 C.ar  123  PHE123     -0.0042
    133  CE1        3.9520  -15.6230  -21.6310 C.ar  123  PHE123     -0.0003
    134  CE2        6.3510  -15.6360  -21.4920 C.ar  123  PHE123     -0.0003
    135  CZ         5.1640  -16.2700  -21.8260 C.ar  123  PHE123     -0.0000
    136  N          6.9250  -13.0630  -17.6640 N.am  124  TYR124     -0.1976
    137  CA         7.8840  -13.9970  -17.0670 C.3   124  TYR124      0.1639
    138  C          7.5480  -14.4110  -15.6210 C.2   124  TYR124      0.2290
    139  O          8.1080  -15.4160  -15.1700 O.2   124  TYR124     -0.2864
    140  CB         9.3160  -13.4660  -17.2080 C.3   124  TYR124      0.0560
    141  CG         9.7180  -13.4820  -18.6690 C.ar  124  TYR124     -0.0198
    142  CD1       10.0290  -14.6800  -19.3150 C.ar  124  TYR124     -0.0009
    143  CD2        9.7200  -12.3080  -19.4270 C.ar  124  TYR124     -0.0009
    144  CE1       10.3540  -14.7100  -20.6720 C.ar  124  TYR124      0.0417
    145  CE2       10.0530  -12.3250  -20.7860 C.ar  124  TYR124      0.0417
    146  CZ        10.3570  -13.5320  -21.4040 C.ar  124  TYR124      0.1957
    147  OH        10.7100  -13.5810  -22.7270 O.3   124  TYR124     -0.2866
    148  N          2.5620  -20.8200  -25.4750 N.3   135  VAL135     -0.1245
    149  CA         1.8550  -19.6470  -25.9810 C.3   135  VAL135      0.1561
    150  C          1.3940  -19.9610  -27.4150 C.2   135  VAL135      0.2260
    151  O          2.2380  -20.0830  -28.3030 O.2   135  VAL135     -0.2867
    152  CB         2.6950  -18.3270  -25.8570 C.3   135  VAL135      0.0252
    153  CG1        1.9570  -17.1270  -26.4530 C.3   135  VAL135      0.0019
    154  CG2        3.0870  -18.0350  -24.4100 C.3   135  VAL135      0.0019
    155  N          4.7080  -20.9660  -29.2760 N.3   147  TRP147     -0.1241
    156  CA         5.9280  -20.5760  -28.5740 C.3   147  TRP147      0.1605
    157  C          5.9210  -21.4500  -27.3340 C.2   147  TRP147      0.2264
    158  O          4.8640  -21.6230  -26.7210 O.2   147  TRP147     -0.2867
    159  CB         5.8810  -19.0860  -28.1840 C.3   147  TRP147      0.0550
    160  CG         7.0630  -18.5600  -27.4110 C.ar  147  TRP147      0.0003
    161  CD1        8.1110  -17.8470  -27.9130 C.ar  147  TRP147      0.0946
    162  CD2        7.2800  -18.6430  -25.9870 C.ar  147  TRP147      0.0152
    163  NE1        8.9700  -17.4860  -26.8980 N.ar  147  TRP147     -0.2442
    164  CE2        8.4970  -17.9760  -25.7100 C.ar  147  TRP147      0.0810
    165  CE3        6.5650  -19.2240  -24.9140 C.ar  147  TRP147      0.0012
    166  CZ2        9.0140  -17.8600  -24.4070 C.ar  147  TRP147      0.0191
    167  CZ3        7.0830  -19.1180  -23.6220 C.ar  147  TRP147      0.0001
    168  CH2        8.2900  -18.4390  -23.3790 C.ar  147  TRP147      0.0015
    169  N         -4.6050  -14.9490  -28.2400 N.3   169  THR169     -0.1218
    170  CA        -3.5780  -15.7310  -27.5570 C.3   169  THR169      0.1862
    171  C         -4.1550  -16.6640  -26.4940 C.2   169  THR169      0.2287
    172  O         -5.1060  -16.2970  -25.8010 O.2   169  THR169     -0.2866
    173  CB        -2.5100  -14.7550  -26.9930 C.3   169  THR169      0.1770
    174  OG1       -2.0050  -13.9530  -28.0600 O.3   169  THR169     -0.2211
    175  CG2       -1.3260  -15.4530  -26.3000 C.3   169  THR169      0.0375
    176  N         -2.4520  -18.8950  -23.3520 N.3   171  VAL171     -0.1245
    177  CA        -1.2640  -19.0720  -22.5080 C.3   171  VAL171      0.1561
    178  C         -1.5870  -20.3180  -21.6850 C.2   171  VAL171      0.2260
    179  O         -2.5150  -20.2840  -20.8880 O.2   171  VAL171     -0.2867
    180  CB        -0.8770  -17.8340  -21.6350 C.3   171  VAL171      0.0252
    181  CG1        0.3150  -18.1490  -20.7260 C.3   171  VAL171      0.0019
    182  CG2       -0.5660  -16.6210  -22.5030 C.3   171  VAL171      0.0019
@<TRIPOS>BOND
     1    73    74    1
     2    68    67    2
     3    67    66    1
     4    56    55    2
     5    60    58    1
     6    80    78   ar
     7    79    78   ar
     8    58    57    1
     9    78    77    1
    10    74    77    1
    11    74    75    1
    12    66    65    1
    13    66    69    1
    14    55    54    1
    15    55    61   am
    16    87    86    1
    17    44    43    1
    18    65    63   am
    19    81    75   am
    20    81    82    1
    21    63    64    2
    22    63    62    1
    23    54    57    1
    24    54    53    1
    25    57    59    1
    26    39    38    2
    27    75    76    2
    28    62    61    1
    29    85    86    1
    30    85    82    1
    31    86    88    1
    32    69    70    1
    33    82    83    1
    34    83    84    2
    35    38    37    1
    36    43    42    1
    37    41    42    1
    38    41    40    1
    39    70    71    1
    40   155   156    1
    41    40    37    1
    42    89    90    1
    43    37    36    1
    44   156   159    1
    45   156   157    1
    46   151   150    2
    47   169   170    1
    48   159   160    1
    49    34    33    2
    50   174   173    1
    51   161   160   ar
    52   161   163   ar
    53    94    95    1
    54    94    93    1
    55    94    96    1
    56    71    72    1
    57   108   106    1
    58    90    93    1
    59    90    91    1
    60   170   173    1
    61   170   171    1
    62   150   149    1
    63   160   162   ar
    64   157   158    2
    65    97    91   am
    66    97    98    1
    67   106   105    1
    68    48    47    2
    69   173   175    1
    70    33    32    1
    71   163   164   ar
    72    91    92    2
    73    98    99    1
    74    99   100    2
    75   101   102    1
    76   171   172    2
    77    47    46    1
    78    32    35    1
    79    32    31    1
    80   153   152    1
    81    51    50   ar
    82   162   164   ar
    83   162   165   ar
    84   149   152    1
    85   149   148    1
    86   152   154    1
    87   105   102    1
    88   105   107    1
    89   164   166   ar
    90    26    25    2
    91   102   103    1
    92    50    52   ar
    93    50    49    1
    94    31    25   am
    95    46    45    1
    96    46    49    1
    97   165   167   ar
    98    25    24    1
    99   166   168   ar
   100   103   109   am
   101   103   104    2
   102   109   110    1
   103    20    19    2
   104   167   168   ar
   105    24    27    1
   106    24    23    1
   107   176   177    1
   108    12    11    2
   109    27    28    1
   110   113   110    1
   111   147   146    1
   112   110   111    1
   113    19    18    1
   114   177   178    1
   115   177   180    1
   116   182   180    1
   117    18    21    1
   118    18    17    1
   119   111   112    2
   120    11    17   am
   121    11    10    1
   122   135   133   ar
   123   135   134   ar
   124    22    21    1
   125    28    30   ar
   126    28    29   ar
   127   178   179    2
   128   180   181    1
   129   133   131   ar
   130   134   132   ar
   131   146   145   ar
   132   146   144   ar
   133    13    10    1
   134    13    14    1
   135   131   130   ar
   136    10     9    1
   137   132   130   ar
   138   145   143   ar
   139   130   129    1
   140   144   142   ar
   141    14    16   am
   142    14    15    2
   143   117   116    2
   144   129   126    1
   145   143   141   ar
   146   142   141   ar
   147     4     3    2
   148   116   115    1
   149   116   118   am
   150   123   122    1
   151   115   114    1
   152   141   140    1
   153   126   125    1
   154   126   127    1
   155     8     6    1
   156   119   118    1
   157   119   122    1
   158   119   120    1
   159   122   124    1
   160     3     2    1
   161   127   128    2
   162   127   136   am
   163   136   137    1
   164     2     5    1
   165     2     1    1
   166     5     6    1
   167   120   121    2
   168     6     7    1
   169   140   137    1
   170   137   138    1
   171   138   139    2
