@<TRIPOS>MOLECULE
tmp/4o0hB00.pdb
 102 91 0 0 0
SMALL
GASTEIGER

@<TRIPOS>ATOM
      1  N         -0.3810   12.3890  -22.9900 N.3    11  GLY11      -0.1210
      2  CA        -0.4350   11.0500  -23.6130 C.3    11  GLY11       0.1956
      3  C          0.6000   10.7650  -24.6840 C.2    11  GLY11       0.2612
      4  O          0.7740   11.5610  -25.6100 O.2    11  GLY11      -0.2717
      5  N          1.2800    9.6210  -24.5550 N.am   12  GLY12      -0.1956
      6  CA         2.2750    9.1740  -25.5280 C.3    12  GLY12       0.1869
      7  C          1.8040    8.0090  -26.3950 C.2    12  GLY12       0.2309
      8  O          1.8910    6.8480  -25.9780 O.2    12  GLY12      -0.2863
      9  N         -6.9610   13.0790  -23.1140 N.3    63  ASN63      -0.1240
     10  CA        -7.5570   11.8950  -22.5270 C.3    63  ASN63       0.1653
     11  C         -7.3830   11.7660  -20.9990 C.2    63  ASN63       0.2266
     12  O         -6.7690   10.8230  -20.4830 O.2    63  ASN63      -0.2867
     13  CB        -7.0090   10.6640  -23.2600 C.3    63  ASN63       0.1155
     14  CG        -7.5150    9.3730  -22.6850 C.2    63  ASN63       0.2627
     15  OD1       -8.6350    9.2990  -22.1770 O.2    63  ASN63      -0.2716
     16  ND2       -6.6850    8.3340  -22.7560 N.am   63  ASN63      -0.0877
     17  N         -8.6350    7.4380  -13.9900 N.3    79  ASP79      -0.1239
     18  CA        -7.6540    7.0960  -12.9400 C.3    79  ASP79       0.1674
     19  C         -6.7330    8.2790  -12.6540 C.2    79  ASP79       0.2266
     20  O         -6.4080    9.0180  -13.5850 O.2    79  ASP79      -0.2867
     21  CB        -6.7580    5.9250  -13.3710 C.3    79  ASP79       0.1410
     22  CG        -7.5290    4.6860  -13.8260 C.2    79  ASP79       0.3668
     23  OD1       -8.5310    4.2640  -13.1820 O.co2  79  ASP79      -0.2456
     24  OD2       -7.0930    4.0860  -14.8370 O.co2  79  ASP79      -0.2456
     25  N         -3.6500   10.0020  -21.5870 N.3   155  THR155     -0.1218
     26  CA        -2.9470   10.1840  -20.3170 C.3   155  THR155      0.1862
     27  C         -2.2870   11.5380  -20.2780 C.2   155  THR155      0.2287
     28  O         -2.0420   12.1370  -21.3540 O.2   155  THR155     -0.2866
     29  CB        -1.9010    9.1060  -20.0950 C.3   155  THR155      0.1770
     30  OG1       -2.5410    7.8310  -20.1750 O.3   155  THR155     -0.2211
     31  CG2       -1.2610    9.2620  -18.7130 C.3   155  THR155      0.0375
     32  N         -5.7830   10.1720  -16.3120 N.3   173  THR173     -0.1218
     33  CA        -6.1750    9.4780  -17.5690 C.3   173  THR173      0.1862
     34  C         -7.6310    8.9380  -17.5770 C.2   173  THR173      0.2287
     35  O         -8.1680    8.5090  -16.5360 O.2   173  THR173     -0.2866
     36  CB        -5.1740    8.3240  -17.8910 C.3   173  THR173      0.1770
     37  OG1       -5.2840    7.9040  -19.2670 O.3   173  THR173     -0.2211
     38  CG2       -5.3900    7.1000  -16.9610 C.3   173  THR173      0.0375
     39  N         -8.1160    6.3050  -19.2650 N.3   175  GLY175     -0.1210
     40  CA        -7.7540    4.8990  -19.5520 C.3   175  GLY175      0.1956
     41  C         -7.3040    4.6860  -20.9900 C.2   175  GLY175      0.2611
     42  O         -6.6080    5.5260  -21.5560 O.2   175  GLY175     -0.2717
     43  N         -7.7760    3.5990  -21.5920 N.am  176  ILE176     -0.1979
     44  CA        -7.3490    3.1500  -22.9230 C.3   176  ILE176      0.1595
     45  C         -8.6370    2.7570  -23.6780 C.2   176  ILE176      0.2287
     46  O         -9.5400    2.1840  -23.0780 O.2   176  ILE176     -0.2864
     47  CB        -6.3670    1.9620  -22.7320 C.3   176  ILE176      0.0276
     48  CG1       -5.1630    2.0180  -23.7000 C.3   176  ILE176      0.0022
     49  CG2       -7.0910    0.6140  -22.6370 C.3   176  ILE176      0.0022
     50  CD1       -3.8340    1.8150  -22.9830 C.3   176  ILE176      0.0001
     51  N        -11.3330   -1.8190  -15.3500 N.3   183  ARG183     -0.1245
     52  CA        -9.9220   -1.9000  -15.6730 C.3   183  ARG183      0.1563
     53  C         -9.1030   -0.7340  -15.0430 C.2   183  ARG183      0.2260
     54  O         -9.3820    0.4400  -15.2800 O.2   183  ARG183     -0.2867
     55  CB        -9.7010   -1.9820  -17.1970 C.3   183  ARG183      0.0307
     56  CG        -8.2370   -1.9210  -17.6090 C.3   183  ARG183      0.0489
     57  CD        -7.7550   -0.5190  -17.9710 C.3   183  ARG183      0.2205
     58  NE        -6.3800   -0.5840  -18.4730 N.pl3 183  ARG183     -0.0865
     59  CZ        -5.5660    0.4560  -18.6400 C.cat 183  ARG183      0.5346
     60  NH1       -5.9760    1.6940  -18.3450 N.pl3 183  ARG183      0.1354
     61  NH2       -4.3430    0.2590  -19.1280 N.pl3 183  ARG183      0.1354
     62  N         -5.3440    0.9710  -14.7450 N.3   185  GLY185     -0.1210
     63  CA        -4.0240    1.0760  -15.3480 C.3   185  GLY185      0.1956
     64  C         -2.8850    1.3830  -14.3860 C.2   185  GLY185      0.2612
     65  O         -2.9270    1.0740  -13.1830 O.2   185  GLY185     -0.2717
     66  N         -1.8370    1.9830  -14.9260 N.am  186  ASP186     -0.1959
     67  CA        -0.6650    2.3130  -14.1190 C.3   186  ASP186      0.1840
     68  C         -0.7820    3.6850  -13.4630 C.2   186  ASP186      0.2622
     69  O         -0.0670    3.9670  -12.4980 O.2   186  ASP186     -0.2715
     70  CB         0.5570    2.3390  -15.0020 C.3   186  ASP186      0.1450
     71  CG         0.4770    3.4190  -16.0320 C.2   186  ASP186      0.3671
     72  OD1       -0.1650    3.2040  -17.0750 O.co2 186  ASP186     -0.2456
     73  OD2        1.0300    4.5130  -15.8000 O.co2 186  ASP186     -0.2456
     74  N         -1.6610    4.5300  -14.0070 N.am  187  SER187     -0.1950
     75  CA        -1.8070    5.9350  -13.5680 C.3   187  SER187      0.1924
     76  C         -1.9700    6.1230  -12.0560 C.2   187  SER187      0.2314
     77  O         -1.2450    6.9300  -11.4640 O.2   187  SER187     -0.2863
     78  CB        -2.9610    6.6300  -14.3050 C.3   187  SER187      0.2116
     79  OG        -2.5130    7.2200  -15.5080 O.3   187  SER187     -0.2180
     80  N          3.4010    7.5570  -19.1930 N.3   206  THR206     -0.1203
     81  CA         2.3490    7.3900  -20.1700 C.3   206  THR206      0.1994
     82  C          2.7940    6.3000  -21.1160 C.2   206  THR206      0.2618
     83  O          3.9770    6.1940  -21.4260 O.2   206  THR206     -0.2717
     84  CB         2.0290    8.6880  -20.9470 C.3   206  THR206      0.1784
     85  OG1        0.9220    8.4360  -21.8140 O.3   206  THR206     -0.2211
     86  CG2        3.2290    9.1800  -21.7740 C.3   206  THR206      0.0376
     87  N          1.8560    5.4800  -21.5680 N.am  207  GLY207     -0.1956
     88  CA         2.2410    4.3740  -22.4440 C.3   207  GLY207      0.1869
     89  C          1.2610    3.2410  -22.3600 C.2   207  GLY207      0.2309
     90  O          0.0830    3.4550  -22.0680 O.2   207  GLY207     -0.2863
     91  N         -0.3250    0.9670  -20.4580 N.3   209  GLY209     -0.1225
     92  CA        -0.4850    0.9160  -19.0180 C.3   209  GLY209      0.1811
     93  C          0.0520   -0.3470  -18.3970 C.2   209  GLY209      0.2280
     94  O          1.0080   -0.2890  -17.6340 O.2   209  GLY209     -0.2866
     95  N          3.5060   -0.6160  -18.1760 N.3   212  ILE212     -0.1245
     96  CA         4.0980    0.3770  -17.2430 C.3   212  ILE212      0.1561
     97  C          4.0540   -0.1840  -15.7970 C.2   212  ILE212      0.2260
     98  O          5.0410   -0.0580  -15.0320 O.2   212  ILE212     -0.2867
     99  CB         3.4230    1.8070  -17.3510 C.3   212  ILE212      0.0252
    100  CG1        3.7510    2.5190  -18.6670 C.3   212  ILE212      0.0019
    101  CG2        3.8510    2.7380  -16.2210 C.3   212  ILE212      0.0019
    102  CD1        2.9220    3.7760  -18.9120 C.3   212  ILE212      0.0001
@<TRIPOS>BOND
     1     7     8    2
     2     7     6    1
     3     4     3    2
     4     6     5    1
     5     3     5   am
     6     3     2    1
     7    48    50    1
     8    48    47    1
     9    45    46    2
    10    45    44    1
    11     2     1    1
    12    13    14    1
    13    13    10    1
    14     9    10    1
    15    44    47    1
    16    44    43    1
    17    16    14   am
    18    47    49    1
    19    14    15    2
    20    10    11    1
    21    88    89    1
    22    88    87    1
    23    89    90    2
    24    85    84    1
    25    86    84    1
    26    43    41   am
    27    25    26    1
    28    87    82   am
    29    42    41    2
    30    83    82    2
    31    28    27    2
    32    82    81    1
    33    11    12    2
    34    41    40    1
    35    84    81    1
    36    91    92    1
    37    26    27    1
    38    26    29    1
    39    30    29    1
    40    81    80    1
    41    29    31    1
    42    40    39    1
    43    37    36    1
    44    61    59    1
    45    92    93    1
    46   102   100    1
    47   100    99    1
    48    59    58    2
    49    59    60    1
    50    58    57    1
    51    93    94    2
    52    95    96    1
    53    57    56    1
    54    36    33    1
    55    36    38    1
    56    56    55    1
    57    34    33    1
    58    34    35    2
    59    33    32    1
    60    99    96    1
    61    99   101    1
    62    96    97    1
    63    55    52    1
    64    72    71   ar
    65    71    73   ar
    66    71    70    1
    67    97    98    2
    68    52    51    1
    69    52    53    1
    70    79    78    1
    71    63    62    1
    72    63    64    1
    73    54    53    2
    74    70    67    1
    75    66    64   am
    76    66    67    1
    77    24    22   ar
    78    64    65    2
    79    78    75    1
    80    67    68    1
    81    74    75    1
    82    74    68   am
    83    17    18    1
    84    22    21    1
    85    22    23   ar
    86    20    19    2
    87    75    76    1
    88    68    69    2
    89    21    18    1
    90    18    19    1
    91    76    77    2
