@<TRIPOS>MOLECULE
tmp/4o0jA00.pdb
 86 85 0 0 0
SMALL
GASTEIGER

@<TRIPOS>ATOM
      1  N         46.9910  -13.2340   20.4920 N.3    39  GLN39      -0.1245
      2  CA        46.8720  -12.3490   21.6320 C.3    39  GLN39       0.1566
      3  C         46.0830  -11.0740   21.3410 C.2    39  GLN39       0.2260
      4  O         45.2240  -10.6800   22.1460 O.2    39  GLN39      -0.2867
      5  CB        48.2290  -12.0090   22.2810 C.3    39  GLN39       0.0367
      6  CG        48.8920  -13.2410   22.8410 C.3    39  GLN39       0.0905
      7  CD        49.8930  -12.9540   23.9380 C.2    39  GLN39       0.2608
      8  OE1       50.0550  -11.8020   24.3740 O.2    39  GLN39      -0.2717
      9  NE2       50.5610  -14.0260   24.4190 N.am   39  GLN39      -0.0878
     10  N         42.3830  -12.0520   20.8460 N.3    42  ALA42      -0.1231
     11  CA        41.7590  -12.4070   22.1320 C.3    42  ALA42       0.1694
     12  C         41.3890  -11.1390   22.8860 C.2    42  ALA42       0.2592
     13  O         40.2830  -11.0300   23.4630 O.2    42  ALA42      -0.2718
     14  CB        42.7370  -13.2900   22.9910 C.3    42  ALA42       0.0304
     15  N         42.3510  -10.2120   22.9450 N.am   43  TYR43      -0.1976
     16  CA        42.1470   -8.9890   23.7010 C.3    43  TYR43       0.1639
     17  C         41.0050   -8.1870   23.0410 C.2    43  TYR43       0.2290
     18  O         40.1480   -7.6110   23.6900 O.2    43  TYR43      -0.2864
     19  CB        43.4660   -8.1910   23.7120 C.3    43  TYR43       0.0560
     20  CG        43.3310   -6.8680   24.4810 C.ar   43  TYR43      -0.0198
     21  CD1       43.1370   -6.8670   25.8630 C.ar   43  TYR43      -0.0009
     22  CD2       43.3640   -5.6260   23.8190 C.ar   43  TYR43      -0.0009
     23  CE1       43.0160   -5.6890   26.5520 C.ar   43  TYR43       0.0417
     24  CE2       43.2240   -4.4290   24.5050 C.ar   43  TYR43       0.0417
     25  CZ        43.0610   -4.4840   25.8690 C.ar   43  TYR43       0.1957
     26  OH        42.8910   -3.3660   26.5800 O.3    43  TYR43      -0.2866
     27  N         37.6820   -9.7080   23.9660 N.3    46  LEU46      -0.1245
     28  CA        37.2290   -9.3030   25.3430 C.3    46  LEU46       0.1561
     29  C         36.5990   -7.9210   25.3960 C.2    46  LEU46       0.2260
     30  O         35.5650   -7.7270   26.0390 O.2    46  LEU46      -0.2867
     31  CB        38.3700   -9.3180   26.3310 C.3    46  LEU46       0.0270
     32  CG        38.9190  -10.7160   26.6250 C.3    46  LEU46       0.0019
     33  CD1       40.1790  -10.5980   27.5030 C.3    46  LEU46       0.0001
     34  CD2       37.8420  -11.6330   27.2240 C.3    46  LEU46       0.0001
     35  N         45.3860  -20.7720   21.9080 N.3    68  THR68      -0.1203
     36  CA        44.7560  -21.0330   23.1920 C.3    68  THR68       0.1994
     37  C         44.3120  -19.7120   23.8120 C.2    68  THR68       0.2618
     38  O         43.3560  -19.6550   24.5310 O.2    68  THR68      -0.2717
     39  CB        45.6230  -21.8870   24.1780 C.3    68  THR68       0.1784
     40  OG1       46.2750  -21.0470   25.1340 O.3    68  THR68      -0.2211
     41  CG2       46.6020  -22.7340   23.4870 C.3    68  THR68       0.0376
     42  N         45.0190  -18.6410   23.4810 N.am   69  THR69      -0.1952
     43  CA        44.7030  -17.3470   24.0220 C.3    69  THR69       0.1897
     44  C         43.3030  -16.8780   23.5340 C.2    69  THR69       0.2313
     45  O         42.4390  -16.4190   24.3100 O.2    69  THR69      -0.2863
     46  CB        45.9340  -16.5270   23.6220 C.3    69  THR69       0.1794
     47  OG1       46.5590  -15.9370   24.7590 O.3    69  THR69      -0.2208
     48  CG2       45.7200  -15.6330   22.5580 C.3    69  THR69       0.0378
     49  N         40.6950  -19.1860   25.1730 N.3    72  ALA72      -0.1231
     50  CA        40.4580  -18.6990   26.5690 C.3    72  ALA72       0.1694
     51  C         39.4870  -17.4870   26.5960 C.2    72  ALA72       0.2591
     52  O         38.5920  -17.3890   27.4650 O.2    72  ALA72      -0.2718
     53  CB        41.7990  -18.2980   27.2020 C.3    72  ALA72       0.0304
     54  N         39.6860  -16.5220   25.6720 N.am   73  ALA73      -0.1980
     55  CA        38.8630  -15.2750   25.6810 C.3    73  ALA73       0.1597
     56  C         37.4390  -15.6650   25.3650 C.2    73  ALA73       0.2287
     57  O         36.4180  -15.2980   25.9960 O.2    73  ALA73      -0.2864
     58  CB        39.3770  -14.2910   24.6410 C.3    73  ALA73       0.0319
     59  N         36.0660  -18.6760   25.7880 N.3    74  TRP74      -0.1227
     60  CA        35.4960  -19.4390   26.9280 C.3    74  TRP74       0.1737
     61  C         35.0640  -18.4520   28.0370 C.2    74  TRP74       0.2595
     62  O         33.9820  -18.5480   28.5880 O.2    74  TRP74      -0.2718
     63  CB        36.6210  -20.2890   27.4830 C.3    74  TRP74       0.0564
     64  CG        36.2810  -20.8400   28.8260 C.ar   74  TRP74       0.0003
     65  CD1       35.4270  -21.9060   29.0920 C.ar   74  TRP74       0.0946
     66  CD2       36.7690  -20.3880   30.1050 C.ar   74  TRP74       0.0152
     67  NE1       35.3690  -22.1240   30.4410 N.ar   74  TRP74      -0.2442
     68  CE2       36.1810  -21.2300   31.0910 C.ar   74  TRP74       0.0810
     69  CE3       37.6400  -19.3840   30.5040 C.ar   74  TRP74       0.0012
     70  CZ2       36.4130  -21.0590   32.4370 C.ar   74  TRP74       0.0191
     71  CZ3       37.8890  -19.2090   31.8480 C.ar   74  TRP74       0.0001
     72  CH2       37.2800  -20.0430   32.8110 C.ar   74  TRP74       0.0015
     73  N         35.9280  -17.4930   28.3710 N.am   75  TRP75      -0.1976
     74  CA        35.6150  -16.6400   29.5330 C.3    75  TRP75       0.1640
     75  C         34.3720  -15.7710   29.2320 C.2    75  TRP75       0.2290
     76  O         33.4880  -15.5690   30.0710 O.2    75  TRP75      -0.2864
     77  CB        36.8460  -15.7920   29.9090 C.3    75  TRP75       0.0576
     78  CG        36.6340  -15.0570   31.1880 C.ar   75  TRP75       0.0006
     79  CD1       36.9310  -15.4810   32.4680 C.ar   75  TRP75       0.0946
     80  CD2       36.0220  -13.7510   31.3220 C.ar   75  TRP75       0.0152
     81  NE1       36.5660  -14.4860   33.3770 N.ar   75  TRP75      -0.2442
     82  CE2       36.0220  -13.4260   32.7020 C.ar   75  TRP75       0.0810
     83  CE3       35.5330  -12.8100   30.3950 C.ar   75  TRP75       0.0012
     84  CZ2       35.5150  -12.2090   33.1880 C.ar   75  TRP75       0.0191
     85  CZ3       35.0690  -11.6060   30.8670 C.ar   75  TRP75       0.0001
     86  CH2       35.0570  -11.3120   32.2630 C.ar   75  TRP75       0.0015
@<TRIPOS>BOND
     1     1     2    1
     2    10    11    1
     3     3     2    1
     4     3     4    2
     5     2     5    1
     6    35    36    1
     7    11    12    1
     8    11    14    1
     9     5     6    1
    10    48    46    1
    11     6     7    1
    12    12    15   am
    13    12    13    2
    14    15    16    1
    15    17    18    2
    16    17    16    1
    17    36    37    1
    18    36    39    1
    19    42    37   am
    20    42    43    1
    21    41    39    1
    22    44    43    1
    23    44    45    2
    24    46    43    1
    25    46    47    1
    26    16    19    1
    27    19    20    1
    28    37    38    2
    29    22    20   ar
    30    22    24   ar
    31     7     8    2
    32     7     9   am
    33    27    28    1
    34    39    40    1
    35    20    21   ar
    36    24    25   ar
    37    58    55    1
    38    49    50    1
    39    28    29    1
    40    28    31    1
    41    56    55    1
    42    56    57    2
    43    29    30    2
    44    54    55    1
    45    54    51   am
    46    59    60    1
    47    21    23   ar
    48    25    23   ar
    49    25    26    1
    50    31    32    1
    51    50    51    1
    52    50    53    1
    53    51    52    2
    54    32    34    1
    55    32    33    1
    56    60    63    1
    57    60    61    1
    58    63    64    1
    59    61    73   am
    60    61    62    2
    61    73    74    1
    62    64    65   ar
    63    64    66   ar
    64    65    67   ar
    65    75    74    1
    66    75    76    2
    67    74    77    1
    68    77    78    1
    69    66    69   ar
    70    66    68   ar
    71    83    85   ar
    72    83    80   ar
    73    67    68   ar
    74    69    71   ar
    75    85    86   ar
    76    68    70   ar
    77    78    80   ar
    78    78    79   ar
    79    80    82   ar
    80    71    72   ar
    81    86    84   ar
    82    70    72   ar
    83    79    81   ar
    84    82    84   ar
    85    82    81   ar
