@<TRIPOS>MOLECULE
tmp/4o0oA01.pdb
 118 115 0 0 0
SMALL
GASTEIGER

@<TRIPOS>ATOM
      1  N        -21.5470  -19.6760  -13.6930 N.3    69  VAL69      -0.1231
      2  CA       -21.1960  -18.3690  -14.2410 C.3    69  VAL69       0.1692
      3  C        -19.8050  -17.9000  -13.8450 C.2    69  VAL69       0.2592
      4  O        -19.5040  -16.7010  -13.9020 O.2    69  VAL69      -0.2718
      5  CB       -22.1850  -17.2480  -13.8040 C.3    69  VAL69       0.0266
      6  CG1      -22.1700  -16.1210  -14.8360 C.3    69  VAL69       0.0020
      7  CG2      -23.5880  -17.8000  -13.6170 C.3    69  VAL69       0.0020
      8  N        -18.9570  -18.8320  -13.4410 N.am   70  TYR70      -0.1962
      9  CA       -17.5990  -18.4870  -13.0630 C.3    70  TYR70       0.1771
     10  C        -16.7280  -18.3530  -14.3000 C.2    70  TYR70       0.2619
     11  O        -16.7600  -19.1990  -15.1830 O.2    70  TYR70      -0.2715
     12  CB       -17.0100  -19.5600  -12.1340 C.3    70  TYR70       0.0574
     13  CG       -17.6360  -19.5930  -10.7540 C.ar   70  TYR70      -0.0198
     14  CD1      -17.2810  -20.5780   -9.8360 C.ar   70  TYR70      -0.0009
     15  CD2      -18.5920  -18.6360  -10.3670 C.ar   70  TYR70      -0.0009
     16  CE1      -17.8650  -20.6240   -8.5590 C.ar   70  TYR70       0.0417
     17  CE2      -19.1870  -18.6670   -9.0970 C.ar   70  TYR70       0.0417
     18  CZ       -18.8190  -19.6640   -8.1950 C.ar   70  TYR70       0.1957
     19  OH       -19.4250  -19.7380   -6.9530 O.3    70  TYR70      -0.2866
     20  N        -15.9770  -17.2610  -14.3790 N.am   71  ILE71      -0.1977
     21  CA       -15.0630  -17.0890  -15.5000 C.3    71  ILE71       0.1596
     22  C        -13.9220  -18.0950  -15.2890 C.2    71  ILE71       0.2287
     23  O        -13.4070  -18.2240  -14.1780 O.2    71  ILE71      -0.2864
     24  CB       -14.4730  -15.6630  -15.5620 C.3    71  ILE71       0.0276
     25  CG1      -15.5560  -14.6290  -15.9020 C.3    71  ILE71       0.0022
     26  CG2      -13.4280  -15.5950  -16.6470 C.3    71  ILE71       0.0022
     27  CD1      -16.5780  -14.3860  -14.8190 C.3    71  ILE71       0.0001
     28  N         -7.2530  -19.2840  -14.8070 N.3    83  PHE83      -0.1241
     29  CA        -6.9670  -19.1460  -13.3870 C.3    83  PHE83       0.1605
     30  C         -6.2030  -20.3640  -12.9010 C.2    83  PHE83       0.2264
     31  O         -6.1800  -21.4040  -13.5670 O.2    83  PHE83      -0.2867
     32  CB        -8.2670  -19.0220  -12.6000 C.3    83  PHE83       0.0534
     33  CG        -8.9220  -17.6820  -12.7220 C.ar   83  PHE83      -0.0203
     34  CD1       -8.3570  -16.5660  -12.1160 C.ar   83  PHE83      -0.0042
     35  CD2      -10.1230  -17.5370  -13.4120 C.ar   83  PHE83      -0.0042
     36  CE1       -8.9830  -15.3230  -12.1940 C.ar   83  PHE83      -0.0003
     37  CE2      -10.7550  -16.3020  -13.4950 C.ar   83  PHE83      -0.0003
     38  CZ       -10.1810  -15.1930  -12.8820 C.ar   83  PHE83      -0.0000
     39  N         -9.5450  -18.0270   -9.0930 N.3   109  GLY109     -0.1210
     40  CA       -10.4890  -16.9890   -9.4350 C.3   109  GLY109      0.1956
     41  C        -11.4180  -16.5060   -8.3480 C.2   109  GLY109      0.2612
     42  O        -12.4000  -15.8430   -8.6770 O.2   109  GLY109     -0.2717
     43  N        -11.1770  -16.8150   -7.0770 N.am  110  ASN110     -0.1960
     44  CA       -12.1210  -16.3210   -6.0720 C.3   110  ASN110      0.1819
     45  C        -11.7280  -14.9280   -5.6040 C.2   110  ASN110      0.2621
     46  O        -10.5590  -14.5960   -5.5280 O.2   110  ASN110     -0.2715
     47  CB       -12.2070  -17.2660   -4.8730 C.3   110  ASN110      0.1195
     48  CG       -10.9110  -17.3600   -4.1170 C.2   110  ASN110      0.2630
     49  OD1      -10.6700  -16.6230   -3.1490 O.2   110  ASN110     -0.2716
     50  ND2      -10.0570  -18.2800   -4.5510 N.am  110  ASN110     -0.0877
     51  N        -12.7240  -14.1090   -5.3020 N.am  111  TYR111     -0.1974
     52  CA       -12.5040  -12.7370   -4.8420 C.3   111  TYR111      0.1639
     53  C        -11.3920  -12.5710   -3.8090 C.2   111  TYR111      0.2290
     54  O        -10.6040  -11.6190   -3.8670 O.2   111  TYR111     -0.2864
     55  CB       -13.8030  -12.1870   -4.2620 C.3   111  TYR111      0.0560
     56  CG       -14.8450  -11.8740   -5.3080 C.ar  111  TYR111     -0.0198
     57  CD1      -14.5050  -11.1460   -6.4500 C.ar  111  TYR111     -0.0009
     58  CD2      -16.1940  -12.2060   -5.1100 C.ar  111  TYR111     -0.0009
     59  CE1      -15.4670  -10.7350   -7.3470 C.ar  111  TYR111      0.0417
     60  CE2      -17.1740  -11.7990   -6.0070 C.ar  111  TYR111      0.0417
     61  CZ       -16.8010  -11.0640   -7.1220 C.ar  111  TYR111      0.1957
     62  OH       -17.7560  -10.6020   -7.9990 O.3   111  TYR111     -0.2866
     63  N        -15.5430   -9.6490  -13.7720 N.3   155  ILE155     -0.1245
     64  CA       -16.4540  -10.5700  -13.0960 C.3   155  ILE155      0.1561
     65  C        -17.7280   -9.8900  -12.6010 C.2   155  ILE155      0.2260
     66  O        -18.8190  -10.4550  -12.6920 O.2   155  ILE155     -0.2867
     67  CB       -15.7800  -11.2380  -11.8790 C.3   155  ILE155      0.0252
     68  CG1      -14.6760  -12.1800  -12.3600 C.3   155  ILE155      0.0019
     69  CG2      -16.8330  -11.9840  -11.0320 C.3   155  ILE155      0.0019
     70  CD1      -13.7710  -12.6720  -11.2470 C.3   155  ILE155      0.0001
     71  N        -20.6010  -11.3860  -14.7550 N.3   159  ALA159     -0.1231
     72  CA       -21.2490  -12.4790  -14.0300 C.3   159  ALA159      0.1694
     73  C        -22.2390  -12.0240  -12.9620 C.2   159  ALA159      0.2591
     74  O        -23.3760  -12.4940  -12.9200 O.2   159  ALA159     -0.2718
     75  CB       -20.1810  -13.3730  -13.3880 C.3   159  ALA159      0.0304
     76  N        -21.7890  -11.1200  -12.0920 N.am  160  GLU160     -0.1979
     77  CA       -22.6110  -10.5910  -11.0060 C.3   160  GLU160      0.1602
     78  C        -23.7970   -9.7840  -11.5230 C.2   160  GLU160      0.2287
     79  O        -24.8380   -9.7230  -10.8750 O.2   160  GLU160     -0.2864
     80  CB       -21.7510   -9.7310  -10.0950 C.3   160  GLU160      0.0415
     81  CG       -20.5630  -10.4710   -9.5060 C.3   160  GLU160      0.1163
     82  CD       -20.9850  -11.5370   -8.5270 C.2   160  GLU160      0.3649
     83  OE1      -22.1580  -11.9640   -8.6010 O.co2 160  GLU160     -0.2457
     84  OE2      -20.1420  -11.9440   -7.6910 O.co2 160  GLU160     -0.2457
     85  N        -26.4220  -12.2970  -12.6940 N.3   163  ARG163     -0.1245
     86  CA       -27.0280  -12.9190  -11.5140 C.3   163  ARG163      0.1563
     87  C        -27.9990  -12.0210  -10.7580 C.2   163  ARG163      0.2260
     88  O        -29.0010  -12.5060  -10.2250 O.2   163  ARG163     -0.2867
     89  CB       -25.9530  -13.3660  -10.5250 C.3   163  ARG163      0.0307
     90  CG       -24.9820  -14.4040  -11.0330 C.3   163  ARG163      0.0489
     91  CD       -24.0570  -14.7730   -9.8810 C.3   163  ARG163      0.2205
     92  NE       -23.0910  -15.8080  -10.2070 N.pl3 163  ARG163     -0.0865
     93  CZ       -21.7780  -15.6350  -10.1360 C.cat 163  ARG163      0.5346
     94  NH1      -21.2930  -14.4600   -9.7530 N.pl3 163  ARG163      0.1354
     95  NH2      -20.9580  -16.6380  -10.4300 N.pl3 163  ARG163      0.1354
     96  N        -23.0880  -10.1690   -4.0110 N.3   189  GLU189     -0.1245
     97  CA       -22.0580  -11.0020   -4.6100 C.3   189  GLU189      0.1567
     98  C        -21.6300  -12.0960   -3.6470 C.2   189  GLU189      0.2260
     99  O        -21.3940  -13.2320   -4.0560 O.2   189  GLU189     -0.2867
    100  CB       -20.8540  -10.1510   -4.9910 C.3   189  GLU189      0.0388
    101  CG       -21.1850   -9.1060   -6.0220 C.3   189  GLU189      0.1160
    102  CD       -20.0860   -8.0910   -6.1910 C.2   189  GLU189      0.3649
    103  OE1      -19.1340   -8.1120   -5.3920 O.co2 189  GLU189     -0.2457
    104  OE2      -20.1850   -7.2710   -7.1220 O.co2 189  GLU189     -0.2457
    105  N        -24.7720  -14.9130   -3.1110 N.3   192  TRP192     -0.1241
    106  CA       -25.3750  -15.6590   -4.2140 C.3   192  TRP192      0.1605
    107  C        -25.6060  -17.1320   -3.8950 C.2   192  TRP192      0.2264
    108  O        -26.6680  -17.6690   -4.1850 O.2   192  TRP192     -0.2867
    109  CB       -24.5280  -15.5460   -5.4810 C.3   192  TRP192      0.0550
    110  CG       -25.2310  -16.1020   -6.6770 C.ar  192  TRP192      0.0003
    111  CD1      -26.4670  -15.7520   -7.1290 C.ar  192  TRP192      0.0946
    112  CD2      -24.7360  -17.0870   -7.5880 C.ar  192  TRP192      0.0152
    113  NE1      -26.7770  -16.4560   -8.2670 N.ar  192  TRP192     -0.2442
    114  CE2      -25.7270  -17.2910   -8.5720 C.ar  192  TRP192      0.0810
    115  CE3      -23.5470  -17.8270   -7.6700 C.ar  192  TRP192      0.0012
    116  CZ2      -25.5740  -18.1890   -9.6300 C.ar  192  TRP192      0.0191
    117  CZ3      -23.3920  -18.7240   -8.7250 C.ar  192  TRP192      0.0001
    118  CH2      -24.4000  -18.9000   -9.6860 C.ar  192  TRP192      0.0015
@<TRIPOS>BOND
     1    26    24    1
     2    25    24    1
     3    25    27    1
     4    24    21    1
     5    21    22    1
     6    21    20    1
     7    22    23    2
     8    11    10    2
     9     6     5    1
    10    28    29    1
    11    71    72    1
    12    20    10   am
    13    10     9    1
    14     2     3    1
    15     2     5    1
    16     2     1    1
    17    72    75    1
    18    72    73    1
    19     4     3    2
    20     3     8   am
    21     5     7    1
    22    63    64    1
    23    31    30    2
    24    37    35   ar
    25    37    38   ar
    26     8     9    1
    27    35    33   ar
    28    29    30    1
    29    29    32    1
    30    64    65    1
    31    64    67    1
    32     9    12    1
    33    73    74    2
    34    73    76   am
    35    38    36   ar
    36    33    32    1
    37    33    34   ar
    38    85    86    1
    39    66    65    2
    40    68    67    1
    41    68    70    1
    42    36    34   ar
    43    12    13    1
    44    76    77    1
    45    67    69    1
    46    78    77    1
    47    78    79    2
    48    86    87    1
    49    86    89    1
    50    90    89    1
    51    90    91    1
    52    77    80    1
    53    87    88    2
    54    13    15   ar
    55    13    14   ar
    56    95    93    1
    57    15    17   ar
    58    92    93    2
    59    92    91    1
    60    93    94    1
    61    80    81    1
    62    14    16   ar
    63   118   116   ar
    64   118   117   ar
    65   116   114   ar
    66    81    82    1
    67    40    39    1
    68    40    41    1
    69    17    18   ar
    70   117   115   ar
    71    42    41    2
    72    83    82   ar
    73   114   113   ar
    74   114   112   ar
    75    16    18   ar
    76    82    84   ar
    77    41    43   am
    78   113   111   ar
    79    18    19    1
    80    62    61    1
    81   115   112   ar
    82   112   110   ar
    83    59    61   ar
    84    59    57   ar
    85   111   110   ar
    86   104   102   ar
    87    61    60   ar
    88    43    44    1
    89   110   109    1
    90    57    56   ar
    91   102   101    1
    92   102   103   ar
    93    44    45    1
    94    44    47    1
    95   101   100    1
    96    60    58   ar
    97    45    46    2
    98    45    51   am
    99   109   106    1
   100    56    58   ar
   101    56    55    1
   102    51    52    1
   103   100    97    1
   104    47    48    1
   105    52    55    1
   106    52    53    1
   107    97    96    1
   108    97    98    1
   109    50    48   am
   110   106   107    1
   111   106   105    1
   112   108   107    2
   113    48    49    2
   114    99    98    2
   115    54    53    2
