@<TRIPOS>MOLECULE
tmp/4o0rA00.pdb
 181 169 0 0 0
SMALL
GASTEIGER

@<TRIPOS>ATOM
      1  N          8.3230  -19.8610   10.9710 N.3    28  ILE28      -0.1231
      2  CA         8.3150  -19.0530   12.1870 C.3    28  ILE28       0.1692
      3  C          8.4600  -17.5690   11.8260 C.2    28  ILE28       0.2593
      4  O          8.0880  -16.6810   12.5910 O.2    28  ILE28      -0.2718
      5  CB         9.4290  -19.5300   13.1720 C.3    28  ILE28       0.0266
      6  CG1        8.9790  -20.7910   13.9140 C.3    28  ILE28       0.0019
      7  CG2        9.7880  -18.4690   14.1860 C.3    28  ILE28       0.0020
      8  CD1        9.6910  -21.0110   15.2350 C.3    28  ILE28       0.0001
      9  N          8.9740  -17.3020   10.6330 N.am   29  GLY29      -0.1942
     10  CA         9.1690  -15.9340   10.1980 C.3    29  GLY29       0.2014
     11  C          9.3500  -15.8460    8.7020 C.2    29  GLY29       0.2639
     12  O          9.7060  -16.8280    8.0510 O.2    29  GLY29      -0.2714
     13  N          9.1020  -14.6620    8.1580 N.am   30  GLN30      -0.1963
     14  CA         9.2460  -14.4390    6.7280 C.3    30  GLN30       0.1733
     15  C          9.4420  -12.9580    6.4350 C.2    30  GLN30       0.2616
     16  O          8.4850  -12.2320    6.1780 O.2    30  GLN30      -0.2715
     17  CB         8.0270  -14.9770    5.9740 C.3    30  GLN30       0.0408
     18  CG         6.8010  -14.2460    6.0700 C.3    30  GLN30       0.0908
     19  CD         5.6950  -15.0100    5.2930 C.2    30  GLN30       0.2608
     20  OE1        5.4400  -16.1350    5.5730 O.2    30  GLN30      -0.2717
     21  NE2        4.9510  -14.3100    4.4580 N.am   30  GLN30      -0.0878
     22  N         10.6910  -12.5130    6.4850 N.am   31  GLY31      -0.1955
     23  CA        11.0150  -11.1380    6.1620 C.3    31  GLY31       0.1869
     24  C         11.4160  -11.0090    4.7070 C.2    31  GLY31       0.2309
     25  O         11.2230  -11.9300    3.9130 O.2    31  GLY31      -0.2863
     26  N         14.4770  -10.6030    3.8680 N.3    33  SER33      -0.1202
     27  CA        15.8080  -11.1970    3.8020 C.3    33  SER33       0.2020
     28  C         15.7820  -12.7170    3.9700 C.2    33  SER33       0.2619
     29  O         16.7750  -13.3190    4.3750 O.2    33  SER33      -0.2717
     30  CB        16.7290  -10.5540    4.8460 C.3    33  SER33       0.2103
     31  OG        16.1240  -10.5360    6.1260 O.3    33  SER33      -0.2182
     32  N         14.6460  -13.3310    3.6510 N.am   34  GLY34      -0.1942
     33  CA        14.5000  -14.7740    3.7530 C.3    34  GLY34       0.2014
     34  C         13.3300  -15.1950    4.6270 C.2    34  GLY34       0.2640
     35  O         12.5530  -14.3540    5.0780 O.2    34  GLY34      -0.2714
     36  N         13.1960  -16.5030    4.8500 N.am   35  THR35      -0.1936
     37  CA        12.1750  -17.0410    5.7510 C.3    35  THR35       0.2028
     38  C         12.7770  -18.0830    6.7000 C.2    35  THR35       0.2642
     39  O         13.4980  -18.9870    6.2720 O.2    35  THR35      -0.2714
     40  CB        11.0040  -17.7040    4.9870 C.3    35  THR35       0.1808
     41  OG1       11.4460  -18.9420    4.4210 O.3    35  THR35      -0.2208
     42  CG2       10.4840  -16.8060    3.8750 C.3    35  THR35       0.0379
     43  N         12.4650  -17.9570    7.9870 N.am   36  VAL36      -0.1977
     44  CA        13.0030  -18.8520    9.0080 C.3    36  VAL36       0.1596
     45  C         12.0370  -19.9790    9.3830 C.2    36  VAL36       0.2287
     46  O         10.8520  -19.7420    9.6240 O.2    36  VAL36      -0.2864
     47  CB        13.3840  -18.0730   10.2820 C.3    36  VAL36       0.0276
     48  CG1       13.7300  -19.0320   11.4210 C.3    36  VAL36       0.0022
     49  CG2       14.5360  -17.1260    9.9950 C.3    36  VAL36       0.0022
     50  N         17.0560  -23.6480   13.9820 N.3    49  ALA49      -0.1245
     51  CA        16.4220  -22.6240   13.1660 C.3    49  ALA49       0.1562
     52  C         17.1050  -22.5920   11.8040 C.2    49  ALA49       0.2260
     53  O         18.3190  -22.4250   11.7120 O.2    49  ALA49      -0.2867
     54  CB        16.5150  -21.2780   13.8420 C.3    49  ALA49       0.0290
     55  N         17.3260  -20.7620    8.1880 N.3    51  LYS51      -0.1245
     56  CA        16.9930  -19.6210    7.3490 C.3    51  LYS51       0.1561
     57  C         17.0950  -20.0300    5.8870 C.2    51  LYS51       0.2260
     58  O         18.0510  -20.6880    5.4910 O.2    51  LYS51      -0.2867
     59  CB        17.9180  -18.4440    7.6480 C.3    51  LYS51       0.0271
     60  CG        17.6260  -17.2110    6.8210 C.3    51  LYS51       0.0035
     61  CD        18.2550  -15.9750    7.4390 C.3    51  LYS51       0.0206
     62  CE        19.7600  -16.1290    7.5810 C.3    51  LYS51       0.1093
     63  NZ        20.3670  -14.9970    8.3390 N.3    51  LYS51      -0.1314
     64  N         25.0450  -16.3440   18.4610 N.3    80  VAL80      -0.1245
     65  CA        24.1400  -17.3670   17.9590 C.3    80  VAL80       0.1561
     66  C         24.9250  -18.3720   17.1090 C.2    80  VAL80       0.2260
     67  O         25.5580  -18.0050   16.1210 O.2    80  VAL80      -0.2867
     68  CB        22.9970  -16.7550   17.1320 C.3    80  VAL80       0.0252
     69  CG1       22.1120  -17.8450   16.5620 C.3    80  VAL80       0.0019
     70  CG2       22.1720  -15.7890   17.9870 C.3    80  VAL80       0.0019
     71  N         20.9080  -22.5310   11.9630 N.3    96  MET96      -0.1230
     72  CA        21.3850  -21.8440   13.1530 C.3    96  MET96       0.1702
     73  C         20.7110  -22.4450   14.3800 C.2    96  MET96       0.2592
     74  O         19.6990  -23.1370   14.2620 O.2    96  MET96      -0.2718
     75  CB        21.0100  -20.3650   13.0720 C.3    96  MET96       0.0401
     76  CG        21.3200  -19.7040   11.7420 C.3    96  MET96       0.0596
     77  SD        23.0480  -19.2420   11.6470 S.3    96  MET96      -0.1393
     78  CE        23.2220  -18.2770   13.1430 C.3    96  MET96       0.0692
     79  N         21.2510  -22.1680   15.5620 N.am   97  GLU97      -0.1966
     80  CA        20.5770  -22.5870   16.7780 C.3    97  GLU97       0.1733
     81  C         19.2790  -21.8060   16.9500 C.2    97  GLU97       0.2616
     82  O         19.1370  -20.6880   16.4480 O.2    97  GLU97      -0.2715
     83  CB        21.4710  -22.4150   18.0050 C.3    97  GLU97       0.0429
     84  CG        21.8770  -20.9960   18.3010 C.3    97  GLU97       0.1163
     85  CD        22.4580  -20.8500   19.6900 C.2    97  GLU97       0.3649
     86  OE1       23.6470  -20.4910   19.8100 O.co2  97  GLU97      -0.2457
     87  OE2       21.7260  -21.0970   20.6680 O.co2  97  GLU97      -0.2457
     88  N         18.3260  -22.4120   17.6480 N.am   98  TYR98      -0.1960
     89  CA        17.0320  -21.7920   17.8670 C.3    98  TYR98       0.1771
     90  C         17.0230  -21.0870   19.2150 C.2    98  TYR98       0.2619
     91  O         17.3330  -21.6880   20.2420 O.2    98  TYR98      -0.2715
     92  CB        15.9210  -22.8430   17.7850 C.3    98  TYR98       0.0574
     93  CG        14.5190  -22.3270   18.0710 C.ar   98  TYR98      -0.0198
     94  CD1       13.9730  -21.2810   17.3310 C.ar   98  TYR98      -0.0009
     95  CD2       13.7340  -22.9060   19.0620 C.ar   98  TYR98      -0.0009
     96  CE1       12.6910  -20.8170   17.5750 C.ar   98  TYR98       0.0417
     97  CE2       12.4500  -22.4520   19.3170 C.ar   98  TYR98       0.0417
     98  CZ        11.9330  -21.4050   18.5730 C.ar   98  TYR98       0.1957
     99  OH        10.6550  -20.9430   18.8320 O.3    98  TYR98      -0.2866
    100  N         16.7120  -19.7960   19.1920 N.am   99  LEU99      -0.1963
    101  CA        16.4510  -19.0440   20.4100 C.3    99  LEU99       0.1728
    102  C         14.9900  -18.6310   20.3900 C.2    99  LEU99       0.2616
    103  O         14.5630  -17.8780   19.5140 O.2    99  LEU99      -0.2715
    104  CB        17.3640  -17.8240   20.5220 C.3    99  LEU99       0.0311
    105  CG        18.8190  -18.1170   20.9000 C.3    99  LEU99       0.0022
    106  CD1       19.6520  -18.4990   19.6800 C.3    99  LEU99       0.0001
    107  CD2       19.4290  -16.9250   21.6200 C.3    99  LEU99       0.0001
    108  N         14.2300  -19.1410   21.3540 N.am  100  ALA100     -0.1977
    109  CA        12.7740  -19.0030   21.3580 C.3   100  ALA100      0.1597
    110  C         12.2420  -17.7400   22.0470 C.2   100  ALA100      0.2287
    111  O         11.0450  -17.4510   21.9770 O.2   100  ALA100     -0.2864
    112  CB        12.1370  -20.2450   21.9800 C.3   100  ALA100      0.0319
    113  N         12.7270  -14.6970   21.2680 N.3   102  GLY102     -0.1225
    114  CA        12.5970  -13.5670   20.3670 C.3   102  GLY102      0.1811
    115  C         13.7740  -12.6080   20.4360 C.2   102  GLY102      0.2280
    116  O         14.8470  -12.9460   20.9390 O.2   102  GLY102     -0.2866
    117  N         11.7140   -6.7270   20.3710 N.3   106  ASP106     -0.1239
    118  CA        10.3900   -7.0080   20.9290 C.3   106  ASP106      0.1674
    119  C         10.3030   -6.4900   22.3530 C.2   106  ASP106      0.2266
    120  O          9.3120   -5.8910   22.7530 O.2   106  ASP106     -0.2867
    121  CB        10.1080   -8.5090   20.9180 C.3   106  ASP106      0.1410
    122  CG        10.1280   -9.0910   19.5230 C.2   106  ASP106      0.3668
    123  OD1        9.7640   -8.3590   18.5770 O.co2 106  ASP106     -0.2456
    124  OD2       10.5090  -10.2710   19.3720 O.co2 106  ASP106     -0.2456
    125  N         22.6230   -3.7870   16.7030 N.3   143  LYS143     -0.1245
    126  CA        21.3570   -3.1510   17.0460 C.3   143  LYS143      0.1561
    127  C         20.4770   -4.2020   17.7130 C.2   143  LYS143      0.2260
    128  O         20.7880   -5.3920   17.6510 O.2   143  LYS143     -0.2867
    129  CB        20.6750   -2.6100   15.7970 C.3   143  LYS143      0.0271
    130  CG        20.5030   -3.6450   14.7100 C.3   143  LYS143      0.0035
    131  CD        19.7640   -3.0760   13.5200 C.3   143  LYS143      0.0206
    132  CE        19.7970   -4.0390   12.3480 C.3   143  LYS143      0.1093
    133  NZ        19.0970   -3.4760   11.1570 N.3   143  LYS143     -0.1314
    134  N         17.7100   -5.5390   17.0100 N.3   145  ASP145     -0.1225
    135  CA        17.1640   -6.5450   16.0920 C.3   145  ASP145      0.1805
    136  C         18.0920   -7.7480   15.9310 C.2   145  ASP145      0.2597
    137  O         17.6420   -8.8530   15.6220 O.2   145  ASP145     -0.2718
    138  CB        16.8710   -5.9370   14.7130 C.3   145  ASP145      0.1424
    139  CG        16.1780   -4.5890   14.8000 C.2   145  ASP145      0.3668
    140  OD1       15.1690   -4.3800   14.0910 O.co2 145  ASP145     -0.2456
    141  OD2       16.6540   -3.7310   15.5710 O.co2 145  ASP145     -0.2456
    142  N         19.3850   -7.5300   16.1450 N.am  146  ASN146     -0.1974
    143  CA        20.3690   -8.5920   15.9720 C.3   146  ASN146      0.1688
    144  C         20.7900   -9.2450   17.2810 C.2   146  ASN146      0.2292
    145  O         21.7590  -10.0060   17.3290 O.2   146  ASN146     -0.2864
    146  CB        21.5730   -8.0840   15.1770 C.3   146  ASN146      0.1181
    147  CG        21.2100   -7.7630   13.7440 C.2   146  ASN146      0.2629
    148  OD1       20.3120   -8.3870   13.1680 O.2   146  ASN146     -0.2716
    149  ND2       21.8910   -6.7800   13.1600 N.am  146  ASN146     -0.0877
    150  N         19.3870  -11.8570   19.9700 N.3   148  LEU148     -0.1245
    151  CA        18.3680  -12.8630   20.2030 C.3   148  LEU148      0.1561
    152  C         18.3630  -13.3050   21.6620 C.2   148  LEU148      0.2260
    153  O         19.3910  -13.2580   22.3430 O.2   148  LEU148     -0.2867
    154  CB        18.5620  -14.0590   19.2750 C.3   148  LEU148      0.0270
    155  CG        18.3550  -13.7910   17.7860 C.3   148  LEU148      0.0019
    156  CD1       18.0560  -15.0900   17.0680 C.3   148  LEU148      0.0001
    157  CD2       17.2470  -12.7840   17.5530 C.3   148  LEU148      0.0001
    158  N         23.7060  -12.0090   16.6080 N.3   158  THR158     -0.1203
    159  CA        23.5730  -12.6300   15.2940 C.3   158  THR158      0.1994
    160  C         23.7840  -11.6240   14.1450 C.2   158  THR158      0.2617
    161  O         24.1680  -10.4730   14.3790 O.2   158  THR158     -0.2717
    162  CB        22.2090  -13.3470   15.1390 C.3   158  THR158      0.1784
    163  OG1       22.2640  -14.2460   14.0240 O.3   158  THR158     -0.2211
    164  CG2       21.0830  -12.3410   14.9230 C.3   158  THR158      0.0376
    165  N         23.5490  -12.0840   12.9140 N.am  159  ASP159     -0.1973
    166  CA        23.6200  -11.2550   11.7000 C.3   159  ASP159      0.1709
    167  C         25.0320  -10.7450   11.3620 C.2   159  ASP159      0.2293
    168  O         25.4030   -9.6220   11.7040 O.2   159  ASP159     -0.2864
    169  CB        22.6170  -10.0980   11.7680 C.3   159  ASP159      0.1436
    170  CG        22.5510   -9.2970   10.4750 C.2   159  ASP159      0.3671
    171  OD1       21.6320   -9.5450    9.6670 O.co2 159  ASP159     -0.2456
    172  OD2       23.4070   -8.4120   10.2700 O.co2 159  ASP159     -0.2456
    173  N          5.9460  -11.1620   24.1950 N.3   290  LYS290     -0.1245
    174  CA         5.0720  -12.1620   23.5720 C.3   290  LYS290      0.1561
    175  C          3.6060  -11.7420   23.6200 C.2   290  LYS290      0.2260
    176  O          2.9330  -11.7080   22.5890 O.2   290  LYS290     -0.2867
    177  CB         5.2140  -13.5200   24.2660 C.3   290  LYS290      0.0271
    178  CG         6.6030  -14.1120   24.2520 C.3   290  LYS290      0.0035
    179  CD         6.9990  -14.5390   22.8530 C.3   290  LYS290      0.0206
    180  CE         8.2950  -15.3440   22.8570 C.3   290  LYS290      0.1093
    181  NZ         8.7250  -15.6500   21.4700 N.3   290  LYS290     -0.1314
@<TRIPOS>BOND
     1    32    33    1
     2    32    28   am
     3    33    34    1
     4    27    26    1
     5    27    28    1
     6    27    30    1
     7    42    40    1
     8    25    24    2
     9    28    29    2
    10    41    40    1
    11    21    19   am
    12    34    36   am
    13    34    35    2
    14    24    23    1
    15    30    31    1
    16    36    37    1
    17    40    37    1
    18    19    20    2
    19    19    18    1
    20    58    57    2
    21    37    38    1
    22    57    56    1
    23    17    18    1
    24    17    14    1
    25    23    22    1
    26    16    15    2
    27    39    38    2
    28    15    22   am
    29    15    14    1
    30    38    43   am
    31    14    13    1
    32    60    61    1
    33    60    59    1
    34    56    59    1
    35    56    55    1
    36    61    62    1
    37    62    63    1
    38    43    44    1
    39    12    11    2
    40    13    11   am
    41    11    10    1
    42    44    45    1
    43    44    47    1
    44    45    46    2
    45   171   170   ar
    46    49    47    1
    47    10     9    1
    48   172   170   ar
    49    47    48    1
    50   170   169    1
    51     9     3   am
    52     1     2    1
    53   133   132    1
    54   167   166    1
    55   167   168    2
    56    77    76    1
    57    77    78    1
    58   166   169    1
    59   166   165    1
    60    53    52    2
    61    76    75    1
    62    52    51    1
    63     3     2    1
    64     3     4    2
    65    71    72    1
    66     2     5    1
    67   132   131    1
    68   165   160   am
    69    75    72    1
    70    72    73    1
    71   149   147   am
    72    51    54    1
    73    51    50    1
    74   148   147    2
    75     5     6    1
    76     5     7    1
    77   131   130    1
    78   147   146    1
    79     6     8    1
    80   163   162    1
    81   140   139   ar
    82   160   161    2
    83   160   159    1
    84    74    73    2
    85    73    79   am
    86   130   129    1
    87   138   139    1
    88   138   135    1
    89   139   141   ar
    90   164   162    1
    91   162   159    1
    92   146   143    1
    93   159   158    1
    94    79    80    1
    95   137   136    2
    96   129   126    1
    97   136   135    1
    98   136   142   am
    99   143   142    1
   100   143   144    1
   101   135   134    1
   102    67    66    2
   103    82    81    2
   104    69    68    1
   105   125   126    1
   106    80    81    1
   107    80    83    1
   108    81    88   am
   109   126   127    1
   110   156   155    1
   111    66    65    1
   112    68    65    1
   113    68    70    1
   114   144   145    2
   115    94    96   ar
   116    94    93   ar
   117   157   155    1
   118    96    98   ar
   119    88    89    1
   120   128   127    2
   121    92    89    1
   122    92    93    1
   123   155   154    1
   124    89    90    1
   125    65    64    1
   126    83    84    1
   127    93    95   ar
   128    84    85    1
   129    98    99    1
   130    98    97   ar
   131   123   122   ar
   132    95    97   ar
   133   100    90   am
   134   100   101    1
   135    90    91    2
   136   154   151    1
   137   124   122   ar
   138   103   102    2
   139   122   121    1
   140   106   105    1
   141    85    86   ar
   142    85    87   ar
   143   150   151    1
   144   151   152    1
   145   114   115    1
   146   114   113    1
   147   117   118    1
   148   102   101    1
   149   102   108   am
   150   101   104    1
   151   115   116    2
   152   104   105    1
   153   105   107    1
   154   121   118    1
   155   118   119    1
   156   108   109    1
   157   109   112    1
   158   109   110    1
   159   181   180    1
   160   152   153    2
   161   111   110    2
   162   119   120    2
   163   176   175    2
   164   179   180    1
   165   179   178    1
   166   174   175    1
   167   174   173    1
   168   174   177    1
   169   178   177    1
