@<TRIPOS>MOLECULE
tmp/4o0tA00.pdb
 200 190 0 0 0
SMALL
GASTEIGER

@<TRIPOS>ATOM
      1  N          8.9730  -18.8170   10.3450 N.3    26  ILE26      -0.1231
      2  CA         8.9320  -17.9890   11.5500 C.3    26  ILE26       0.1692
      3  C          9.5040  -16.5870   11.3350 C.2    26  ILE26       0.2592
      4  O          9.6580  -15.8250   12.2880 O.2    26  ILE26      -0.2718
      5  CB         9.6820  -18.6470   12.7320 C.3    26  ILE26       0.0266
      6  CG1       11.1920  -18.6520   12.4740 C.3    26  ILE26       0.0019
      7  CG2        9.1540  -20.0520   12.9910 C.3    26  ILE26       0.0020
      8  CD1       12.0220  -19.0050   13.6910 C.3    26  ILE26       0.0001
      9  N          9.8180  -16.2480   10.0900 N.am   27  GLY27      -0.1957
     10  CA        10.3780  -14.9430    9.7890 C.3    27  GLY27       0.1869
     11  C         10.6540  -14.7130    8.3160 C.2    27  GLY27       0.2309
     12  O         10.8100  -15.6610    7.5460 O.2    27  GLY27      -0.2863
     13  N         17.3460  -10.6430    5.1700 N.3    31  SER31      -0.1202
     14  CA        18.3000  -11.7360    5.2850 C.3    31  SER31       0.2020
     15  C         17.7210  -13.0170    4.6970 C.2    31  SER31       0.2619
     16  O         18.4050  -14.0390    4.6160 O.2    31  SER31      -0.2717
     17  CB        18.6740  -11.9610    6.7510 C.3    31  SER31       0.2103
     18  OG        18.9880  -10.7390    7.3940 O.3    31  SER31      -0.2182
     19  N         16.4570  -12.9570    4.2890 N.am   32  GLY32      -0.1956
     20  CA        15.7890  -14.1070    3.7090 C.3    32  GLY32       0.1869
     21  C         14.7680  -14.7140    4.6500 C.2    32  GLY32       0.2309
     22  O         14.6990  -14.3420    5.8220 O.2    32  GLY32      -0.2863
     23  N         13.0330  -17.2300    7.1670 N.3    34  VAL34      -0.1245
     24  CA        13.5650  -18.0600    8.2390 C.3    34  VAL34       0.1561
     25  C         12.5650  -19.1260    8.6740 C.2    34  VAL34       0.2260
     26  O         11.3960  -18.8350    8.9210 O.2    34  VAL34      -0.2867
     27  CB        13.9660  -17.2050    9.4540 C.3    34  VAL34       0.0252
     28  CG1       14.6070  -18.0690   10.5280 C.3    34  VAL34       0.0019
     29  CG2       14.9120  -16.0990    9.0200 C.3    34  VAL34       0.0019
     30  N         17.2350  -23.6300   13.1890 N.3    47  ALA47      -0.1245
     31  CA        16.7020  -22.5430   12.3870 C.3    47  ALA47       0.1562
     32  C         17.3780  -22.5590   11.0220 C.2    47  ALA47       0.2260
     33  O         18.6020  -22.6650   10.9290 O.2    47  ALA47      -0.2867
     34  CB        16.9370  -21.2150   13.0790 C.3    47  ALA47       0.0290
     35  N         17.6420  -20.3250    7.5720 N.3    49  LYS49      -0.1245
     36  CA        17.3990  -19.0870    6.8440 C.3    49  LYS49       0.1561
     37  C         17.6690  -19.3080    5.3580 C.2    49  LYS49       0.2260
     38  O         18.6320  -19.9790    4.9930 O.2    49  LYS49      -0.2867
     39  CB        18.3060  -17.9830    7.3880 C.3    49  LYS49       0.0271
     40  CG        18.0950  -16.6180    6.7640 C.3    49  LYS49       0.0035
     41  CD        19.0860  -15.6100    7.3280 C.3    49  LYS49       0.0206
     42  CE        20.5220  -16.0450    7.0670 C.3    49  LYS49       0.1093
     43  NZ        21.5080  -15.0550    7.5800 N.3    49  LYS49      -0.1314
     44  N         29.4980  -14.0060    5.5660 N.3    65  GLU65      -0.1231
     45  CA        28.7100  -14.4610    6.7040 C.3    65  GLU65       0.1699
     46  C         29.1260  -15.8660    7.1340 C.2    65  GLU65       0.2592
     47  O         29.4360  -16.0950    8.3050 O.2    65  GLU65      -0.2718
     48  CB        27.2160  -14.4360    6.3760 C.3    65  GLU65       0.0402
     49  CG        26.3180  -14.7680    7.5620 C.3    65  GLU65       0.1161
     50  CD        24.8560  -14.8850    7.1740 C.2    65  GLU65       0.3649
     51  OE1       24.0020  -14.2790    7.8560 O.co2  65  GLU65      -0.2457
     52  OE2       24.5610  -15.5900    6.1860 O.co2  65  GLU65      -0.2457
     53  N         29.1360  -16.7970    6.1820 N.am   66  ILE66      -0.1980
     54  CA        29.4500  -18.1950    6.4720 C.3    66  ILE66       0.1595
     55  C         30.8740  -18.3690    6.9880 C.2    66  ILE66       0.2287
     56  O         31.1040  -19.0540    7.9860 O.2    66  ILE66      -0.2864
     57  CB        29.2910  -19.0940    5.2290 C.3    66  ILE66       0.0276
     58  CG1       27.9540  -18.8380    4.5320 C.3    66  ILE66       0.0022
     59  CG2       29.4270  -20.5610    5.6180 C.3    66  ILE66       0.0022
     60  CD1       26.7730  -19.3850    5.2730 C.3    66  ILE66       0.0001
     61  N         31.4720  -16.6550   10.5220 N.3    69  MET69      -0.1245
     62  CA        30.6790  -17.2510   11.5940 C.3    69  MET69       0.1570
     63  C         31.0330  -18.6920   11.9330 C.2    69  MET69       0.2261
     64  O         31.0040  -19.0730   13.1010 O.2    69  MET69      -0.2867
     65  CB        29.1810  -17.1110   11.3200 C.3    69  MET69       0.0387
     66  CG        28.6430  -15.7180   11.6090 C.3    69  MET69       0.0595
     67  SD        29.0980  -15.1180   13.2530 S.3    69  MET69      -0.1393
     68  CE        30.4970  -14.0610   12.8770 C.3    69  MET69       0.0692
     69  N         24.0880  -16.6290   18.2430 N.3    78  VAL78      -0.1231
     70  CA        23.4350  -17.7420   17.5650 C.3    78  VAL78       0.1692
     71  C         24.4730  -18.4510   16.7030 C.2    78  VAL78       0.2592
     72  O         25.0840  -17.8370   15.8290 O.2    78  VAL78      -0.2718
     73  CB        22.2610  -17.2710   16.6920 C.3    78  VAL78       0.0266
     74  CG1       21.8360  -18.3740   15.7320 C.3    78  VAL78       0.0020
     75  CG2       21.0990  -16.8410   17.5680 C.3    78  VAL78       0.0020
     76  N         24.6810  -19.7390   16.9560 N.am   79  ASN79      -0.1960
     77  CA        25.8090  -20.4480   16.3530 C.3    79  ASN79       0.1819
     78  C         25.5240  -21.1870   15.0440 C.2    79  ASN79       0.2621
     79  O         24.5660  -21.9550   14.9380 O.2    79  ASN79      -0.2715
     80  CB        26.4630  -21.3870   17.3690 C.3    79  ASN79       0.1195
     81  CG        27.2640  -20.6380   18.4170 C.2    79  ASN79       0.2630
     82  OD1       27.6910  -19.5060   18.1950 O.2    79  ASN79      -0.2716
     83  ND2       27.4740  -21.2700   19.5650 N.am   79  ASN79      -0.0877
     84  N         26.3850  -20.9410   14.0590 N.am   80  TYR80      -0.1974
     85  CA        26.3150  -21.5790   12.7490 C.3    80  TYR80       0.1639
     86  C         26.4630  -23.0930   12.8650 C.2    80  TYR80       0.2290
     87  O         27.3290  -23.5860   13.5860 O.2    80  TYR80      -0.2864
     88  CB        27.4120  -21.0000   11.8460 C.3    80  TYR80       0.0560
     89  CG        27.5940  -21.6900   10.5080 C.ar   80  TYR80      -0.0198
     90  CD1       28.5090  -22.7280   10.3560 C.ar   80  TYR80      -0.0009
     91  CD2       26.8710  -21.2890    9.3910 C.ar   80  TYR80      -0.0009
     92  CE1       28.6870  -23.3540    9.1380 C.ar   80  TYR80       0.0417
     93  CE2       27.0440  -21.9140    8.1650 C.ar   80  TYR80       0.0417
     94  CZ        27.9530  -22.9430    8.0460 C.ar   80  TYR80       0.1957
     95  OH        28.1320  -23.5660    6.8330 O.3    80  TYR80      -0.2866
     96  N         21.1420  -21.4830    5.2970 N.3    92  VAL92      -0.1245
     97  CA        22.0640  -21.4510    6.4220 C.3    92  VAL92       0.1561
     98  C         21.4220  -22.0930    7.6490 C.2    92  VAL92       0.2260
     99  O         20.3820  -21.6400    8.1300 O.2    92  VAL92      -0.2867
    100  CB        22.5150  -20.0180    6.7580 C.3    92  VAL92       0.0252
    101  CG1       23.4970  -20.0280    7.9210 C.3    92  VAL92       0.0019
    102  CG2       23.1430  -19.3640    5.5370 C.3    92  VAL92       0.0019
    103  N         21.4330  -22.9990   11.5630 N.3    94  MET94      -0.1230
    104  CA        21.9650  -22.4260   12.7900 C.3    94  MET94       0.1702
    105  C         21.1320  -22.8670   13.9880 C.2    94  MET94       0.2592
    106  O         20.0750  -23.4740   13.8240 O.2    94  MET94      -0.2718
    107  CB        21.9680  -20.9020   12.6910 C.3    94  MET94       0.0401
    108  CG        20.5880  -20.2810   12.8230 C.3    94  MET94       0.0596
    109  SD        20.4920  -18.6230   12.1260 S.3    94  MET94      -0.1393
    110  CE        20.1490  -18.9990   10.4090 C.3    94  MET94       0.0692
    111  N         21.6160  -22.5640   15.1880 N.am   95  GLU95      -0.1966
    112  CA        20.8830  -22.8750   16.4100 C.3    95  GLU95       0.1733
    113  C         19.5570  -22.1290   16.4640 C.2    95  GLU95       0.2616
    114  O         19.3470  -21.1580   15.7410 O.2    95  GLU95      -0.2715
    115  CB        21.7130  -22.5220   17.6450 C.3    95  GLU95       0.0429
    116  CG        23.0660  -23.2020   17.6980 C.3    95  GLU95       0.1163
    117  CD        23.7660  -23.0050   19.0290 C.2    95  GLU95       0.3649
    118  OE1       24.1580  -24.0200   19.6440 O.co2  95  GLU95      -0.2457
    119  OE2       23.9270  -21.8390   19.4560 O.co2  95  GLU95      -0.2457
    120  N         18.6650  -22.5950   17.3240 N.am   96  TYR96      -0.1960
    121  CA        17.3860  -21.9300   17.5300 C.3    96  TYR96       0.1771
    122  C         17.0570  -21.8100   19.0140 C.2    96  TYR96       0.2619
    123  O         17.2190  -22.7660   19.7730 O.2    96  TYR96      -0.2715
    124  CB        16.2620  -22.6830   16.8070 C.3    96  TYR96       0.0574
    125  CG        14.8710  -22.2090   17.1740 C.ar   96  TYR96      -0.0198
    126  CD1       14.3330  -21.0660   16.6000 C.ar   96  TYR96      -0.0009
    127  CD2       14.0960  -22.9070   18.0940 C.ar   96  TYR96      -0.0009
    128  CE1       13.0630  -20.6270   16.9320 C.ar   96  TYR96       0.0417
    129  CE2       12.8250  -22.4740   18.4330 C.ar   96  TYR96       0.0417
    130  CZ        12.3150  -21.3340   17.8480 C.ar   96  TYR96       0.1957
    131  OH        11.0510  -20.8980   18.1810 O.3    96  TYR96      -0.2866
    132  N         16.6170  -20.6240   19.4250 N.am   97  LEU97      -0.1963
    133  CA        15.9720  -20.4590   20.7230 C.3    97  LEU97       0.1728
    134  C         14.6410  -19.7440   20.5460 C.2    97  LEU97       0.2616
    135  O         14.5330  -18.8010   19.7610 O.2    97  LEU97      -0.2715
    136  CB        16.8710  -19.7490   21.7510 C.3    97  LEU97       0.0311
    137  CG        17.4900  -18.3560   21.5770 C.3    97  LEU97       0.0022
    138  CD1       16.4660  -17.2330   21.6230 C.3    97  LEU97       0.0001
    139  CD2       18.5270  -18.1400   22.6670 C.3    97  LEU97       0.0001
    140  N         13.6240  -20.2090   21.2630 N.am   98  ALA98      -0.1963
    141  CA        12.3050  -19.6010   21.1830 C.3    98  ALA98       0.1728
    142  C         12.1930  -18.4480   22.1750 C.2    98  ALA98       0.2617
    143  O         12.8360  -18.4610   23.2250 O.2    98  ALA98      -0.2715
    144  CB        11.2300  -20.6430   21.4450 C.3    98  ALA98       0.0334
    145  N         11.3940  -17.4410   21.8350 N.am   99  GLY99      -0.1940
    146  CA        11.1350  -16.3570   22.7640 C.3    99  GLY99       0.2014
    147  C         11.3590  -14.9430   22.2600 C.2    99  GLY99       0.2639
    148  O         11.8710  -14.0990   22.9930 O.2    99  GLY99      -0.2714
    149  N         10.9820  -14.6830   21.0120 N.am  100  GLY100     -0.1939
    150  CA        10.9250  -13.3290   20.4820 C.3   100  GLY100      0.2014
    151  C         12.1950  -12.4940   20.4720 C.2   100  GLY100      0.2639
    152  O         13.2090  -12.8430   21.0800 O.2   100  GLY100     -0.2714
    153  N         12.1300  -11.3690   19.7670 N.am  101  SER101     -0.1949
    154  CA        13.2470  -10.4360   19.7070 C.3   101  SER101      0.1924
    155  C         13.1650   -9.4260   20.8420 C.2   101  SER101      0.2314
    156  O         12.1290   -9.2900   21.4910 O.2   101  SER101     -0.2863
    157  CB        13.2590   -9.6950   18.3690 C.3   101  SER101      0.2116
    158  OG        12.1020   -8.8890   18.2240 O.3   101  SER101     -0.2180
    159  N         16.4610   -5.5810   17.0030 N.3   143  ASP143     -0.1239
    160  CA        15.9570   -6.5680   16.0530 C.3   143  ASP143      0.1674
    161  C         16.8970   -7.7630   15.9500 C.2   143  ASP143      0.2266
    162  O         16.4770   -8.8720   15.6190 O.2   143  ASP143     -0.2867
    163  CB        15.7850   -5.9360   14.6720 C.3   143  ASP143      0.1410
    164  CG        15.0850   -4.5940   14.7290 C.2   143  ASP143      0.3668
    165  OD1       13.9500   -4.4850   14.2150 O.co2 143  ASP143     -0.2456
    166  OD2       15.6720   -3.6470   15.2930 O.co2 143  ASP143     -0.2456
    167  N         18.2140  -11.7380   20.3520 N.3   146  LEU146     -0.1245
    168  CA        17.2320  -12.7850   20.6060 C.3   146  LEU146      0.1561
    169  C         17.1750  -13.1300   22.0870 C.2   146  LEU146      0.2260
    170  O         18.2000  -13.1500   22.7690 O.2   146  LEU146     -0.2867
    171  CB        17.5570  -14.0310   19.7840 C.3   146  LEU146      0.0270
    172  CG        17.4020  -13.8690   18.2720 C.3   146  LEU146      0.0019
    173  CD1       17.9370  -15.0870   17.5400 C.3   146  LEU146      0.0001
    174  CD2       15.9450  -13.6310   17.9130 C.3   146  LEU146      0.0001
    175  N         22.4650  -11.9270   16.8090 N.3   156  THR156     -0.1203
    176  CA        22.1700  -12.6540   15.5760 C.3   156  THR156      0.1994
    177  C         22.3450  -11.8050   14.3060 C.2   156  THR156      0.2618
    178  O         22.7080  -10.6280   14.3760 O.2   156  THR156     -0.2717
    179  CB        20.7510  -13.2670   15.6080 C.3   156  THR156      0.1784
    180  OG1       20.6000  -14.1890   14.5230 O.3   156  THR156     -0.2211
    181  CG2       19.6880  -12.1820   15.5000 C.3   156  THR156      0.0376
    182  N         22.0960  -12.4300   13.1550 N.am  157  ASP157     -0.1959
    183  CA        22.1590  -11.7820   11.8400 C.3   157  ASP157      0.1840
    184  C         23.4910  -11.0950   11.5380 C.2   157  ASP157      0.2622
    185  O         23.6080   -9.8720   11.6200 O.2   157  ASP157     -0.2715
    186  CB        21.0050  -10.7950   11.6580 C.3   157  ASP157      0.1450
    187  CG        20.6370  -10.5970   10.2010 C.2   157  ASP157      0.3671
    188  OD1       21.4310  -11.0050    9.3260 O.co2 157  ASP157     -0.2456
    189  OD2       19.5560  -10.0330    9.9290 O.co2 157  ASP157     -0.2456
    190  N         24.4870  -11.8880   11.1630 N.am  158  PHE158     -0.1974
    191  CA        25.8100  -11.3570   10.8550 C.3   158  PHE158      0.1639
    192  C         25.9970  -11.1160    9.3580 C.2   158  PHE158      0.2290
    193  O         27.0910  -11.2830    8.8280 O.2   158  PHE158     -0.2864
    194  CB        26.8990  -12.2890   11.3930 C.3   158  PHE158      0.0560
    195  CG        27.0610  -12.2290   12.8870 C.ar  158  PHE158     -0.0200
    196  CD1       28.1690  -11.6220   13.4520 C.ar  158  PHE158     -0.0042
    197  CD2       26.0950  -12.7620   13.7260 C.ar  158  PHE158     -0.0042
    198  CE1       28.3200  -11.5610   14.8250 C.ar  158  PHE158     -0.0003
    199  CE2       26.2370  -12.7010   15.0990 C.ar  158  PHE158     -0.0003
    200  CZ        27.3500  -12.0990   15.6500 C.ar  158  PHE158     -0.0000
@<TRIPOS>BOND
     1    20    19    1
     2    20    21    1
     3    19    15   am
     4    58    57    1
     5    58    60    1
     6    16    15    2
     7    21    22    2
     8    15    14    1
     9    38    37    2
    10    13    14    1
    11    57    59    1
    12    57    54    1
    13    14    17    1
    14    96    97    1
    15    37    36    1
    16   102   100    1
    17    44    45    1
    18    53    54    1
    19    53    46   am
    20    52    50   ar
    21    48    45    1
    22    48    49    1
    23    97   100    1
    24    97    98    1
    25    54    55    1
    26    45    46    1
    27    17    18    1
    28   100   101    1
    29    40    41    1
    30    40    39    1
    31    95    94    1
    32    36    39    1
    33    36    35    1
    34    55    56    2
    35    42    41    1
    36    42    43    1
    37    46    47    2
    38    23    24    1
    39    50    49    1
    40    50    51   ar
    41    12    11    2
    42    98    99    2
    43    94    93   ar
    44    94    92   ar
    45    93    91   ar
    46    24    25    1
    47    24    27    1
    48    11    10    1
    49    25    26    2
    50   193   192    2
    51    29    27    1
    52    92    90   ar
    53   188   187   ar
    54   192   191    1
    55    91    89   ar
    56    27    28    1
    57    10     9    1
    58   189   187   ar
    59     9     3   am
    60   187   186    1
    61     1     2    1
    62    90    89   ar
    63   110   109    1
    64    89    88    1
    65    61    62    1
    66   191   190    1
    67   191   194    1
    68    33    32    2
    69    32    31    1
    70   190   184   am
    71    65    62    1
    72    65    66    1
    73     3     2    1
    74     3     4    2
    75   194   195    1
    76   184   185    2
    77   184   183    1
    78     2     5    1
    79   103   104    1
    80    62    63    1
    81    66    67    1
    82   186   183    1
    83   183   182    1
    84    88    85    1
    85    63    64    2
    86   109   108    1
    87    31    34    1
    88    31    30    1
    89     6     5    1
    90     6     8    1
    91   107   104    1
    92   107   108    1
    93     5     7    1
    94    85    86    1
    95    85    84    1
    96   104   105    1
    97    86    87    2
    98    68    67    1
    99   195   196   ar
   100   195   197   ar
   101   182   177   am
   102   196   198   ar
   103   197   199   ar
   104   106   105    2
   105   105   111   am
   106    84    78   am
   107   165   164   ar
   108   177   178    2
   109   177   176    1
   110   180   179    1
   111   163   164    1
   112   163   160    1
   113   164   166   ar
   114   198   200   ar
   115    79    78    2
   116    78    77    1
   117   199   200   ar
   118   111   112    1
   119   181   179    1
   120   176   179    1
   121   176   175    1
   122   162   161    2
   123    74    73    1
   124   114   113    2
   125    72    71    2
   126   161   160    1
   127   160   159    1
   128    77    76    1
   129    77    80    1
   130   112   113    1
   131   112   115    1
   132   113   120   am
   133   126   128   ar
   134   126   125   ar
   135    73    70    1
   136    73    75    1
   137    71    76   am
   138    71    70    1
   139   124   125    1
   140   124   121    1
   141   128   130   ar
   142   125   127   ar
   143   120   121    1
   144    80    81    1
   145   121   122    1
   146   173   172    1
   147    70    69    1
   148   115   116    1
   149   116   117    1
   150   130   131    1
   151   130   129   ar
   152   174   172    1
   153   127   129   ar
   154    82    81    2
   155   158   157    1
   156   172   171    1
   157   157   154    1
   158    81    83   am
   159   122   132   am
   160   122   123    2
   161   117   119   ar
   162   117   118   ar
   163   132   133    1
   164   154   153    1
   165   154   155    1
   166   135   134    2
   167   153   151   am
   168   171   168    1
   169   167   168    1
   170   151   150    1
   171   151   152    2
   172   150   149    1
   173   134   133    1
   174   134   140   am
   175   168   169    1
   176   133   136    1
   177   155   156    2
   178   149   147   am
   179   141   140    1
   180   141   144    1
   181   141   142    1
   182   137   138    1
   183   137   136    1
   184   137   139    1
   185   145   142   am
   186   145   146    1
   187   169   170    2
   188   142   143    2
   189   147   146    1
   190   147   148    2
