@<TRIPOS>MOLECULE
tmp/4o0vA00.pdb
 166 154 0 0 0
SMALL
GASTEIGER

@<TRIPOS>ATOM
      1  N        -41.6750   18.3840  -15.2820 N.3    29  ILE29      -0.1231
      2  CA       -42.0000   17.3740  -14.2790 C.3    29  ILE29       0.1692
      3  C        -41.0240   17.3800  -13.1040 C.2    29  ILE29       0.2593
      4  O        -41.2610   16.7230  -12.0910 O.2    29  ILE29      -0.2718
      5  CB       -42.0050   15.9620  -14.8850 C.3    29  ILE29       0.0266
      6  CG1      -40.6370   15.6410  -15.4920 C.3    29  ILE29       0.0019
      7  CG2      -43.1070   15.8260  -15.9230 C.3    29  ILE29       0.0020
      8  CD1      -40.4760   14.1970  -15.8990 C.3    29  ILE29       0.0001
      9  N        -39.9250   18.1130  -13.2460 N.am   30  GLY30      -0.1942
     10  CA       -38.9150   18.1580  -12.2080 C.3    30  GLY30       0.2014
     11  C        -38.0420   19.3920  -12.2890 C.2    30  GLY30       0.2638
     12  O        -38.1490   20.1800  -13.2280 O.2    30  GLY30      -0.2714
     13  N        -37.1740   19.5560  -11.2960 N.am   31  GLU31      -0.1977
     14  CA       -36.2550   20.6860  -11.2510 C.3    31  GLU31       0.1602
     15  C        -35.0790   20.3640  -10.3310 C.2    31  GLU31       0.2287
     16  O        -34.6340   19.2170  -10.2600 O.2    31  GLU31      -0.2864
     17  CB       -36.9860   21.9420  -10.7770 C.3    31  GLU31       0.0415
     18  CG       -36.4960   23.2270  -11.4220 C.3    31  GLU31       0.1163
     19  CD       -37.5400   24.3240  -11.3930 C.2    31  GLU31       0.3649
     20  OE1      -38.6970   24.0350  -11.0180 O.co2  31  GLU31      -0.2457
     21  OE2      -37.2050   25.4740  -11.7480 O.co2  31  GLU31      -0.2457
     22  N        -29.1140   20.5420  -11.0480 N.3    34  THR34      -0.1218
     23  CA       -28.6700   20.6220  -12.4410 C.3    34  THR34       0.1862
     24  C        -29.5050   21.5860  -13.2890 C.2    34  THR34       0.2287
     25  O        -28.9970   22.5980  -13.7710 O.2    34  THR34      -0.2866
     26  CB       -28.6600   19.2280  -13.1030 C.3    34  THR34       0.1770
     27  OG1      -29.8690   18.5330  -12.7730 O.3    34  THR34      -0.2211
     28  CG2      -27.4680   18.4110  -12.6210 C.3    34  THR34       0.0375
     29  N        -36.3830   19.3820  -15.8120 N.3    37  VAL37      -0.1245
     30  CA       -36.6360   18.1640  -16.5680 C.3    37  VAL37       0.1561
     31  C        -38.0610   18.1870  -17.1030 C.2    37  VAL37       0.2260
     32  O        -39.0190   18.3500  -16.3460 O.2    37  VAL37      -0.2867
     33  CB       -36.4260   16.9000  -15.7040 C.3    37  VAL37       0.0252
     34  CG1      -36.7960   15.6470  -16.4860 C.3    37  VAL37       0.0019
     35  CG2      -34.9890   16.8200  -15.2120 C.3    37  VAL37       0.0019
     36  N        -38.1440   11.9500  -22.1330 N.3    50  ALA50      -0.1245
     37  CA       -37.8810   12.9250  -21.0840 C.3    50  ALA50       0.1562
     38  C        -36.6330   13.7230  -21.4380 C.2    50  ALA50       0.2260
     39  O        -35.6330   13.1570  -21.8830 O.2    50  ALA50      -0.2867
     40  CB       -37.7100   12.2320  -19.7450 C.3    50  ALA50       0.0290
     41  N        -33.8110   16.4550  -20.0570 N.3    52  LYS52      -0.1245
     42  CA       -33.2010   17.2080  -18.9690 C.3    52  LYS52       0.1561
     43  C        -32.4130   18.3850  -19.5300 C.2    52  LYS52       0.2260
     44  O        -31.4930   18.2010  -20.3240 O.2    52  LYS52      -0.2867
     45  CB       -32.2860   16.3190  -18.1230 C.3    52  LYS52       0.0271
     46  CG       -31.7910   16.9920  -16.8520 C.3    52  LYS52       0.0035
     47  CD       -30.5010   16.3700  -16.3450 C.3    52  LYS52       0.0206
     48  CE       -30.6330   14.8790  -16.1090 C.3    52  LYS52       0.1093
     49  NZ       -29.4230   14.3300  -15.4240 N.3    52  LYS52      -0.1314
     50  N        -21.2040   12.8200  -16.9420 N.3    68  GLU68      -0.1245
     51  CA       -22.4940   12.1600  -17.1650 C.3    68  GLU68       0.1567
     52  C        -22.8010   11.7950  -18.6230 C.2    68  GLU68       0.2260
     53  O        -23.2370   10.6760  -18.9070 O.2    68  GLU68      -0.2867
     54  CB       -23.6300   13.0240  -16.6040 C.3    68  GLU68       0.0388
     55  CG       -25.0210   12.4870  -16.9050 C.3    68  GLU68       0.1160
     56  CD       -26.1230   13.3920  -16.3900 C.2    68  GLU68       0.3649
     57  OE1      -25.8690   14.6020  -16.2080 O.co2  68  GLU68      -0.2457
     58  OE2      -27.2440   12.8880  -16.1620 O.co2  68  GLU68      -0.2457
     59  N        -22.3060    7.8720  -19.9270 N.3    72  MET72      -0.1245
     60  CA       -23.5730    7.1700  -20.0860 C.3    72  MET72       0.1570
     61  C        -24.0280    7.2160  -21.5310 C.2    72  MET72       0.2261
     62  O        -25.0980    6.7010  -21.8570 O.2    72  MET72      -0.2867
     63  CB       -24.6570    7.7670  -19.1790 C.3    72  MET72       0.0387
     64  CG       -24.4010    7.6060  -17.6850 C.3    72  MET72       0.0595
     65  SD       -24.2100    5.8890  -17.1630 S.3    72  MET72      -0.1393
     66  CE       -25.7620    5.1860  -17.7200 C.3    72  MET72       0.0692
     67  N        -31.9570    3.7300  -16.5990 N.3    81  VAL81      -0.1245
     68  CA       -32.6290    4.6510  -17.5080 C.3    81  VAL81       0.1561
     69  C        -31.7690    4.8570  -18.7410 C.2    81  VAL81       0.2260
     70  O        -30.6400    5.3400  -18.6450 O.2    81  VAL81      -0.2867
     71  CB       -32.9070    6.0160  -16.8420 C.3    81  VAL81       0.0252
     72  CG1      -33.3790    7.0320  -17.8760 C.3    81  VAL81       0.0019
     73  CG2      -33.9320    5.8630  -15.7310 C.3    81  VAL81       0.0019
     74  N        -30.2590    6.3770  -22.0490 N.3    83  MET83      -0.1245
     75  CA       -30.0440    7.6450  -22.7250 C.3    83  MET83       0.1570
     76  C        -30.1470    7.4660  -24.2350 C.2    83  MET83       0.2261
     77  O        -29.5880    6.5240  -24.8000 O.2    83  MET83      -0.2867
     78  CB       -28.6750    8.2080  -22.3600 C.3    83  MET83       0.0387
     79  CG       -28.2510    9.3880  -23.2000 C.3    83  MET83       0.0595
     80  SD       -26.8190   10.2060  -22.4950 S.3    83  MET83      -0.1393
     81  CE       -26.5490   11.4830  -23.7100 C.3    83  MET83       0.0692
     82  N        -30.2580   16.4780  -22.4910 N.3    95  VAL95      -0.1245
     83  CA       -30.1010   15.0330  -22.4770 C.3    95  VAL95       0.1561
     84  C        -31.4630   14.3930  -22.6970 C.2    95  VAL95       0.2260
     85  O        -32.3600   14.5060  -21.8590 O.2    95  VAL95      -0.2867
     86  CB       -29.4840   14.5400  -21.1480 C.3    95  VAL95       0.0252
     87  CG1      -29.3800   13.0260  -21.1420 C.3    95  VAL95       0.0019
     88  CG2      -28.1160   15.1730  -20.9310 C.3    95  VAL95       0.0019
     89  N        -33.8400   11.2230  -22.9970 N.3    97  MET97      -0.1230
     90  CA       -33.8040    9.8890  -22.4100 C.3    97  MET97       0.1702
     91  C        -35.1750    9.2320  -22.3160 C.2    97  MET97       0.2592
     92  O        -36.2040    9.8520  -22.5860 O.2    97  MET97      -0.2718
     93  CB       -33.1660    9.9410  -21.0170 C.3    97  MET97       0.0401
     94  CG       -34.1440   10.2820  -19.9030 C.3    97  MET97       0.0596
     95  SD       -33.3660   11.0500  -18.4750 S.3    97  MET97      -0.1393
     96  CE       -33.2270   12.7420  -19.0380 C.3    97  MET97       0.0692
     97  N        -35.1540    7.9640  -21.9220 N.am   98  GLU98      -0.1966
     98  CA       -36.3430    7.1450  -21.7400 C.3    98  GLU98       0.1733
     99  C        -37.3130    7.7630  -20.7250 C.2    98  GLU98       0.2616
    100  O        -36.8910    8.2770  -19.6870 O.2    98  GLU98      -0.2715
    101  CB       -35.8880    5.7640  -21.2700 C.3    98  GLU98       0.0429
    102  CG       -36.9470    4.6920  -21.2040 C.3    98  GLU98       0.1163
    103  CD       -36.3750    3.3780  -20.6950 C.2    98  GLU98       0.3649
    104  OE1      -35.1860    3.3610  -20.3030 O.co2  98  GLU98      -0.2457
    105  OE2      -37.1080    2.3660  -20.6890 O.co2  98  GLU98      -0.2457
    106  N        -38.6100    7.7160  -21.0240 N.am   99  PHE99      -0.1960
    107  CA       -39.6170    8.2200  -20.0900 C.3    99  PHE99       0.1771
    108  C        -40.2110    7.1090  -19.2210 C.2    99  PHE99       0.2619
    109  O        -40.7990    6.1510  -19.7260 O.2    99  PHE99      -0.2715
    110  CB       -40.7290    8.9800  -20.8210 C.3    99  PHE99       0.0574
    111  CG       -41.8370    9.4560  -19.9160 C.ar   99  PHE99      -0.0200
    112  CD1      -41.5710   10.3070  -18.8530 C.ar   99  PHE99      -0.0042
    113  CD2      -43.1470    9.0610  -20.1350 C.ar   99  PHE99      -0.0042
    114  CE1      -42.5920   10.7430  -18.0170 C.ar   99  PHE99      -0.0003
    115  CE2      -44.1730    9.4940  -19.3060 C.ar   99  PHE99      -0.0003
    116  CZ       -43.8940   10.3360  -18.2480 C.ar   99  PHE99      -0.0000
    117  N        -40.0500    7.2580  -17.9090 N.am  100  LEU100     -0.1977
    118  CA       -40.5170    6.2760  -16.9370 C.3   100  LEU100      0.1596
    119  C        -41.8540    6.7200  -16.3540 C.2   100  LEU100      0.2287
    120  O        -41.9100    7.5810  -15.4740 O.2   100  LEU100     -0.2864
    121  CB       -39.4810    6.0940  -15.8230 C.3   100  LEU100      0.0297
    122  CG       -38.2420    5.2210  -16.0700 C.3   100  LEU100      0.0022
    123  CD1      -38.6440    3.7730  -16.2770 C.3   100  LEU100      0.0001
    124  CD2      -37.3830    5.7180  -17.2380 C.3   100  LEU100      0.0001
    125  N        -43.0220    7.0670  -12.2740 N.3   103  GLY103     -0.1210
    126  CA       -42.5820    8.0730  -11.3220 C.3   103  GLY103      0.1956
    127  C        -41.3980    7.6470  -10.4680 C.2   103  GLY103      0.2611
    128  O        -40.7580    6.6320  -10.7370 O.2   103  GLY103     -0.2717
    129  N        -41.1070    8.4290   -9.4320 N.am  104  ALA104     -0.1979
    130  CA       -39.9820    8.1450   -8.5430 C.3   104  ALA104      0.1597
    131  C        -40.3940    7.3220   -7.3250 C.2   104  ALA104      0.2287
    132  O        -41.5640    7.3180   -6.9270 O.2   104  ALA104     -0.2864
    133  CB       -39.3130    9.4400   -8.1030 C.3   104  ALA104      0.0319
    134  N        -36.5060    5.2290  -10.5460 N.3   149  LEU149     -0.1245
    135  CA       -37.7420    5.4420  -11.3010 C.3   149  LEU149      0.1561
    136  C        -38.4530    4.1260  -11.6200 C.2   149  LEU149      0.2260
    137  O        -37.8470    3.0550  -11.5870 O.2   149  LEU149     -0.2867
    138  CB       -37.4670    6.2290  -12.5840 C.3   149  LEU149      0.0270
    139  CG       -36.7940    7.5900  -12.3850 C.3   149  LEU149      0.0019
    140  CD1      -36.6030    8.3050  -13.7150 C.3   149  LEU149      0.0001
    141  CD2      -37.5780    8.4550  -11.4020 C.3   149  LEU149      0.0001
    142  N        -31.6090    5.9290  -11.9610 N.3   159  SER159     -0.1202
    143  CA       -31.6320    7.2090  -12.6600 C.3   159  SER159      0.2020
    144  C        -30.6730    8.2300  -12.0430 C.2   159  SER159      0.2619
    145  O        -29.9730    7.9330  -11.0830 O.2   159  SER159     -0.2717
    146  CB       -33.0610    7.7670  -12.6600 C.3   159  SER159      0.2103
    147  OG       -33.1730    8.9280  -13.4660 O.3   159  SER159     -0.2182
    148  N        -30.6530    9.4290  -12.6180 N.am  160  ASP160     -0.1959
    149  CA       -29.8790   10.5680  -12.1180 C.3   160  ASP160      0.1840
    150  C        -28.3970   10.2860  -11.8900 C.2   160  ASP160      0.2622
    151  O        -27.9310   10.2440  -10.7530 O.2   160  ASP160     -0.2715
    152  CB       -30.5070   11.1420  -10.8460 C.3   160  ASP160      0.1450
    153  CG       -30.2210   12.6260  -10.6730 C.2   160  ASP160      0.3671
    154  OD1      -29.1890   13.1000  -11.1980 O.co2 160  ASP160     -0.2456
    155  OD2      -31.0330   13.3180  -10.0200 O.co2 160  ASP160     -0.2456
    156  N        -27.6580   10.1150  -12.9800 N.am  161  PHE161     -0.1974
    157  CA       -26.2140    9.9260  -12.9040 C.3   161  PHE161      0.1639
    158  C        -25.4870   11.2600  -12.9930 C.2   161  PHE161      0.2290
    159  O        -24.3760   11.3330  -13.5080 O.2   161  PHE161     -0.2864
    160  CB       -25.7310    8.9980  -14.0170 C.3   161  PHE161      0.0560
    161  CG       -26.1400    7.5660  -13.8330 C.ar  161  PHE161     -0.0200
    162  CD1      -25.2540    6.6380  -13.3130 C.ar  161  PHE161     -0.0042
    163  CD2      -27.4140    7.1480  -14.1770 C.ar  161  PHE161     -0.0042
    164  CE1      -25.6310    5.3200  -13.1480 C.ar  161  PHE161     -0.0003
    165  CE2      -27.7960    5.8320  -14.0130 C.ar  161  PHE161     -0.0003
    166  CZ       -26.9040    4.9170  -13.4960 C.ar  161  PHE161     -0.0000
@<TRIPOS>BOND
     1    77    76    2
     2    76    75    1
     3    81    80    1
     4    79    80    1
     5    79    78    1
     6    89    90    1
     7    75    78    1
     8    75    74    1
     9    84    83    1
    10    84    85    2
    11    92    91    2
    12    82    83    1
    13    83    86    1
    14    90    91    1
    15    90    93    1
    16    91    97   am
    17    36    37    1
    18    97    98    1
    19    39    38    2
    20    62    61    2
    21    98   101    1
    22    98    99    1
    23    61    60    1
    24    38    37    1
    25   101   102    1
    26   102   103    1
    27    86    87    1
    28    86    88    1
    29    37    40    1
    30   106    99   am
    31   106   107    1
    32    93    94    1
    33   110   107    1
    34   110   111    1
    35    99   100    2
    36   103   105   ar
    37   103   104   ar
    38    44    43    2
    39   113   111   ar
    40   113   115   ar
    41   107   108    1
    42    60    59    1
    43    60    63    1
    44    41    42    1
    45   111   112   ar
    46    94    95    1
    47   109   108    2
    48    43    42    1
    49   115   116   ar
    50   108   117   am
    51    63    64    1
    52    96    95    1
    53    42    45    1
    54    53    52    2
    55   112   114   ar
    56    69    70    2
    57    69    68    1
    58    52    51    1
    59   116   114   ar
    60    45    46    1
    61   117   118    1
    62    72    71    1
    63    66    65    1
    64    64    65    1
    65    68    71    1
    66    68    67    1
    67   124   122    1
    68    51    50    1
    69    51    54    1
    70    31    30    1
    71    31    32    2
    72   118   119    1
    73   118   121    1
    74    55    54    1
    75    55    56    1
    76    46    47    1
    77    71    73    1
    78    30    29    1
    79    30    33    1
    80    34    33    1
    81    56    57   ar
    82    56    58   ar
    83   119   120    2
    84    47    48    1
    85   123   122    1
    86    48    49    1
    87   122   121    1
    88     7     5    1
    89     8     6    1
    90    33    35    1
    91     6     5    1
    92     1     2    1
    93     5     2    1
    94     2     3    1
    95   163   165   ar
    96   163   161   ar
    97   160   161    1
    98   160   157    1
    99   165   166   ar
   100   161   162   ar
   101    25    24    2
   102   140   139    1
   103   159   158    2
   104   166   164   ar
   105   147   146    1
   106   162   164   ar
   107    24    23    1
   108     9     3   am
   109     9    10    1
   110    12    11    2
   111     3     4    2
   112    26    27    1
   113    26    28    1
   114    26    23    1
   115   158   157    1
   116   156   157    1
   117   156   150   am
   118   143   146    1
   119   143   144    1
   120   143   142    1
   121   148   149    1
   122   148   144   am
   123   138   139    1
   124   138   135    1
   125    23    22    1
   126   139   141    1
   127    11    10    1
   128    11    13   am
   129   125   126    1
   130   149   150    1
   131   149   152    1
   132   144   145    2
   133   150   151    2
   134    21    19   ar
   135   136   137    2
   136   136   135    1
   137    18    19    1
   138    18    17    1
   139    19    20   ar
   140   126   127    1
   141   135   134    1
   142    13    14    1
   143    14    17    1
   144    14    15    1
   145   154   153   ar
   146   152   153    1
   147   128   127    2
   148   153   155   ar
   149   127   129   am
   150    15    16    2
   151   129   130    1
   152   130   133    1
   153   130   131    1
   154   131   132    2
