@<TRIPOS>MOLECULE
tmp/4o0wA00.pdb
 137 128 0 0 0
SMALL
GASTEIGER

@<TRIPOS>ATOM
      1  N         -1.0030   28.3540    3.1040 N.3    15  LEU15      -0.1231
      2  CA        -0.1000   29.4910    3.2000 C.3    15  LEU15       0.1693
      3  C          1.0700   29.3340    2.2360 C.2    15  LEU15       0.2593
      4  O          1.5120   30.3010    1.6140 O.2    15  LEU15      -0.2718
      5  CB         0.4050   29.6480    4.6320 C.3    15  LEU15       0.0284
      6  CG        -0.7010   29.9460    5.6360 C.3    15  LEU15       0.0019
      7  CD1       -0.1210   30.1600    7.0090 C.3    15  LEU15       0.0001
      8  CD2       -1.4850   31.1610    5.1950 C.3    15  LEU15       0.0001
      9  N          1.5650   28.1080    2.1160 N.am   16  GLY16      -0.1942
     10  CA         2.7130   27.8390    1.2750 C.3    16  GLY16       0.2014
     11  C          2.7890   26.3960    0.8290 C.2    16  GLY16       0.2639
     12  O          2.2110   25.5020    1.4500 O.2    16  GLY16      -0.2714
     13  N          3.5110   26.1730   -0.2620 N.am   17  LYS17      -0.1963
     14  CA         3.6850   24.8340   -0.8010 C.3    17  LYS17       0.1728
     15  C          5.1350   24.3890   -0.7030 C.2    17  LYS17       0.2616
     16  O          6.0590   25.1660   -0.9450 O.2    17  LYS17      -0.2715
     17  CB         3.2030   24.7690   -2.2550 C.3    17  LYS17       0.0311
     18  CG         3.2990   26.0860   -3.0240 C.3    17  LYS17       0.0038
     19  CD         4.6450   26.2620   -3.7170 C.3    17  LYS17       0.0206
     20  CE         4.6280   27.4710   -4.6470 C.3    17  LYS17       0.1093
     21  NZ         5.9390   27.7020   -5.3180 N.3    17  LYS17      -0.1314
     22  N          5.3260   23.1270   -0.3470 N.am   18  GLY18      -0.1955
     23  CA         6.6520   22.5550   -0.2870 C.3    18  GLY18       0.1869
     24  C          6.5520   21.0870   -0.6250 C.2    18  GLY18       0.2309
     25  O          5.4950   20.4710   -0.4800 O.2    18  GLY18      -0.2863
     26  N          1.8270   24.1680    3.9510 N.3    23  VAL23      -0.1245
     27  CA         1.4830   24.9340    5.1450 C.3    23  VAL23       0.1561
     28  C          0.0960   25.5410    5.0150 C.2    23  VAL23       0.2260
     29  O         -0.2020   26.2320    4.0420 O.2    23  VAL23      -0.2867
     30  CB         2.4920   26.0570    5.4150 C.3    23  VAL23       0.0252
     31  CG1        2.2970   26.6020    6.8170 C.3    23  VAL23       0.0019
     32  CG2        3.9090   25.5450    5.2370 C.3    23  VAL23       0.0019
     33  N         -0.5120   28.9360   11.7660 N.3    36  ALA36      -0.1245
     34  CA        -0.1420   28.1340   10.6090 C.3    36  ALA36       0.1562
     35  C          0.1130   26.6940   11.0260 C.2    36  ALA36       0.2260
     36  O          0.8170   26.4350   12.0000 O.2    36  ALA36      -0.2867
     37  CB         1.0740   28.7060    9.9380 C.3    36  ALA36       0.0290
     38  N          1.7190   23.2080    9.7380 N.3    38  LYS38      -0.1245
     39  CA         2.6160   22.6480    8.7290 C.3    38  LYS38       0.1561
     40  C          2.5160   21.1250    8.6790 C.2    38  LYS38       0.2260
     41  O          2.7770   20.4430    9.6700 O.2    38  LYS38      -0.2867
     42  CB         4.0570   23.0760    9.0050 C.3    38  LYS38       0.0271
     43  CG         5.0760   22.4880    8.0480 C.3    38  LYS38       0.0035
     44  CD         6.4860   22.6930    8.5730 C.3    38  LYS38       0.0206
     45  CE         7.2420   23.7440    7.7770 C.3    38  LYS38       0.1093
     46  NZ         8.5900   24.0010    8.3600 N.3    38  LYS38      -0.1314
     47  N         10.2220   33.0800   14.6290 N.3    70  LEU70      -0.1245
     48  CA         8.8960   32.4860   14.5090 C.3    70  LEU70       0.1561
     49  C          8.6930   31.4120   15.5680 C.2    70  LEU70       0.2260
     50  O          9.5060   30.5020   15.7120 O.2    70  LEU70      -0.2867
     51  CB         8.6830   31.8910   13.1170 C.3    70  LEU70       0.0270
     52  CG         7.2250   31.5810   12.7590 C.3    70  LEU70       0.0019
     53  CD1        6.5070   32.8370   12.2770 C.3    70  LEU70       0.0001
     54  CD2        7.1310   30.4740   11.7250 C.3    70  LEU70       0.0001
     55  N          2.4750   26.1440   14.1160 N.3    86  LEU86      -0.1231
     56  CA         3.3630   27.2860   14.0020 C.3    86  LEU86       0.1693
     57  C          2.6430   28.6120   14.1650 C.2    86  LEU86       0.2592
     58  O          1.4380   28.7180   13.9410 O.2    86  LEU86      -0.2718
     59  CB         4.0800   27.2600   12.6520 C.3    86  LEU86       0.0284
     60  CG         5.1070   26.1490   12.4370 C.3    86  LEU86       0.0019
     61  CD1        5.5740   26.1440   10.9950 C.3    86  LEU86       0.0001
     62  CD2        6.2850   26.3290   13.3780 C.3    86  LEU86       0.0001
     63  N          3.3990   29.6240   14.5670 N.am   87  GLU87      -0.1966
     64  CA         2.9070   30.9860   14.5610 C.3    87  GLU87       0.1733
     65  C          2.5670   31.3820   13.1370 C.2    87  GLU87       0.2616
     66  O          3.2200   30.9540   12.1900 O.2    87  GLU87      -0.2715
     67  CB         3.9400   31.9450   15.1510 C.3    87  GLU87       0.0429
     68  CG         3.5390   33.4040   15.0820 C.3    87  GLU87       0.1163
     69  CD         4.6590   34.3360   15.4900 C.2    87  GLU87       0.3649
     70  OE1        4.6270   35.5190   15.0880 O.co2  87  GLU87      -0.2457
     71  OE2        5.5740   33.8850   16.2120 O.co2  87  GLU87      -0.2457
     72  N          1.5290   32.1910   12.9930 N.am   88  TYR88      -0.1960
     73  CA         1.1050   32.6650   11.6930 C.3    88  TYR88       0.1771
     74  C          1.6150   34.0890   11.4600 C.2    88  TYR88       0.2619
     75  O          1.4780   34.9530   12.3260 O.2    88  TYR88      -0.2715
     76  CB        -0.4170   32.5820   11.6030 C.3    88  TYR88       0.0574
     77  CG        -1.0510   33.4730   10.5710 C.ar   88  TYR88      -0.0198
     78  CD1       -0.8110   33.2840    9.2180 C.ar   88  TYR88      -0.0009
     79  CD2       -1.9170   34.4870   10.9500 C.ar   88  TYR88      -0.0009
     80  CE1       -1.4010   34.0960    8.2730 C.ar   88  TYR88       0.0417
     81  CE2       -2.5140   35.3020   10.0150 C.ar   88  TYR88       0.0417
     82  CZ        -2.2540   35.1030    8.6770 C.ar   88  TYR88       0.1957
     83  OH        -2.8470   35.9160    7.7400 O.3    88  TYR88      -0.2866
     84  N          2.2220   34.3210   10.2980 N.am   89  ALA89      -0.1977
     85  CA         2.7590   35.6350    9.9490 C.3    89  ALA89       0.1597
     86  C          1.9430   36.2800    8.8330 C.2    89  ALA89       0.2287
     87  O          2.0200   35.8470    7.6810 O.2    89  ALA89      -0.2864
     88  CB         4.2130   35.5150    9.5360 C.3    89  ALA89       0.0319
     89  N          3.3920   37.6410    5.3560 N.3    92  GLY92      -0.1210
     90  CA         4.0130   36.6300    4.5170 C.3    92  GLY92       0.1956
     91  C          5.5300   36.6740    4.4520 C.2    92  GLY92       0.2612
     92  O          6.1880   37.2670    5.3090 O.2    92  GLY92      -0.2717
     93  N          6.0850   36.0420    3.4230 N.am   93  THR93      -0.1952
     94  CA         7.5330   35.9440    3.2740 C.3    93  THR93       0.1897
     95  C          8.1850   37.1950    2.7280 C.2    93  THR93       0.2313
     96  O          7.5900   37.9400    1.9560 O.2    93  THR93      -0.2863
     97  CB         7.9310   34.8020    2.3410 C.3    93  THR93       0.1794
     98  OG1        7.7300   35.1990    0.9780 O.3    93  THR93      -0.2208
     99  CG2        7.1040   33.6090    2.6300 C.3    93  THR93       0.0378
    100  N         13.0490   33.0480    1.4910 N.3   136  GLU136     -0.1231
    101  CA        11.9410   32.0940    1.5800 C.3   136  GLU136      0.1699
    102  C         11.6250   31.7530    3.0310 C.2   136  GLU136      0.2592
    103  O         10.4730   31.5060    3.3800 O.2   136  GLU136     -0.2718
    104  CB        12.2630   30.8090    0.8140 C.3   136  GLU136      0.0402
    105  CG        12.3790   30.9840   -0.6840 C.3   136  GLU136      0.1161
    106  CD        13.2480   29.9210   -1.3250 C.2   136  GLU136      0.3649
    107  OE1       13.2280   28.7670   -0.8470 O.co2 136  GLU136     -0.2457
    108  OE2       13.9600   30.2450   -2.3000 O.co2 136  GLU136     -0.2457
    109  N         12.6610   31.7390    3.8650 N.am  137  ASN137     -0.1974
    110  CA        12.5380   31.3550    5.2690 C.3   137  ASN137      0.1688
    111  C         12.3310   32.5310    6.2110 C.2   137  ASN137      0.2292
    112  O         12.3490   32.3680    7.4260 O.2   137  ASN137     -0.2864
    113  CB        13.7710   30.5740    5.7110 C.3   137  ASN137      0.1181
    114  CG        13.8440   29.2060    5.0810 C.2   137  ASN137      0.2629
    115  OD1       12.8470   28.6950    4.5730 O.2   137  ASN137     -0.2716
    116  ND2       15.0260   28.5990    5.1160 N.am  137  ASN137     -0.0877
    117  N          9.7970   35.4940    7.4970 N.3   139  LEU139     -0.1245
    118  CA         8.3830   35.8420    7.5230 C.3   139  LEU139      0.1561
    119  C          8.1620   37.2120    8.1450 C.2   139  LEU139      0.2260
    120  O          9.0080   37.7200    8.8770 O.2   139  LEU139     -0.2867
    121  CB         7.5880   34.7830    8.2840 C.3   139  LEU139      0.0270
    122  CG         7.4810   33.4420    7.5630 C.3   139  LEU139      0.0019
    123  CD1        6.8040   32.4070    8.4410 C.3   139  LEU139      0.0001
    124  CD2        6.7240   33.6220    6.2610 C.3   139  LEU139      0.0001
    125  N         12.0980   31.6210   10.5160 N.3   149  ALA149     -0.1231
    126  CA        11.0310   30.6440   10.4460 C.3   149  ALA149      0.1694
    127  C         11.4890   29.2030   10.6530 C.2   149  ALA149      0.2592
    128  O         10.8680   28.4570   11.4090 O.2   149  ALA149     -0.2718
    129  CB        10.3040   30.7740    9.1340 C.3   149  ALA149      0.0304
    130  N         12.4580   28.7500    9.8700 N.am  150  ASP150     -0.1974
    131  CA        12.6420   27.3120    9.7650 C.3   150  ASP150      0.1709
    132  C         13.3960   26.6170   10.8850 C.2   150  ASP150      0.2293
    133  O         12.7560   25.9170   11.6880 O.2   150  ASP150     -0.2864
    134  CB        13.3140   26.9870    8.4500 C.3   150  ASP150      0.1436
    135  CG        12.3410   26.4110    7.4710 C.2   150  ASP150      0.3671
    136  OD1       12.5970   25.3050    6.9550 O.co2 150  ASP150     -0.2456
    137  OD2       11.2890   27.0520    7.2540 O.co2 150  ASP150     -0.2456
@<TRIPOS>BOND
     1    21    20    1
     2    20    19    1
     3    19    18    1
     4    18    17    1
     5   108   106   ar
     6    17    14    1
     7   106   107   ar
     8   106   105    1
     9    16    15    2
    10    14    15    1
    11    14    13    1
    12    15    22   am
    13   105   104    1
    14    24    25    2
    15    24    23    1
    16    22    23    1
    17    13    11   am
    18   104   101    1
    19    11    10    1
    20    11    12    2
    21    98    97    1
    22    10     9    1
    23   100   101    1
    24   101   102    1
    25     4     3    2
    26    96    95    2
    27     9     3   am
    28     3     2    1
    29    97    99    1
    30    97    94    1
    31    95    94    1
    32   102   103    2
    33   102   109   am
    34     1     2    1
    35     2     5    1
    36    94    93    1
    37    93    91   am
    38   109   110    1
    39    26    27    1
    40    29    28    2
    41    91    90    1
    42    91    92    2
    43    90    89    1
    44   115   114    2
    45     5     6    1
    46    28    27    1
    47   114   116   am
    48   114   113    1
    49    27    30    1
    50     8     6    1
    51    32    30    1
    52   110   113    1
    53   110   111    1
    54    30    31    1
    55     6     7    1
    56   111   112    2
    57   124   122    1
    58   136   135   ar
    59   137   135   ar
    60   135   134    1
    61   117   118    1
    62   118   119    1
    63   118   121    1
    64   122   121    1
    65   122   123    1
    66    87    86    2
    67    83    82    1
    68    45    46    1
    69    45    44    1
    70    43    44    1
    71    43    42    1
    72   119   120    2
    73    80    82   ar
    74    80    78   ar
    75   134   131    1
    76    82    81   ar
    77    40    39    1
    78    40    41    2
    79    39    42    1
    80    39    38    1
    81    86    85    1
    82   129   126    1
    83    78    77   ar
    84    88    85    1
    85   131   130    1
    86   131   132    1
    87   130   127   am
    88    37    34    1
    89    85    84    1
    90    81    79   ar
    91    84    74   am
    92   126   125    1
    93   126   127    1
    94    77    79   ar
    95    77    76    1
    96    34    35    1
    97    34    33    1
    98   127   128    2
    99   132   133    2
   100    61    60    1
   101    35    36    2
   102    74    73    1
   103    74    75    2
   104    76    73    1
   105    73    72    1
   106    54    52    1
   107    66    65    2
   108    53    52    1
   109    60    59    1
   110    60    62    1
   111    59    56    1
   112    52    51    1
   113    72    65   am
   114    51    48    1
   115    65    64    1
   116    58    57    2
   117    56    55    1
   118    56    57    1
   119    57    63   am
   120    48    47    1
   121    48    49    1
   122    64    63    1
   123    64    67    1
   124    68    67    1
   125    68    69    1
   126    70    69   ar
   127    69    71   ar
   128    49    50    2
