@<TRIPOS>MOLECULE
tmp/4o0xA00.pdb
 166 154 0 0 0
SMALL
GASTEIGER

@<TRIPOS>ATOM
      1  N        -14.4940   -7.5220   16.3340 N.3    29  ILE29      -0.1231
      2  CA       -15.5330   -7.9100   15.3860 C.3    29  ILE29       0.1696
      3  C        -15.5960   -7.0030   14.1780 C.2    29  ILE29       0.2632
      4  O        -16.4930   -7.1400   13.3550 O.2    29  ILE29      -0.2714
      5  CB       -16.9320   -7.9010   16.0210 C.3    29  ILE29       0.0266
      6  CG1      -17.3110   -6.4830   16.4490 C.3    29  ILE29       0.0019
      7  CG2      -17.0000   -8.8650   17.1970 C.3    29  ILE29       0.0020
      8  CD1      -18.7780   -6.3200   16.7550 C.3    29  ILE29       0.0001
      9  N        -14.6680   -6.0620   14.0720 N.am   30  GLY30      -0.1718
     10  CA       -14.6600   -5.1940   12.9120 C.2    30  GLY30       0.1480
     11  C        -13.7220   -4.0090   12.9590 C.2    30  GLY30       0.2820
     12  O        -13.0400   -3.7680   13.9540 O.2    30  GLY30      -0.2669
     13  N        -13.6870   -3.2840   11.8460 N.am   31  GLU31      -0.1929
     14  CA       -12.9830   -2.0170   11.7410 C.3    31  GLU31       0.1736
     15  C        -14.0290   -0.9480   11.4540 C.2    31  GLU31       0.2617
     16  O        -14.9470   -1.1650   10.6600 O.2    31  GLU31      -0.2715
     17  CB       -11.9740   -2.0590   10.5950 C.3    31  GLU31       0.0429
     18  CG       -11.1750   -3.3460   10.5140 C.3    31  GLU31       0.1163
     19  CD        -9.7970   -3.2180   11.1270 C.2    31  GLU31       0.3649
     20  OE1       -9.1540   -4.2620   11.3720 O.co2  31  GLU31      -0.2457
     21  OE2       -9.3530   -2.0710   11.3530 O.co2  31  GLU31      -0.2457
     22  N        -13.9040    0.1980   12.1100 N.am   32  GLY32      -0.1955
     23  CA       -14.8080    1.3050   11.8680 C.3    32  GLY32       0.1869
     24  C        -14.0980    2.4050   11.1100 C.2    32  GLY32       0.2309
     25  O        -12.9510    2.2400   10.6880 O.2    32  GLY32      -0.2863
     26  N        -13.7080   -2.1720   16.4970 N.3    37  VAL37      -0.1245
     27  CA       -14.8920   -2.4810   17.2840 C.3    37  VAL37       0.1561
     28  C        -14.8090   -3.8900   17.8580 C.2    37  VAL37       0.2260
     29  O        -14.6640   -4.8660   17.1220 O.2    37  VAL37      -0.2867
     30  CB       -16.1730   -2.3490   16.4290 C.3    37  VAL37       0.0252
     31  CG1      -17.4010   -2.7530   17.2330 C.3    37  VAL37       0.0019
     32  CG2      -16.3110   -0.9270   15.8990 C.3    37  VAL37       0.0019
     33  N        -20.9430   -3.7220   22.5890 N.3    50  ALA50      -0.1245
     34  CA       -19.9110   -3.4820   21.5970 C.3    50  ALA50       0.1562
     35  C        -19.1030   -2.2720   22.0220 C.2    50  ALA50       0.2260
     36  O        -19.6290   -1.3460   22.6490 O.2    50  ALA50      -0.2867
     37  CB       -20.5140   -3.2790   20.2170 C.3    50  ALA50       0.0290
     38  N        -16.3590    0.5660   20.5770 N.3    52  LYS52      -0.1245
     39  CA       -15.5990    1.2360   19.5320 C.3    52  LYS52       0.1561
     40  C        -14.4150    1.9680   20.1430 C.2    52  LYS52       0.2260
     41  O        -14.5940    2.8670   20.9600 O.2    52  LYS52      -0.2867
     42  CB       -16.4870    2.2240   18.7780 C.3    52  LYS52       0.0271
     43  CG       -15.8400    2.8310   17.5390 C.3    52  LYS52       0.0035
     44  CD       -16.7260    3.8960   16.9320 C.3    52  LYS52       0.0206
     45  CE       -16.1180    4.4440   15.6560 C.3    52  LYS52       0.1093
     46  NZ       -16.9040    5.5930   15.1190 N.3    52  LYS52      -0.1314
     47  N        -19.6840   11.6660   17.6300 N.3    68  GLU68      -0.1245
     48  CA       -20.4880   10.6750   18.3280 C.3    68  GLU68       0.1567
     49  C        -20.6920   11.0620   19.7890 C.2    68  GLU68       0.2260
     50  O        -21.8080   11.0250   20.2930 O.2    68  GLU68      -0.2867
     51  CB       -19.8460    9.2880   18.2250 C.3    68  GLU68       0.0388
     52  CG       -19.8640    8.6940   16.8330 C.3    68  GLU68       0.1160
     53  CD       -18.7960    7.6350   16.6450 C.2    68  GLU68       0.3649
     54  OE1      -17.6970    7.8060   17.2110 O.co2  68  GLU68      -0.2457
     55  OE2      -19.0520    6.6330   15.9420 O.co2  68  GLU68      -0.2457
     56  N        -24.1820   12.4960   19.6370 N.3    72  MET72      -0.1245
     57  CA       -24.9940   11.2810   19.7770 C.3    72  MET72       0.1570
     58  C        -25.1660   10.7500   21.1990 C.2    72  MET72       0.2261
     59  O        -25.9270    9.8100   21.4270 O.2    72  MET72      -0.2867
     60  CB       -24.4260   10.1670   18.8960 C.3    72  MET72       0.0387
     61  CG       -24.3310   10.5250   17.4290 C.3    72  MET72       0.0595
     62  SD       -25.9270   10.9540   16.7100 S.3    72  MET72      -0.1393
     63  CE       -26.8680    9.4570   17.0120 C.3    72  MET72       0.0692
     64  N        -28.4930    2.7870   16.5050 N.3    81  VAL81      -0.1245
     65  CA       -27.6710    2.1100   17.5020 C.3    81  VAL81       0.1561
     66  C        -27.5650    2.9600   18.7630 C.2    81  VAL81       0.2260
     67  O        -27.1580    4.1190   18.7110 O.2    81  VAL81      -0.2867
     68  CB       -26.2540    1.8290   16.9690 C.3    81  VAL81       0.0252
     69  CG1      -25.3320    1.4050   18.1030 C.3    81  VAL81       0.0019
     70  CG2      -26.2990    0.7700   15.8700 C.3    81  VAL81       0.0019
     71  N        -26.0960    4.3130   22.1460 N.3    83  MET83      -0.1245
     72  CA       -24.8380    4.4870   22.8490 C.3    83  MET83       0.1570
     73  C        -25.0710    4.5000   24.3650 C.2    83  MET83       0.2261
     74  O        -26.0310    5.1020   24.8480 O.2    83  MET83      -0.2867
     75  CB       -24.1700    5.7820   22.3940 C.3    83  MET83       0.0387
     76  CG       -23.0120    6.1970   23.2580 C.3    83  MET83       0.0595
     77  SD       -22.3860    7.8090   22.7930 S.3    83  MET83      -0.1393
     78  CE       -21.2750    8.1100   24.1560 C.3    83  MET83       0.0692
     79  N        -16.1850    4.1400   22.9730 N.3    95  VAL95      -0.1245
     80  CA       -17.6290    4.2580   23.0360 C.3    95  VAL95       0.1561
     81  C        -18.2240    2.8820   23.3080 C.2    95  VAL95       0.2260
     82  O        -18.0050    1.9390   22.5520 O.2    95  VAL95      -0.2867
     83  CB       -18.2000    4.8300   21.7280 C.3    95  VAL95       0.0252
     84  CG1      -19.7160    4.9640   21.8160 C.3    95  VAL95       0.0019
     85  CG2      -17.5530    6.1690   21.4170 C.3    95  VAL95       0.0019
     86  N        -21.5470    0.5460   23.5980 N.3    97  MET97      -0.1230
     87  CA       -22.8530    0.6010   22.9680 C.3    97  MET97       0.1702
     88  C        -23.5120   -0.7610   22.8080 C.2    97  MET97       0.2592
     89  O        -22.9040   -1.8090   23.0300 O.2    97  MET97      -0.2718
     90  CB       -22.7330    1.2530   21.5950 C.3    97  MET97       0.0401
     91  CG       -21.9760    0.3770   20.6050 C.3    97  MET97       0.0596
     92  SD       -21.6110    1.1930   19.0440 S.3    97  MET97      -0.1393
     93  CE       -19.8260    1.1100   19.0420 C.3    97  MET97       0.0692
     94  N        -24.7810   -0.7010   22.4330 N.am   98  GLU98      -0.1966
     95  CA       -25.5990   -1.8450   22.0700 C.3    98  GLU98       0.1733
     96  C        -24.8760   -2.7620   21.0650 C.2    98  GLU98       0.2616
     97  O        -24.3040   -2.2920   20.0780 O.2    98  GLU98      -0.2715
     98  CB       -26.8880   -1.2830   21.4640 C.3    98  GLU98       0.0429
     99  CG       -27.8850   -2.2620   20.9100 C.3    98  GLU98       0.1163
    100  CD       -29.0840   -1.5500   20.3070 C.2    98  GLU98       0.3649
    101  OE1      -28.9790   -0.3310   20.0400 O.co2  98  GLU98      -0.2457
    102  OE2      -30.1310   -2.2030   20.1070 O.co2  98  GLU98      -0.2457
    103  N        -24.8800   -4.0630   21.3380 N.am   99  PHE99      -0.1960
    104  CA       -24.3320   -5.0410   20.4070 C.3    99  PHE99       0.1771
    105  C        -25.4310   -5.5800   19.4830 C.2    99  PHE99       0.2619
    106  O        -26.4240   -6.1540   19.9470 O.2    99  PHE99      -0.2715
    107  CB       -23.6430   -6.1850   21.1620 C.3    99  PHE99       0.0574
    108  CG       -23.2850   -7.3720   20.2920 C.ar   99  PHE99      -0.0200
    109  CD1      -22.5740   -7.2040   19.1090 C.ar   99  PHE99      -0.0042
    110  CD2      -23.6440   -8.6600   20.6710 C.ar   99  PHE99      -0.0042
    111  CE1      -22.2390   -8.2950   18.3200 C.ar   99  PHE99      -0.0003
    112  CE2      -23.3090   -9.7510   19.8860 C.ar   99  PHE99      -0.0003
    113  CZ       -22.6030   -9.5660   18.7090 C.ar   99  PHE99      -0.0000
    114  N        -25.2500   -5.3780   18.1800 N.am  100  LEU100     -0.1977
    115  CA       -26.2140   -5.8280   17.1740 C.3   100  LEU100      0.1596
    116  C        -25.8100   -7.1940   16.6350 C.2   100  LEU100      0.2287
    117  O        -24.9830   -7.2910   15.7290 O.2   100  LEU100     -0.2864
    118  CB       -26.3190   -4.8180   16.0270 C.3   100  LEU100      0.0297
    119  CG       -27.1780   -3.5560   16.2080 C.3   100  LEU100      0.0022
    120  CD1      -28.6450   -3.9100   16.3810 C.3   100  LEU100      0.0001
    121  CD2      -26.6940   -2.6890   17.3680 C.3   100  LEU100      0.0001
    122  N        -25.1670   -8.7630   12.6970 N.3   103  GLY103     -0.1225
    123  CA       -24.1480   -8.3420   11.7500 C.3   103  GLY103      0.1811
    124  C        -24.6490   -7.2360   10.8300 C.2   103  GLY103      0.2280
    125  O        -25.7530   -6.7140   11.0200 O.2   103  GLY103     -0.2866
    126  N        -22.6250   -1.0790    5.1470 N.3   146  ASP146     -0.1239
    127  CA       -21.7720   -1.3150    6.3150 C.3   146  ASP146      0.1674
    128  C        -22.3470   -0.6150    7.5390 C.2   146  ASP146      0.2266
    129  O        -22.1500   -1.0540    8.6710 O.2   146  ASP146     -0.2867
    130  CB       -20.3510   -0.7990    6.0650 C.3   146  ASP146      0.1410
    131  CG       -19.7110   -1.4060    4.8290 C.2   146  ASP146      0.3668
    132  OD1      -18.7500   -2.1890    4.9880 O.co2 146  ASP146     -0.2456
    133  OD2      -20.1670   -1.0990    3.7000 O.co2 146  ASP146     -0.2456
    134  N        -26.9390   -2.1370   10.6830 N.3   149  LEU149     -0.1245
    135  CA       -26.8180   -3.3230   11.5230 C.3   149  LEU149      0.1561
    136  C        -28.1750   -3.9750   11.7970 C.2   149  LEU149      0.2260
    137  O        -29.2180   -3.3150   11.7420 O.2   149  LEU149     -0.2867
    138  CB       -26.0930   -2.9750   12.8240 C.3   149  LEU149      0.0270
    139  CG       -24.6870   -2.4100   12.5970 C.3   149  LEU149      0.0019
    140  CD1      -23.9730   -2.0450   13.9050 C.3   149  LEU149      0.0001
    141  CD2      -23.8580   -3.3950   11.7860 C.3   149  LEU149      0.0001
    142  N        -26.1360    2.9820   11.9380 N.3   159  SER159     -0.1202
    143  CA       -24.9120    2.8750   12.7320 C.3   159  SER159      0.2020
    144  C        -23.7480    3.7210   12.2020 C.2   159  SER159      0.2619
    145  O        -23.8430    4.3430   11.1380 O.2   159  SER159     -0.2717
    146  CB       -24.4790    1.4080   12.8010 C.3   159  SER159      0.2103
    147  OG       -23.2490    1.2630   13.4870 O.3   159  SER159     -0.2182
    148  N        -22.6530    3.7200   12.9610 N.am  160  ASP160     -0.1959
    149  CA       -21.4160    4.4270   12.6240 C.3   160  ASP160      0.1840
    150  C        -21.6170    5.9020   12.2510 C.2   160  ASP160      0.2622
    151  O        -21.6190    6.2600   11.0740 O.2   160  ASP160     -0.2715
    152  CB       -20.6490    3.6970   11.5200 C.3   160  ASP160      0.1450
    153  CG       -19.1650    4.0580   11.4980 C.2   160  ASP160      0.3671
    154  OD1      -18.4030    3.3800   10.7740 O.co2 160  ASP160     -0.2456
    155  OD2      -18.7530    5.0060   12.2120 O.co2 160  ASP160     -0.2456
    156  N        -21.7630    6.7520   13.2640 N.am  161  PHE161     -0.1974
    157  CA       -21.9440    8.1800   13.0430 C.3   161  PHE161      0.1639
    158  C        -20.6130    8.8930   13.1790 C.2   161  PHE161      0.2290
    159  O        -20.5620   10.0590   13.5650 O.2   161  PHE161     -0.2864
    160  CB       -22.9350    8.7550   14.0510 C.3   161  PHE161      0.0560
    161  CG       -24.3530    8.3380   13.8120 C.ar  161  PHE161     -0.0200
    162  CD1      -25.3220    9.2850   13.5110 C.ar  161  PHE161     -0.0042
    163  CD2      -24.7230    7.0020   13.8750 C.ar  161  PHE161     -0.0042
    164  CE1      -26.6380    8.9020   13.2850 C.ar  161  PHE161     -0.0003
    165  CE2      -26.0350    6.6140   13.6510 C.ar  161  PHE161     -0.0003
    166  CZ       -26.9920    7.5590   13.3560 C.ar  161  PHE161     -0.0000
@<TRIPOS>BOND
     1   133   131   ar
     2   131   132   ar
     3   131   130    1
     4   126   127    1
     5   130   127    1
     6   127   128    1
     7   128   129    2
     8    18    17    1
     9    18    19    1
    10    17    14    1
    11    16    15    2
    12   134   135    1
    13    25    24    2
    14   154   153   ar
    15   124   125    2
    16   124   123    1
    17   151   150    2
    18    24    23    1
    19    19    21   ar
    20    19    20   ar
    21   145   144    2
    22    15    14    1
    23    15    22   am
    24   153   152    1
    25   153   155   ar
    26   152   149    1
    27   135   136    1
    28   135   138    1
    29    14    13    1
    30   137   136    2
    31   123   122    1
    32   141   139    1
    33    13    11   am
    34    23    22    1
    35   142   143    1
    36   144   143    1
    37   144   148   am
    38   150   149    1
    39   150   156   am
    40   139   138    1
    41   139   140    1
    42   149   148    1
    43   143   146    1
    44   146   147    1
    45    10    11    1
    46    10     9    2
    47    11    12    2
    48   157   158    1
    49   157   156    1
    50   157   160    1
    51   158   159    2
    52   164   166   ar
    53   164   162   ar
    54     4     3    2
    55   166   165   ar
    56   162   161   ar
    57   165   163   ar
    58   161   163   ar
    59   161   160    1
    60     9     3    1
    61     3     2    1
    62    46    45    1
    63     2     5    1
    64     2     1    1
    65    45    44    1
    66   117   116    2
    67    70    68    1
    68    32    30    1
    69    55    53   ar
    70     5     6    1
    71     5     7    1
    72   118   119    1
    73   118   115    1
    74   119   120    1
    75   119   121    1
    76    30    31    1
    77    30    27    1
    78     6     8    1
    79    26    27    1
    80    64    65    1
    81   116   115    1
    82    53    52    1
    83    53    54   ar
    84    62    63    1
    85    62    61    1
    86    52    51    1
    87    44    43    1
    88    68    65    1
    89    68    69    1
    90    29    28    2
    91   115   114    1
    92    27    28    1
    93    61    60    1
    94    65    66    1
    95    43    42    1
    96    47    48    1
    97   114   105   am
    98    51    48    1
    99   111   113   ar
   100   111   109   ar
   101    48    49    1
   102   113   112   ar
   103    67    66    2
   104    42    39    1
   105    60    57    1
   106    93    92    1
   107    92    91    1
   108   109   108   ar
   109   105   106    2
   110   105   104    1
   111    39    40    1
   112    39    38    1
   113    56    57    1
   114    57    58    1
   115    49    50    2
   116   112   110   ar
   117   101   100   ar
   118    97    96    2
   119   102   100   ar
   120    40    41    2
   121    37    34    1
   122   108   110   ar
   123   108   107    1
   124   100    99    1
   125   104   107    1
   126   104   103    1
   127    91    90    1
   128    99    98    1
   129    96   103   am
   130    96    95    1
   131    58    59    2
   132    85    83    1
   133    98    95    1
   134    90    87    1
   135    34    35    1
   136    34    33    1
   137    83    84    1
   138    83    80    1
   139    35    36    2
   140    95    94    1
   141    71    72    1
   142    75    72    1
   143    75    76    1
   144    94    88   am
   145    82    81    2
   146    77    76    1
   147    77    78    1
   148    88    87    1
   149    88    89    2
   150    72    73    1
   151    87    86    1
   152    79    80    1
   153    80    81    1
   154    73    74    2
