@<TRIPOS>MOLECULE
tmp/4o0yA00.pdb
 163 152 0 0 0
SMALL
GASTEIGER

@<TRIPOS>ATOM
      1  N         17.8710  -38.1130   17.2110 N.3    29  ILE29      -0.1231
      2  CA        16.8940  -38.5150   16.2020 C.3    29  ILE29       0.1696
      3  C         16.9460  -37.6750   14.9210 C.2    29  ILE29       0.2632
      4  O         16.3580  -38.0380   13.9030 O.2    29  ILE29      -0.2714
      5  CB        15.4620  -38.4930   16.7770 C.3    29  ILE29       0.0266
      6  CG1       15.0010  -37.0570   17.0030 C.3    29  ILE29       0.0019
      7  CG2       15.4000  -39.2800   18.0900 C.3    29  ILE29       0.0020
      8  CD1       13.5110  -36.9320   17.2710 C.3    29  ILE29       0.0001
      9  N         17.6350  -36.5440   14.9610 N.am   30  GLY30      -0.1718
     10  CA        17.6860  -35.7060   13.7810 C.2    30  GLY30       0.1480
     11  C         18.6130  -34.5140   13.8370 C.2    30  GLY30       0.2820
     12  O         19.3720  -34.3230   14.7950 O.2    30  GLY30      -0.2669
     13  N         18.5260  -33.7070   12.7860 N.am   31  GLU31      -0.1929
     14  CA        19.3680  -32.5420   12.6000 C.3    31  GLU31       0.1736
     15  C         18.5150  -31.4580   11.9460 C.2    31  GLU31       0.2617
     16  O         18.0020  -31.6440   10.8470 O.2    31  GLU31      -0.2715
     17  CB        20.5280  -32.9100   11.6820 C.3    31  GLU31       0.0429
     18  CG        21.6540  -31.8950   11.6430 C.3    31  GLU31       0.1163
     19  CD        23.0230  -32.5540   11.7290 C.2    31  GLU31       0.3649
     20  OE1       23.0950  -33.8080   11.6820 O.co2  31  GLU31      -0.2457
     21  OE2       24.0210  -31.8130   11.8550 O.co2  31  GLU31      -0.2457
     22  N         18.3440  -30.3310   12.6190 N.am   32  GLY32      -0.1955
     23  CA        17.5080  -29.2800   12.0780 C.3    32  GLY32       0.1869
     24  C         18.2840  -28.0850   11.5610 C.2    32  GLY32       0.2309
     25  O         19.4960  -28.1420   11.3830 O.2    32  GLY32      -0.2863
     26  N         18.4950  -32.6610   17.0130 N.3    37  VAL37      -0.1245
     27  CA        17.3190  -32.9510   17.8110 C.3    37  VAL37       0.1561
     28  C         17.4590  -34.3360   18.4460 C.2    37  VAL37       0.2260
     29  O         17.8860  -35.2910   17.7910 O.2    37  VAL37      -0.2867
     30  CB        16.0430  -32.8950   16.9510 C.3    37  VAL37       0.0252
     31  CG1       14.8070  -33.3130   17.7670 C.3    37  VAL37       0.0019
     32  CG2       15.8730  -31.4940   16.3660 C.3    37  VAL37       0.0019
     33  N         10.9850  -34.1740   22.9470 N.3    50  ALA50      -0.1245
     34  CA        12.0800  -33.9510   22.0270 C.3    50  ALA50       0.1562
     35  C         12.8170  -32.6990   22.4680 C.2    50  ALA50       0.2260
     36  O         12.2350  -31.8130   23.0970 O.2    50  ALA50      -0.2867
     37  CB        11.5630  -33.7920   20.5890 C.3    50  ALA50       0.0290
     38  N         15.6290  -29.7920   20.8440 N.3    52  LYS52      -0.1245
     39  CA        16.5210  -29.2340   19.8280 C.3    52  LYS52       0.1561
     40  C         17.6700  -28.4840   20.5170 C.2    52  LYS52       0.2260
     41  O         17.4500  -27.6960   21.4390 O.2    52  LYS52      -0.2867
     42  CB        15.7560  -28.3010   18.8930 C.3    52  LYS52       0.0271
     43  CG        16.5010  -27.9260   17.6170 C.3    52  LYS52       0.0035
     44  CD        15.7980  -26.7780   16.9260 C.3    52  LYS52       0.0206
     45  CE        16.6250  -26.2530   15.7730 C.3    52  LYS52       0.1093
     46  NZ        16.2400  -24.8530   15.4920 N.3    52  LYS52      -0.1314
     47  N         12.8670  -19.2720   17.6800 N.3    68  GLU68      -0.1245
     48  CA        11.9690  -20.1560   18.3990 C.3    68  GLU68       0.1567
     49  C         11.6040  -19.5940   19.7740 C.2    68  GLU68       0.2260
     50  O         10.4530  -19.7150   20.2180 O.2    68  GLU68      -0.2867
     51  CB        12.5820  -21.5600   18.4910 C.3    68  GLU68       0.0388
     52  CG        12.6880  -22.2240   17.1000 C.3    68  GLU68       0.1160
     53  CD        13.8710  -23.1500   16.9320 C.2    68  GLU68       0.3649
     54  OE1       13.8050  -24.0410   16.0550 O.co2  68  GLU68      -0.2457
     55  OE2       14.8710  -22.9930   17.6640 O.co2  68  GLU68      -0.2457
     56  N          4.0700  -27.7360   16.0930 N.3    81  VAL81      -0.1245
     57  CA         4.7600  -28.4570   17.1650 C.3    81  VAL81       0.1561
     58  C          4.7170  -27.6260   18.4180 C.2    81  VAL81       0.2260
     59  O          5.0400  -26.4310   18.3890 O.2    81  VAL81      -0.2867
     60  CB         6.2440  -28.7640   16.8340 C.3    81  VAL81       0.0252
     61  CG1        6.9580  -29.3700   18.0540 C.3    81  VAL81       0.0019
     62  CG2        6.3400  -29.6950   15.6360 C.3    81  VAL81       0.0019
     63  N          6.0140  -26.3480   21.7770 N.3    83  MET83      -0.1245
     64  CA         7.2430  -26.1660   22.5360 C.3    83  MET83       0.1570
     65  C          6.8930  -25.9420   23.9930 C.2    83  MET83       0.2261
     66  O          5.9370  -25.2430   24.3140 O.2    83  MET83      -0.2867
     67  CB         8.0230  -24.9780   21.9760 C.3    83  MET83       0.0387
     68  CG         8.4510  -25.2030   20.5300 C.3    83  MET83       0.0595
     69  SD         9.1870  -23.7610   19.7200 S.3    83  MET83      -0.1393
     70  CE         7.9380  -23.3860   18.4850 C.3    83  MET83       0.0692
     71  N         15.6880  -26.2680   23.2950 N.3    95  VAL95      -0.1245
     72  CA        14.2530  -26.0580   23.2500 C.3    95  VAL95       0.1561
     73  C         13.6100  -27.4040   23.4870 C.2    95  VAL95       0.2260
     74  O         13.8040  -28.3450   22.7110 O.2    95  VAL95      -0.2867
     75  CB        13.7850  -25.4820   21.8870 C.3    95  VAL95       0.0252
     76  CG1       12.2450  -25.5250   21.7610 C.3    95  VAL95       0.0019
     77  CG2       14.2800  -24.0510   21.7160 C.3    95  VAL95       0.0019
     78  N         10.3860  -29.8010   23.6820 N.3    97  MET97      -0.1230
     79  CA         9.0840  -29.8120   23.0070 C.3    97  MET97       0.1702
     80  C          8.4430  -31.2010   23.0170 C.2    97  MET97       0.2592
     81  O          9.0810  -32.1790   23.3930 O.2    97  MET97      -0.2718
     82  CB         9.2430  -29.3310   21.5580 C.3    97  MET97       0.0401
     83  CG        10.2040  -30.1890   20.7490 C.3    97  MET97       0.0596
     84  SD        10.5250  -29.5760   19.0840 S.3    97  MET97      -0.1393
     85  CE        12.2800  -29.9070   18.9700 C.3    97  MET97       0.0692
     86  N          7.1820  -31.2840   22.6040 N.am   98  GLU98      -0.1966
     87  CA         6.4970  -32.5690   22.5160 C.3    98  GLU98       0.1733
     88  C          7.2030  -33.4560   21.4980 C.2    98  GLU98       0.2616
     89  O          7.7990  -32.9660   20.5380 O.2    98  GLU98      -0.2715
     90  CB         5.0370  -32.3830   22.0870 C.3    98  GLU98       0.0429
     91  CG         4.9090  -31.7600   20.6730 C.3    98  GLU98       0.1163
     92  CD         3.4840  -31.7620   20.1250 C.2    98  GLU98       0.3649
     93  OE1        3.1590  -30.8810   19.3120 O.co2  98  GLU98      -0.2457
     94  OE2        2.6910  -32.6450   20.4960 O.co2  98  GLU98      -0.2457
     95  N          7.1140  -34.7640   21.7080 N.am   99  PHE99      -0.1960
     96  CA         7.7180  -35.7460   20.8200 C.3    99  PHE99       0.1771
     97  C          6.6790  -36.1870   19.8100 C.2    99  PHE99       0.2619
     98  O          5.6270  -36.6660   20.1920 O.2    99  PHE99      -0.2715
     99  CB         8.1890  -36.9560   21.6420 C.3    99  PHE99       0.0574
    100  CG         8.6760  -38.1200   20.8120 C.ar   99  PHE99      -0.0200
    101  CD1        9.4430  -37.9080   19.6730 C.ar   99  PHE99      -0.0042
    102  CD2        8.4030  -39.4240   21.1970 C.ar   99  PHE99      -0.0042
    103  CE1        9.9140  -38.9870   18.9010 C.ar   99  PHE99      -0.0003
    104  CE2        8.8640  -40.5060   20.4360 C.ar   99  PHE99      -0.0003
    105  CZ         9.6260  -40.2810   19.2830 C.ar   99  PHE99      -0.0000
    106  N          6.9800  -36.0160   18.5250 N.am  100  LEU100     -0.1977
    107  CA         6.0860  -36.4070   17.4340 C.3   100  LEU100      0.1596
    108  C          6.5560  -37.7430   16.9080 C.2   100  LEU100      0.2287
    109  O          7.6030  -37.8290   16.2600 O.2   100  LEU100     -0.2864
    110  CB         6.1550  -35.3970   16.2790 C.3   100  LEU100      0.0297
    111  CG         5.2240  -34.1800   16.2170 C.3   100  LEU100      0.0022
    112  CD1        3.7840  -34.5860   16.3110 C.3   100  LEU100      0.0001
    113  CD2        5.5540  -33.2110   17.2940 C.3   100  LEU100      0.0001
    114  N          7.4310  -39.3150   12.8840 N.3   103  GLY103     -0.1210
    115  CA         8.5370  -38.8270   12.0800 C.3   103  GLY103      0.1956
    116  C          8.1410  -37.7400   11.0960 C.2   103  GLY103      0.2611
    117  O          7.1140  -37.0930   11.2550 O.2   103  GLY103     -0.2717
    118  N          8.9670  -37.5540   10.0700 N.am  104  ALA104     -0.1979
    119  CA         8.8250  -36.4560    9.1330 C.3   104  ALA104      0.1597
    120  C          8.1870  -36.9160    7.8310 C.2   104  ALA104      0.2287
    121  O          8.2680  -38.0880    7.4640 O.2   104  ALA104     -0.2864
    122  CB        10.1990  -35.8360    8.8370 C.3   104  ALA104      0.0319
    123  N         10.6620  -31.7530    5.1150 N.3   146  ASP146     -0.1239
    124  CA        11.4340  -31.9430    6.3440 C.3   146  ASP146      0.1674
    125  C         10.7670  -31.2270    7.5080 C.2   146  ASP146      0.2266
    126  O         10.8580  -31.6590    8.6470 O.2   146  ASP146     -0.2867
    127  CB        12.8600  -31.4140    6.2010 C.3   146  ASP146      0.1410
    128  CG        13.6050  -32.0160    5.0240 C.2   146  ASP146      0.3668
    129  OD1       14.6750  -32.6080    5.2580 O.co2 146  ASP146     -0.2456
    130  OD2       13.1490  -31.8670    3.8650 O.co2 146  ASP146     -0.2456
    131  N          6.0400  -32.7170   10.5570 N.3   149  LEU149     -0.1245
    132  CA         6.0740  -33.8980   11.4140 C.3   149  LEU149      0.1561
    133  C          4.6760  -34.4590   11.6280 C.2   149  LEU149      0.2260
    134  O          3.6830  -33.7550   11.4830 O.2   149  LEU149     -0.2867
    135  CB         6.7280  -33.5960   12.7690 C.3   149  LEU149      0.0270
    136  CG         8.1330  -32.9760   12.7430 C.3   149  LEU149      0.0019
    137  CD1        8.5890  -32.6770   14.1680 C.3   149  LEU149      0.0001
    138  CD2        9.1690  -33.8570   12.0320 C.3   149  LEU149      0.0001
    139  N          6.9000  -27.7050   11.7770 N.3   159  SER159     -0.1202
    140  CA         8.0320  -27.8530   12.6880 C.3   159  SER159      0.2020
    141  C          9.1890  -26.9520   12.2740 C.2   159  SER159      0.2619
    142  O          9.1170  -26.2790   11.2570 O.2   159  SER159     -0.2717
    143  CB         8.4890  -29.3170   12.7140 C.3   159  SER159      0.2103
    144  OG         9.6380  -29.5060   13.5200 O.3   159  SER159     -0.2182
    145  N         10.2440  -26.9560   13.0790 N.am  160  ASP160     -0.1959
    146  CA        11.4950  -26.2480   12.7950 C.3   160  ASP160      0.1840
    147  C         11.3380  -24.7860   12.3820 C.2   160  ASP160      0.2622
    148  O         11.4560  -24.4450   11.2040 O.2   160  ASP160     -0.2715
    149  CB        12.3660  -26.9930   11.7800 C.3   160  ASP160      0.1450
    150  CG        13.8530  -26.6600   11.9500 C.2   160  ASP160      0.3671
    151  OD1       14.1750  -25.5690   12.4960 O.co2 160  ASP160     -0.2456
    152  OD2       14.7000  -27.4860   11.5530 O.co2 160  ASP160     -0.2456
    153  N         11.1200  -23.9280   13.3740 N.am  161  PHE161     -0.1974
    154  CA        10.9840  -22.5100   13.1390 C.3   161  PHE161      0.1639
    155  C         12.3160  -21.7900   13.2740 C.2   161  PHE161      0.2290
    156  O         12.3470  -20.5850   13.4610 O.2   161  PHE161     -0.2864
    157  CB         9.9520  -21.9290   14.1080 C.3   161  PHE161      0.0560
    158  CG         8.5440  -22.3450   13.7890 C.ar  161  PHE161     -0.0200
    159  CD1        7.6750  -21.4680   13.1610 C.ar  161  PHE161     -0.0042
    160  CD2        8.1090  -23.6370   14.0630 C.ar  161  PHE161     -0.0042
    161  CE1        6.3690  -21.8560   12.8490 C.ar  161  PHE161     -0.0003
    162  CE2        6.8110  -24.0360   13.7540 C.ar  161  PHE161     -0.0003
    163  CZ         5.9370  -23.1360   13.1490 C.ar  161  PHE161     -0.0000
@<TRIPOS>BOND
     1   130   128   ar
     2   128   129   ar
     3   128   127    1
     4   123   124    1
     5   127   124    1
     6   124   125    1
     7   121   120    2
     8   125   126    2
     9   120   119    1
    10   122   119    1
    11   119   118    1
    12   118   116   am
    13   131   132    1
    14    16    15    2
    15   116   117    2
    16   116   115    1
    17   148   147    2
    18   142   141    2
    19    25    24    2
    20   132   133    1
    21   132   135    1
    22   134   133    2
    23   152   150   ar
    24    24    23    1
    25    18    17    1
    26    18    19    1
    27    20    19   ar
    28    17    14    1
    29    19    21   ar
    30   139   140    1
    31   149   150    1
    32   149   146    1
    33    15    14    1
    34    15    22   am
    35   150   151   ar
    36   138   136    1
    37    23    22    1
    38   115   114    1
    39   141   140    1
    40   141   145   am
    41   147   146    1
    42   147   153   am
    43    14    13    1
    44   140   143    1
    45   143   144    1
    46   136   135    1
    47   136   137    1
    48    13    11   am
    49   146   145    1
    50   161   163   ar
    51   161   159   ar
    52   154   155    1
    53   154   153    1
    54   154   157    1
    55   163   162   ar
    56   159   158   ar
    57   155   156    2
    58   162   160   ar
    59    10    11    1
    60    10     9    2
    61   158   160   ar
    62   158   157    1
    63    11    12    2
    64     4     3    2
    65     3     9    1
    66     3     2    1
    67    46    45    1
    68    62    60    1
    69    45    44    1
    70    54    53   ar
    71    56    57    1
    72     2     5    1
    73     2     1    1
    74   111   110    1
    75   111   112    1
    76   111   113    1
    77   109   108    2
    78   110   107    1
    79    32    30    1
    80     5     6    1
    81     5     7    1
    82    60    57    1
    83    60    61    1
    84   108   107    1
    85    44    43    1
    86    53    52    1
    87    53    55   ar
    88    30    31    1
    89    30    27    1
    90     6     8    1
    91    26    27    1
    92    52    51    1
    93    57    58    1
    94   107   106    1
    95    43    42    1
    96    47    48    1
    97    29    28    2
    98    27    28    1
    99    59    58    2
   100    48    51    1
   101    48    49    1
   102    70    69    1
   103   106    97   am
   104    42    39    1
   105   103   105   ar
   106   103   101   ar
   107    85    84    1
   108    84    83    1
   109   105   104   ar
   110    93    92   ar
   111   101   100   ar
   112    69    68    1
   113    49    50    2
   114    97    98    2
   115    97    96    1
   116    39    40    1
   117    39    38    1
   118    92    94   ar
   119    92    91    1
   120   104   102   ar
   121    40    41    2
   122    68    67    1
   123    89    88    2
   124    37    34    1
   125    91    90    1
   126    83    82    1
   127   100   102   ar
   128   100    99    1
   129    96    99    1
   130    96    95    1
   131    88    95   am
   132    88    87    1
   133    82    79    1
   134    77    75    1
   135    76    75    1
   136    63    64    1
   137    75    72    1
   138    67    64    1
   139    34    35    1
   140    34    33    1
   141    90    87    1
   142    35    36    2
   143    87    86    1
   144    64    65    1
   145    86    80   am
   146    74    73    2
   147    79    80    1
   148    79    78    1
   149    80    81    2
   150    72    71    1
   151    72    73    1
   152    65    66    2
