@<TRIPOS>MOLECULE
tmp/4o10B00.pdb
 164 156 0 0 0
SMALL
GASTEIGER

@<TRIPOS>ATOM
      1  N          8.3580    5.1700   46.2820 N.3   171  TYR171     -0.1241
      2  CA         8.5840    3.7430   46.0380 C.3   171  TYR171      0.1605
      3  C          7.3630    3.0370   45.4550 C.2   171  TYR171      0.2264
      4  O          7.2900    1.8070   45.4830 O.2   171  TYR171     -0.2867
      5  CB         9.0160    3.0380   47.3330 C.3   171  TYR171      0.0534
      6  CG        10.4000    3.4350   47.7350 C.ar  171  TYR171     -0.0201
      7  CD1       11.5270    2.8370   47.1460 C.ar  171  TYR171     -0.0009
      8  CD2       10.5990    4.4490   48.6710 C.ar  171  TYR171     -0.0009
      9  CE1       12.8100    3.2250   47.5060 C.ar  171  TYR171      0.0417
     10  CE2       11.8910    4.8580   49.0290 C.ar  171  TYR171      0.0417
     11  CZ        12.9840    4.2310   48.4430 C.ar  171  TYR171      0.1957
     12  OH        14.2430    4.6490   48.8070 O.3   171  TYR171     -0.2866
     13  N          7.8270    0.9100   40.5110 N.3   174  HIS174     -0.1241
     14  CA         9.1530    0.3130   40.4370 C.3   174  HIS174      0.1621
     15  C          9.4740   -0.0660   38.9810 C.2   174  HIS174      0.2264
     16  O          8.6160   -0.5990   38.2860 O.2   174  HIS174     -0.2867
     17  CB         9.1930   -0.9300   41.3590 C.3   174  HIS174      0.0745
     18  CG        10.5850   -1.3790   41.7250 C.ar  174  HIS174      0.0817
     19  ND1       11.1910   -1.0170   42.9080 N.ar  174  HIS174     -0.2268
     20  CD2       11.4650   -2.1890   41.0810 C.ar  174  HIS174      0.1154
     21  CE1       12.4010   -1.5540   42.9650 C.ar  174  HIS174      0.1986
     22  NE2       12.5910   -2.2780   41.8720 N.ar  174  HIS174     -0.2212
     23  N         10.6140   -2.2950   36.2760 N.3   176  PHE176     -0.1241
     24  CA        10.7930   -3.7170   35.9250 C.3   176  PHE176      0.1605
     25  C         11.2920   -3.8740   34.4710 C.2   176  PHE176      0.2264
     26  O         11.2050   -4.9640   33.8800 O.2   176  PHE176     -0.2867
     27  CB         9.4540   -4.4570   36.0240 C.3   176  PHE176      0.0534
     28  CG         9.0110   -4.8330   37.4420 C.ar  176  PHE176     -0.0203
     29  CD1        9.5690   -4.2680   38.5790 C.ar  176  PHE176     -0.0042
     30  CD2        8.0110   -5.7900   37.5870 C.ar  176  PHE176     -0.0042
     31  CE1        9.1100   -4.6440   39.8720 C.ar  176  PHE176     -0.0003
     32  CE2        7.5550   -6.1750   38.8590 C.ar  176  PHE176     -0.0003
     33  CZ         8.1050   -5.6040   40.0010 C.ar  176  PHE176     -0.0000
     34  N         14.0870   -3.8290   32.4880 N.3   178  TYR178     -0.1227
     35  CA        15.4010   -4.0960   31.9540 C.3   178  TYR178      0.1736
     36  C         15.3050   -5.0900   30.7610 C.2   178  TYR178      0.2595
     37  O         15.8870   -4.8380   29.7000 O.2   178  TYR178     -0.2718
     38  CB        16.2990   -4.6250   33.0800 C.3   178  TYR178      0.0548
     39  CG        17.8020   -4.4790   32.8650 C.ar  178  TYR178     -0.0200
     40  CD1       18.6750   -4.7100   33.9380 C.ar  178  TYR178     -0.0009
     41  CD2       18.3600   -4.1410   31.6120 C.ar  178  TYR178     -0.0009
     42  CE1       20.0760   -4.5890   33.7880 C.ar  178  TYR178      0.0417
     43  CE2       19.7730   -4.0040   31.4630 C.ar  178  TYR178      0.0417
     44  CZ        20.6030   -4.2360   32.5610 C.ar  178  TYR178      0.1957
     45  OH        21.9760   -4.1250   32.4740 O.3   178  TYR178     -0.2866
     46  N         14.5210   -6.1630   30.9280 N.am  179  ARG179     -0.1980
     47  CA        14.4370   -7.1690   29.8780 C.3   179  ARG179      0.1597
     48  C         13.5800   -6.7300   28.7080 C.2   179  ARG179      0.2287
     49  O         13.6940   -7.3100   27.6320 O.2   179  ARG179     -0.2864
     50  CB        13.8340   -8.4740   30.4200 C.3   179  ARG179      0.0334
     51  CG        12.3160   -8.4220   30.6550 C.3   179  ARG179      0.0492
     52  CD        11.7940   -9.6050   31.5040 C.3   179  ARG179      0.2205
     53  NE        12.4610   -9.6340   32.8170 N.pl3 179  ARG179     -0.0865
     54  CZ        12.1300  -10.4800   33.7920 C.cat 179  ARG179      0.5346
     55  NH1       11.1280  -11.3530   33.5990 N.pl3 179  ARG179      0.1354
     56  NH2       12.8030  -10.4700   34.9520 N.pl3 179  ARG179      0.1354
     57  N         14.8170   -2.0700   39.3860 N.3   202  ASP202     -0.1239
     58  CA        15.5520   -3.3050   39.1980 C.3   202  ASP202      0.1674
     59  C         16.4420   -3.1930   37.9550 C.2   202  ASP202      0.2266
     60  O         17.1710   -4.1210   37.5900 O.2   202  ASP202     -0.2867
     61  CB        14.6160   -4.5420   39.0970 C.3   202  ASP202      0.1410
     62  CG        14.3640   -5.1820   40.4520 C.2   202  ASP202      0.3668
     63  OD1       14.2090   -4.4410   41.4530 O.co2 202  ASP202     -0.2456
     64  OD2       14.3760   -6.4420   40.4900 O.co2 202  ASP202     -0.2456
     65  N         17.0000    1.8320   44.5160 N.3   223  TYR223     -0.1227
     66  CA        17.0700    0.7340   45.4560 C.3   223  TYR223      0.1736
     67  C         16.1490   -0.4120   45.0670 C.2   223  TYR223      0.2596
     68  O         15.1920   -0.2290   44.3120 O.2   223  TYR223     -0.2718
     69  CB        16.6220    1.2570   46.8230 C.3   223  TYR223      0.0548
     70  CG        17.4910    2.3780   47.3330 C.ar  223  TYR223     -0.0200
     71  CD1       18.6790    2.1080   47.9850 C.ar  223  TYR223     -0.0009
     72  CD2       17.0950    3.7170   47.1700 C.ar  223  TYR223     -0.0009
     73  CE1       19.4850    3.1600   48.4340 C.ar  223  TYR223      0.0417
     74  CE2       17.8910    4.7670   47.6310 C.ar  223  TYR223      0.0417
     75  CZ        19.0760    4.4700   48.2570 C.ar  223  TYR223      0.1957
     76  OH        19.8730    5.5020   48.7370 O.3   223  TYR223     -0.2866
     77  N         16.4030   -1.5870   45.6380 N.am  224  SER224     -0.1938
     78  CA        15.4970   -2.7200   45.4670 C.3   224  SER224      0.2055
     79  C         15.5610   -3.5860   46.7120 C.2   224  SER224      0.2642
     80  O         16.3040   -3.2720   47.6340 O.2   224  SER224     -0.2714
     81  CB        15.8600   -3.5390   44.2360 C.3   224  SER224      0.2130
     82  OG        14.8220   -4.4800   43.9840 O.3   224  SER224     -0.2179
     83  N         14.7850   -4.6710   46.7250 N.am  225  VAL225     -0.1977
     84  CA        14.7620   -5.5990   47.8750 C.3   225  VAL225      0.1596
     85  C         14.6170   -6.9980   47.3000 C.2   225  VAL225      0.2287
     86  O         14.1750   -7.1390   46.1640 O.2   225  VAL225     -0.2864
     87  CB        13.5700   -5.3320   48.8330 C.3   225  VAL225      0.0276
     88  CG1       13.6890   -3.9310   49.5220 C.3   225  VAL225      0.0022
     89  CG2       12.2610   -5.5110   48.1240 C.3   225  VAL225      0.0022
     90  N         13.3990  -10.6950   46.0890 N.3   227  ALA227     -0.1231
     91  CA        12.0940  -11.1920   45.6470 C.3   227  ALA227      0.1694
     92  C         12.2970  -12.4590   44.8520 C.2   227  ALA227      0.2592
     93  O         13.3610  -12.6620   44.2670 O.2   227  ALA227     -0.2718
     94  CB        11.4010  -10.1160   44.7440 C.3   227  ALA227      0.0304
     95  N         11.2440  -13.2670   44.7720 N.am  228  ALA228     -0.1966
     96  CA        11.2230  -14.4600   43.9360 C.3   228  ALA228      0.1728
     97  C         10.9250  -14.1740   42.4890 C.2   228  ALA228      0.2616
     98  O         10.4080  -13.1290   42.1430 O.2   228  ALA228     -0.2715
     99  CB        10.1590  -15.4200   44.4910 C.3   228  ALA228      0.0334
    100  N         11.2440  -15.1310   41.6210 N.am  229  GLU229     -0.1977
    101  CA        10.6650  -15.1180   40.2830 C.3   229  GLU229      0.1602
    102  C          9.9650  -16.4520   40.1050 C.2   229  GLU229      0.2287
    103  O         10.0660  -17.3340   40.9680 O.2   229  GLU229     -0.2864
    104  CB        11.7230  -14.8930   39.2000 C.3   229  GLU229      0.0415
    105  CG        12.7610  -16.0460   39.0990 C.3   229  GLU229      0.1163
    106  CD        13.7830  -15.7820   37.9850 C.2   229  GLU229      0.3649
    107  OE1       14.0660  -14.5850   37.7210 O.co2 229  GLU229     -0.2457
    108  OE2       14.2970  -16.7710   37.3930 O.co2 229  GLU229     -0.2457
    109  N         12.4430   -6.7140   53.6590 N.3   256  PRO256     -0.2116
    110  CA        11.1980   -6.9090   52.9000 C.3   256  PRO256      0.1372
    111  C         11.4470   -7.9960   51.8450 C.2   256  PRO256      0.2244
    112  O         12.5770   -8.1230   51.3390 O.2   256  PRO256     -0.2868
    113  CB        10.9860   -5.5590   52.1880 C.3   256  PRO256      0.0268
    114  CG        11.8110   -4.5600   52.9920 C.3   256  PRO256      0.0207
    115  CD        12.9970   -5.3580   53.4960 C.3   256  PRO256      0.0892
    116  N          9.4580   -9.8550   48.2990 N.3   258  SER258     -0.1217
    117  CA         8.2810   -9.9930   47.4250 C.3   258  SER258      0.1889
    118  C          8.2330  -11.4030   46.8730 C.2   258  SER258      0.2288
    119  O          9.2530  -11.9590   46.4970 O.2   258  SER258     -0.2866
    120  CB         8.4110   -8.9960   46.2750 C.3   258  SER258      0.2089
    121  OG         7.2520   -9.1170   45.4470 O.3   258  SER258     -0.2183
    122  N          8.1030   -6.4420   55.5140 N.3   290  PRO290     -0.2116
    123  CA         6.8450   -7.1000   55.1710 C.3   290  PRO290      0.1372
    124  C          7.0360   -8.1660   54.0880 C.2   290  PRO290      0.2244
    125  O          8.0010   -8.1220   53.3230 O.2   290  PRO290     -0.2868
    126  CB         6.0120   -5.9480   54.5480 C.3   290  PRO290      0.0268
    127  CG         7.0680   -5.0160   53.9770 C.3   290  PRO290      0.0207
    128  CD         8.1760   -5.0440   55.0310 C.3   290  PRO290      0.0892
    129  N          5.5990   -9.0130   50.6180 N.3   292  ILE292     -0.1245
    130  CA         4.8940   -8.3000   49.5550 C.3   292  ILE292      0.1561
    131  C          4.4100   -9.3440   48.5560 C.2   292  ILE292      0.2260
    132  O          5.2090   -9.9050   47.8140 O.2   292  ILE292     -0.2867
    133  CB         5.8110   -7.2590   48.8980 C.3   292  ILE292      0.0252
    134  CG1        6.3880   -6.3360   49.9750 C.3   292  ILE292      0.0019
    135  CG2        4.9880   -6.4270   47.8480 C.3   292  ILE292      0.0019
    136  CD1        7.7160   -5.7350   49.6290 C.3   292  ILE292      0.0001
    137  N          2.8880  -10.8720   45.2650 N.3   294  ARG294     -0.1245
    138  CA         2.8140  -10.4340   43.8810 C.3   294  ARG294      0.1563
    139  C          1.9420  -11.3350   43.0110 C.2   294  ARG294      0.2260
    140  O          2.3360  -12.4360   42.6370 O.2   294  ARG294     -0.2867
    141  CB         4.2280  -10.3450   43.2820 C.3   294  ARG294      0.0307
    142  CG         4.1490   -9.9830   41.7940 C.3   294  ARG294      0.0489
    143  CD         5.4110   -9.4210   41.1710 C.3   294  ARG294      0.2205
    144  NE         6.4950  -10.3850   41.0390 N.pl3 294  ARG294     -0.0865
    145  CZ         6.8350  -11.0530   39.9250 C.cat 294  ARG294      0.5346
    146  NH1        6.1880  -10.9480   38.7690 N.pl3 294  ARG294      0.1354
    147  NH2        7.8620  -11.8730   39.9930 N.pl3 294  ARG294      0.1354
    148  N          2.1530   -6.1570   45.4740 N.3   334  ILE334     -0.1245
    149  CA         2.6750   -5.4310   44.3080 C.3   334  ILE334      0.1561
    150  C          2.0880   -5.9910   43.0220 C.2   334  ILE334      0.2260
    151  O          2.0600   -7.2080   42.8300 O.2   334  ILE334     -0.2867
    152  CB         4.2180   -5.3960   44.2450 C.3   334  ILE334      0.0252
    153  CG1        4.6930   -4.5660   43.0340 C.3   334  ILE334      0.0019
    154  CG2        4.8200   -6.8120   44.2140 C.3   334  ILE334      0.0019
    155  CD1        6.1650   -4.2580   43.0720 C.3   334  ILE334      0.0001
    156  N          2.7250   -6.1050   39.1860 N.3   336  GLY336     -0.1225
    157  CA         3.7850   -5.8490   38.2270 C.3   336  GLY336      0.1811
    158  C          3.5510   -6.5070   36.8690 C.2   336  GLY336      0.2280
    159  O          4.5180   -6.8000   36.1570 O.2   336  GLY336     -0.2866
    160  N          1.8890   -1.4080   45.6550 N.3   362  ALA362     -0.1245
    161  CA         2.9060   -0.7560   44.8370 C.3   362  ALA362      0.1562
    162  C          2.7800   -1.3560   43.4450 C.2   362  ALA362      0.2260
    163  O          2.1100   -2.3780   43.2640 O.2   362  ALA362     -0.2867
    164  CB         4.2940   -1.0040   45.4090 C.3   362  ALA362      0.0290
@<TRIPOS>BOND
     1    49    48    2
     2    48    47    1
     3    37    36    2
     4    47    50    1
     5    47    46    1
     6    50    51    1
     7    51    52    1
     8    36    46   am
     9    36    35    1
    10    43    41   ar
    11    43    44   ar
    12    52    53    1
    13    41    39   ar
    14    35    34    1
    15    35    38    1
    16    45    44    1
    17    44    42   ar
    18    53    54    2
    19    39    38    1
    20    39    40   ar
    21    55    54    1
    22    42    40   ar
    23    54    56    1
    24    26    25    2
    25    25    24    1
    26    24    27    1
    27    24    23    1
    28    27    28    1
    29   159   158    2
    30   158   157    1
    31   108   106   ar
    32    28    30   ar
    33    28    29   ar
    34    30    32   ar
    35    60    59    2
    36   107   106   ar
    37    59    58    1
    38   106   105    1
    39   157   156    1
    40    16    15    2
    41    29    31   ar
    42   146   145    1
    43    32    33   ar
    44    15    14    1
    45    61    58    1
    46    61    62    1
    47   105   104    1
    48    58    57    1
    49   104   101    1
    50    31    33   ar
    51   145   147    1
    52   145   144    2
    53   102   101    1
    54   102   103    2
    55   101   100    1
    56    14    13    1
    57    14    17    1
    58    62    64   ar
    59    62    63   ar
    60   144   143    1
    61    20    18   ar
    62    20    22   ar
    63   143   142    1
    64    17    18    1
    65   100    97   am
    66    18    19   ar
    67   142   141    1
    68    22    21   ar
    69    98    97    2
    70    97    96    1
    71   140   139    2
    72   151   150    2
    73    19    21   ar
    74   139   138    1
    75   150   149    1
    76   153   155    1
    77   153   152    1
    78   163   162    2
    79   141   138    1
    80   162   161    1
    81   138   137    1
    82    96    99    1
    83    96    95    1
    84    82    81    1
    85   154   152    1
    86    81    78    1
    87   152   149    1
    88    93    92    2
    89   149   148    1
    90    68    67    2
    91    65    66    1
    92    94    91    1
    93    95    92   am
    94   161   164    1
    95   161   160    1
    96    92    91    1
    97    67    66    1
    98    67    77   am
    99   121   120    1
   100     3     4    2
   101     3     2    1
   102    66    69    1
   103    78    77    1
   104    78    79    1
   105    91    90    1
   106     2     1    1
   107     2     5    1
   108    86    85    2
   109   120   117    1
   110   119   118    2
   111    79    83   am
   112    79    80    2
   113    83    84    1
   114    69    70    1
   115   118   117    1
   116     7     9   ar
   117     7     6   ar
   118    72    70   ar
   119    72    74   ar
   120    85    84    1
   121    70    71   ar
   122     5     6    1
   123   117   116    1
   124     9    11   ar
   125    74    75   ar
   126     6     8   ar
   127   132   131    2
   128   135   133    1
   129    84    87    1
   130    71    73   ar
   131    89    87    1
   132    75    73   ar
   133    75    76    1
   134    11    12    1
   135    11    10   ar
   136   131   130    1
   137     8    10   ar
   138    87    88    1
   139   133   130    1
   140   133   134    1
   141   130   129    1
   142   136   134    1
   143   112   111    2
   144   111   110    1
   145   113   110    1
   146   113   114    1
   147   110   109    1
   148   114   115    1
   149   125   124    2
   150   115   109    1
   151   127   126    1
   152   127   128    1
   153   124   123    1
   154   126   123    1
   155   128   122    1
   156   123   122    1
