@<TRIPOS>MOLECULE
tmp/4o12A00.pdb
 157 149 0 0 0
SMALL
GASTEIGER

@<TRIPOS>ATOM
      1  N         13.7990   -2.6920   -1.6540 N.3   172  TYR172     -0.1241
      2  CA        14.1100   -1.2760   -1.4860 C.3   172  TYR172      0.1605
      3  C         12.8480   -0.4370   -1.2820 C.2   172  TYR172      0.2264
      4  O         12.8890    0.7850   -1.4000 O.2   172  TYR172     -0.2867
      5  CB        14.8920   -0.7420   -2.6940 C.3   172  TYR172      0.0534
      6  CG        16.3060   -1.2740   -2.8330 C.ar  172  TYR172     -0.0201
      7  CD1       16.5910   -2.3300   -3.6920 C.ar  172  TYR172     -0.0009
      8  CD2       17.3570   -0.7110   -2.1160 C.ar  172  TYR172     -0.0009
      9  CE1       17.8800   -2.8170   -3.8260 C.ar  172  TYR172      0.0417
     10  CE2       18.6530   -1.1920   -2.2450 C.ar  172  TYR172      0.0417
     11  CZ        18.9080   -2.2440   -3.1020 C.ar  172  TYR172      0.1957
     12  OH        20.1920   -2.7290   -3.2380 O.3   172  TYR172     -0.2866
     13  N         12.1380    1.8400    3.5160 N.3   175  HIS175     -0.1241
     14  CA        13.3750    2.4560    3.9670 C.3   175  HIS175      0.1621
     15  C         13.3510    2.7740    5.4630 C.2   175  HIS175      0.2264
     16  O         12.3550    3.2670    5.9920 O.2   175  HIS175     -0.2867
     17  CB        13.6770    3.7210    3.1600 C.3   175  HIS175      0.0745
     18  CG        15.1260    4.0960    3.1580 C.ar  175  HIS175      0.0817
     19  ND1       16.0030    3.6680    2.1860 N.ar  175  HIS175     -0.2268
     20  CD2       15.8550    4.8420    4.0220 C.ar  175  HIS175      0.1154
     21  CE1       17.2090    4.1420    2.4440 C.ar  175  HIS175      0.1986
     22  NE2       17.1470    4.8570    3.5530 N.ar  175  HIS175     -0.2212
     23  N         13.9560    4.8640    8.4740 N.3   177  PHE177     -0.1241
     24  CA        14.1090    6.2690    8.8490 C.3   177  PHE177      0.1605
     25  C         14.3200    6.4440   10.3540 C.2   177  PHE177      0.2264
     26  O         14.5830    7.5500   10.8200 O.2   177  PHE177     -0.2867
     27  CB        12.8610    7.0770    8.4610 C.3   177  PHE177      0.0534
     28  CG        12.7440    7.3730    6.9920 C.ar  177  PHE177     -0.0203
     29  CD1       11.6230    8.0260    6.4980 C.ar  177  PHE177     -0.0042
     30  CD2       13.7420    7.0040    6.1060 C.ar  177  PHE177     -0.0042
     31  CE1       11.5010    8.3070    5.1480 C.ar  177  PHE177     -0.0003
     32  CE2       13.6230    7.2790    4.7520 C.ar  177  PHE177     -0.0003
     33  CZ        12.5000    7.9310    4.2750 C.ar  177  PHE177     -0.0000
     34  N         16.3390    6.0980   12.9110 N.3   179  TYR179     -0.1227
     35  CA        17.5330    6.3510   13.7180 C.3   179  TYR179      0.1736
     36  C         17.2480    7.3270   14.8700 C.2   179  TYR179      0.2595
     37  O         17.6260    7.0750   16.0160 O.2   179  TYR179     -0.2718
     38  CB        18.6640    6.8820   12.8320 C.3   179  TYR179      0.0548
     39  CG        20.0660    6.7320   13.3940 C.ar  179  TYR179     -0.0200
     40  CD1       20.2820    6.3840   14.7190 C.ar  179  TYR179     -0.0009
     41  CD2       21.1770    6.9510   12.5900 C.ar  179  TYR179     -0.0009
     42  CE1       21.5580    6.2570   15.2280 C.ar  179  TYR179      0.0417
     43  CE2       22.4590    6.8260   13.0910 C.ar  179  TYR179      0.0417
     44  CZ        22.6420    6.4780   14.4110 C.ar  179  TYR179      0.1957
     45  OH        23.9110    6.3470   14.9190 O.3   179  TYR179     -0.2866
     46  N         16.5710    8.4300   14.5650 N.am  180  ARG180     -0.1980
     47  CA        16.2800    9.4470   15.5730 C.3   180  ARG180      0.1597
     48  C         15.0990    9.0450   16.4490 C.2   180  ARG180      0.2287
     49  O         14.8810    9.6240   17.5160 O.2   180  ARG180     -0.2864
     50  CB        15.9700   10.7870   14.9080 C.3   180  ARG180      0.0334
     51  CG        14.5310   10.9100   14.4430 C.3   180  ARG180      0.0492
     52  CD        14.3500   12.0710   13.4890 C.3   180  ARG180      0.2205
     53  NE        15.3580   12.0680   12.4330 N.pl3 180  ARG180     -0.0865
     54  CZ        15.2810   12.8010   11.3280 C.cat 180  ARG180      0.5346
     55  NH1       14.2340   13.5870   11.1290 N.pl3 180  ARG180      0.1354
     56  NH2       16.2460   12.7470   10.4200 N.pl3 180  ARG180      0.1354
     57  N         17.3900   -1.0940    2.0260 N.3   201  GLY201     -0.1225
     58  CA        17.3520    0.3550    2.1400 C.3   201  GLY201      0.1811
     59  C         17.2860    0.8500    3.5730 C.2   201  GLY201      0.2280
     60  O         16.3170    0.5920    4.2870 O.2   201  GLY201     -0.2866
     61  N         18.6880    4.2140    6.4520 N.3   203  ASP203     -0.1239
     62  CA        19.3370    5.4910    6.7310 C.3   203  ASP203      0.1674
     63  C         20.0520    5.4210    8.0750 C.2   203  ASP203      0.2266
     64  O         20.9760    6.1890    8.3460 O.2   203  ASP203     -0.2867
     65  CB        18.3240    6.6410    6.7270 C.3   203  ASP203      0.1410
     66  CG        18.4740    7.5480    5.5180 C.2   203  ASP203      0.3668
     67  OD1       18.6150    7.0230    4.3950 O.co2 203  ASP203     -0.2456
     68  OD2       18.4710    8.7860    5.6880 O.co2 203  ASP203     -0.2456
     69  N         21.9320    0.5560    1.8130 N.3   224  TYR224     -0.1227
     70  CA        22.2140    1.6580    0.8990 C.3   224  TYR224      0.1736
     71  C         21.2230    2.8160    1.0210 C.2   224  TYR224      0.2596
     72  O         20.1090    2.6450    1.5140 O.2   224  TYR224     -0.2718
     73  CB        22.2130    1.1600   -0.5490 C.3   224  TYR224      0.0548
     74  CG        23.1700    0.0250   -0.8260 C.ar  224  TYR224     -0.0200
     75  CD1       22.7570   -1.2960   -0.7160 C.ar  224  TYR224     -0.0009
     76  CD2       24.4820    0.2720   -1.2120 C.ar  224  TYR224     -0.0009
     77  CE1       23.6220   -2.3380   -0.9730 C.ar  224  TYR224      0.0417
     78  CE2       25.3570   -0.7680   -1.4720 C.ar  224  TYR224      0.0417
     79  CZ        24.9200   -2.0720   -1.3500 C.ar  224  TYR224      0.1957
     80  OH        25.7780   -3.1180   -1.6050 O.3   224  TYR224     -0.2866
     81  N         21.6350    3.9910    0.5500 N.am  225  SER225     -0.1938
     82  CA        20.7520    5.1510    0.5000 C.3   225  SER225      0.2055
     83  C         21.1170    6.0910   -0.6540 C.2   225  SER225      0.2642
     84  O         22.1640    5.9400   -1.2820 O.2   225  SER225     -0.2714
     85  CB        20.7760    5.9060    1.8320 C.3   225  SER225      0.2130
     86  OG        19.7020    6.8260    1.9170 O.3   225  SER225     -0.2179
     87  N         20.2450    7.0570   -0.9310 N.am  226  VAL226     -0.1977
     88  CA        20.4800    8.0240   -2.0000 C.3   226  VAL226      0.1596
     89  C         20.4630    9.4510   -1.4450 C.2   226  VAL226      0.2287
     90  O         19.9020    9.6920   -0.3760 O.2   226  VAL226     -0.2864
     91  CB        19.4260    7.8920   -3.1270 C.3   226  VAL226      0.0276
     92  CG1       19.3890    6.4660   -3.6610 C.3   226  VAL226      0.0022
     93  CG2       18.0560    8.3220   -2.6340 C.3   226  VAL226      0.0022
     94  N         19.2900   12.8850   -0.4650 N.3   228  ALA228     -0.1231
     95  CA        17.9330   13.3590   -0.2330 C.3   228  ALA228      0.1694
     96  C         17.9170   14.5960    0.6500 C.2   228  ALA228      0.2592
     97  O         18.8860   14.8810    1.3580 O.2   228  ALA228     -0.2718
     98  CB        17.0810   12.2590    0.3750 C.3   228  ALA228      0.0304
     99  N         16.8060   15.3240    0.6050 N.am  229  ALA229     -0.1966
    100  CA        16.6650   16.5650    1.3570 C.3   229  ALA229      0.1728
    101  C         15.8360   16.3810    2.6210 C.2   229  ALA229      0.2616
    102  O         15.0720   15.4240    2.7450 O.2   229  ALA229     -0.2715
    103  CB        16.0410   17.6430    0.4780 C.3   229  ALA229      0.0334
    104  N         16.0100   17.3020    3.5610 N.am  230  GLU230     -0.1977
    105  CA        15.1280   17.4040    4.7140 C.3   230  GLU230      0.1602
    106  C         14.4830   18.7800    4.6660 C.2   230  GLU230      0.2287
    107  O         14.7480   19.5560    3.7470 O.2   230  GLU230     -0.2864
    108  CB        15.8950   17.2050    6.0230 C.3   230  GLU230      0.0415
    109  CG        16.8980   18.3010    6.3490 C.3   230  GLU230      0.1163
    110  CD        17.6980   17.9930    7.6030 C.2   230  GLU230      0.3649
    111  OE1       18.3160   18.9170    8.1690 O.co2 230  GLU230     -0.2457
    112  OE2       17.7090   16.8190    8.0240 O.co2 230  GLU230     -0.2457
    113  N         19.9830    9.0530   -8.1900 N.3   257  PRO257     -0.2116
    114  CA        18.6280    9.1820   -7.6470 C.3   257  PRO257      0.1372
    115  C         18.6080   10.2070   -6.5220 C.2   257  PRO257      0.2244
    116  O         19.5370   10.2510   -5.7120 O.2   257  PRO257     -0.2868
    117  CB        18.3420    7.7880   -7.0850 C.3   257  PRO257      0.0268
    118  CG        19.2070    6.8800   -7.8730 C.3   257  PRO257      0.0207
    119  CD        20.4530    7.6560   -8.1650 C.3   257  PRO257      0.0892
    120  N         15.9010   12.3080   -3.6390 N.3   259  SER259     -0.1217
    121  CA        14.5880   12.4470   -3.0330 C.3   259  SER259      0.1889
    122  C         14.4290   13.8300   -2.4210 C.2   259  SER259      0.2288
    123  O         15.3130   14.3060   -1.7140 O.2   259  SER259     -0.2866
    124  CB        14.3730   11.3760   -1.9690 C.3   259  SER259      0.2089
    125  OG        13.0870   11.5020   -1.3950 O.3   259  SER259     -0.2183
    126  N         12.6390   11.5280   -6.9440 N.3   293  ILE293     -0.1245
    127  CA        11.7080   10.8970   -6.0240 C.3   293  ILE293      0.1561
    128  C         11.0160   11.9680   -5.1910 C.2   293  ILE293      0.2260
    129  O         11.6280   12.5900   -4.3210 O.2   293  ILE293     -0.2867
    130  CB        12.4170    9.8780   -5.1150 C.3   293  ILE293      0.0252
    131  CG1       13.2260    8.8890   -5.9640 C.3   293  ILE293      0.0019
    132  CG2       11.4050    9.1510   -4.2450 C.3   293  ILE293      0.0019
    133  CD1       14.1050    7.9520   -5.1610 C.3   293  ILE293      0.0001
    134  N          8.6610   13.4270   -2.3660 N.3   295  ARG295     -0.1245
    135  CA         8.3710   12.9460   -1.0220 C.3   295  ARG295      0.1563
    136  C          7.3920   13.8270   -0.2520 C.2   295  ARG295      0.2260
    137  O          7.7610   14.8950    0.2370 O.2   295  ARG295     -0.2867
    138  CB         9.6670   12.7970   -0.2210 C.3   295  ARG295      0.0307
    139  CG         9.4470   12.3620    1.2190 C.3   295  ARG295      0.0489
    140  CD        10.7580   12.2140    1.9660 C.3   295  ARG295      0.2205
    141  NE        10.5390   12.1390    3.4060 N.pl3 295  ARG295     -0.0865
    142  CZ        11.2260   12.8360    4.3030 C.cat 295  ARG295      0.5346
    143  NH1       12.1880   13.6590    3.9100 N.pl3 295  ARG295      0.1354
    144  NH2       10.9540   12.7060    5.5940 N.pl3 295  ARG295      0.1354
    145  N          8.0830    8.5500   -2.6820 N.3   335  ILE335     -0.1245
    146  CA         8.3040    7.8810   -1.4090 C.3   335  ILE335      0.1561
    147  C          7.4380    8.4960   -0.3150 C.2   335  ILE335      0.2260
    148  O          7.3990    9.7140   -0.1400 O.2   335  ILE335     -0.2867
    149  CB         9.8080    7.8290   -1.0040 C.3   335  ILE335      0.0252
    150  CG1        9.9900    6.9220    0.2150 C.3   335  ILE335      0.0019
    151  CG2       10.3690    9.2210   -0.7390 C.3   335  ILE335      0.0019
    152  CD1       11.4270    6.5920    0.5320 C.3   335  ILE335      0.0001
    153  N          7.8620    3.7620   -3.0790 N.3   363  ALA363     -0.1245
    154  CA         8.5560    3.0680   -2.0050 C.3   363  ALA363      0.1562
    155  C          8.1320    3.7350   -0.7080 C.2   363  ALA363      0.2260
    156  O          7.6420    4.8610   -0.7190 O.2   363  ALA363     -0.2867
    157  CB        10.0590    3.1550   -2.1840 C.3   363  ALA363      0.0290
@<TRIPOS>BOND
     1   113   119    1
     2   113   114    1
     3   119   118    1
     4   118   117    1
     5   114   117    1
     6   114   115    1
     7   126   127    1
     8   115   116    2
     9   127   128    1
    10   127   130    1
    11   131   133    1
    12   131   130    1
    13   128   129    2
    14   130   132    1
    15     9     7   ar
    16     9    11   ar
    17     7     6   ar
    18    92    91    1
    19   120   121    1
    20    12    11    1
    21    91    93    1
    22    91    88    1
    23    11    10   ar
    24   153   154    1
    25   121   122    1
    26   121   124    1
    27     6     5    1
    28     6     8   ar
    29     5     2    1
    30   145   146    1
    31   122   123    2
    32   134   135    1
    33    10     8   ar
    34   157   154    1
    35   154   155    1
    36    88    89    1
    37    88    87    1
    38   124   125    1
    39     1     2    1
    40    80    79    1
    41     2     3    1
    42    78    79   ar
    43    78    76   ar
    44    89    90    2
    45   146   149    1
    46   146   147    1
    47     4     3    2
    48    79    77   ar
    49    84    83    2
    50    76    74   ar
    51   135   136    1
    52   135   138    1
    53   149   151    1
    54   149   150    1
    55    77    75   ar
    56    87    83   am
    57    74    75   ar
    58    74    73    1
    59   156   155    2
    60    83    82    1
    61    73    70    1
    62    94    95    1
    63   147   148    2
    64   136   137    2
    65    95    98    1
    66    95    96    1
    67   138   139    1
    68   150   152    1
    69   103   100    1
    70    82    81    1
    71    82    85    1
    72    81    71   am
    73    99    96   am
    74    99   100    1
    75    96    97    2
    76    70    71    1
    77    70    69    1
    78    71    72    2
    79   139   140    1
    80   100   101    1
    81    85    86    1
    82   140   141    1
    83    57    58    1
    84    58    59    1
    85    19    21   ar
    86    19    18   ar
    87    21    22   ar
    88   101   102    2
    89   101   104   am
    90    18    17    1
    91    18    20   ar
    92    17    14    1
    93   141   142    2
    94    13    14    1
    95    22    20   ar
    96   104   105    1
    97    59    60    2
    98   107   106    2
    99   143   142    1
   100    14    15    1
   101    33    32   ar
   102    33    31   ar
   103   142   144    1
   104    67    66   ar
   105   106   105    1
   106   105   108    1
   107    32    30   ar
   108    31    29   ar
   109    15    16    2
   110    66    68   ar
   111    66    65    1
   112   108   109    1
   113    30    28   ar
   114   109   110    1
   115    61    62    1
   116    29    28   ar
   117    65    62    1
   118    62    63    1
   119    28    27    1
   120   110   112   ar
   121   110   111   ar
   122    63    64    2
   123    27    24    1
   124    23    24    1
   125    24    25    1
   126    25    26    2
   127    56    54    1
   128    55    54    1
   129    54    53    2
   130    53    52    1
   131    41    43   ar
   132    41    39   ar
   133    38    39    1
   134    38    35    1
   135    34    35    1
   136    43    44   ar
   137    39    40   ar
   138    52    51    1
   139    35    36    1
   140    44    45    1
   141    44    42   ar
   142    51    50    1
   143    46    36   am
   144    46    47    1
   145    40    42   ar
   146    36    37    2
   147    50    47    1
   148    47    48    1
   149    48    49    2
