@<TRIPOS>MOLECULE
tmp/4o15B00.pdb
 164 156 0 0 0
SMALL
GASTEIGER

@<TRIPOS>ATOM
      1  N          8.0670    5.6560   46.6610 N.3   171  TYR171     -0.1241
      2  CA         8.3040    4.2130   46.5130 C.3   171  TYR171      0.1605
      3  C          7.0760    3.4750   45.9850 C.2   171  TYR171      0.2264
      4  O          7.0180    2.2440   46.0470 O.2   171  TYR171     -0.2867
      5  CB         8.7560    3.6000   47.8500 C.3   171  TYR171      0.0534
      6  CG        10.1170    4.1000   48.2690 C.ar  171  TYR171     -0.0201
      7  CD1       11.2670    3.5870   47.6900 C.ar  171  TYR171     -0.0009
      8  CD2       10.2520    5.1140   49.2060 C.ar  171  TYR171     -0.0009
      9  CE1       12.5190    4.0470   48.0510 C.ar  171  TYR171      0.0417
     10  CE2       11.5030    5.5810   49.5760 C.ar  171  TYR171      0.0417
     11  CZ        12.6310    5.0430   48.9860 C.ar  171  TYR171      0.1957
     12  OH        13.8850    5.4890   49.3290 O.3   171  TYR171     -0.2866
     13  N          7.5410    1.2480   41.1660 N.3   174  HIS174     -0.1241
     14  CA         8.8780    0.6690   41.0860 C.3   174  HIS174      0.1621
     15  C          9.1730    0.3370   39.6280 C.2   174  HIS174      0.2264
     16  O          8.2950   -0.1230   38.9150 O.2   174  HIS174     -0.2867
     17  CB         8.9270   -0.6070   41.9510 C.3   174  HIS174      0.0745
     18  CG        10.3150   -1.0540   42.3040 C.ar  174  HIS174      0.0817
     19  ND1       10.9320   -0.6950   43.4840 N.ar  174  HIS174     -0.2268
     20  CD2       11.2000   -1.8380   41.6410 C.ar  174  HIS174      0.1154
     21  CE1       12.1390   -1.2350   43.5310 C.ar  174  HIS174      0.1986
     22  NE2       12.3280   -1.9270   42.4220 N.ar  174  HIS174     -0.2212
     23  N         10.2030   -1.9030   36.8200 N.3   176  PHE176     -0.1241
     24  CA        10.3390   -3.3320   36.4890 C.3   176  PHE176      0.1605
     25  C         10.7660   -3.5260   35.0150 C.2   176  PHE176      0.2264
     26  O         10.7290   -4.6490   34.4910 O.2   176  PHE176     -0.2867
     27  CB         8.9820   -4.0520   36.6330 C.3   176  PHE176      0.0534
     28  CG         8.5650   -4.3890   38.0530 C.ar  176  PHE176     -0.0203
     29  CD1        7.5320   -5.2980   38.2660 C.ar  176  PHE176     -0.0042
     30  CD2        9.1670   -3.8020   39.1570 C.ar  176  PHE176     -0.0042
     31  CE1        7.1190   -5.6280   39.5570 C.ar  176  PHE176     -0.0003
     32  CE2        8.7600   -4.1290   40.4600 C.ar  176  PHE176     -0.0003
     33  CZ         7.7340   -5.0400   40.6560 C.ar  176  PHE176     -0.0000
     34  N         13.4870   -3.3900   32.9400 N.3   178  TYR178     -0.1227
     35  CA        14.8120   -3.6700   32.3680 C.3   178  TYR178      0.1736
     36  C         14.7080   -4.6210   31.1620 C.2   178  TYR178      0.2595
     37  O         15.2470   -4.3400   30.0840 O.2   178  TYR178     -0.2718
     38  CB        15.7270   -4.2630   33.4470 C.3   178  TYR178      0.0548
     39  CG        17.2310   -4.1210   33.2310 C.ar  178  TYR178     -0.0200
     40  CD1       18.1170   -4.3730   34.2770 C.ar  178  TYR178     -0.0009
     41  CD2       17.7670   -3.7890   31.9950 C.ar  178  TYR178     -0.0009
     42  CE1       19.4950   -4.2660   34.1050 C.ar  178  TYR178      0.0417
     43  CE2       19.1520   -3.6960   31.8120 C.ar  178  TYR178      0.0417
     44  CZ        20.0040   -3.9240   32.8770 C.ar  178  TYR178      0.1957
     45  OH        21.3740   -3.8210   32.7240 O.3   178  TYR178     -0.2866
     46  N         13.9940   -5.7310   31.3330 N.am  179  ARG179     -0.1980
     47  CA        13.9410   -6.7480   30.2790 C.3   179  ARG179      0.1597
     48  C         13.1160   -6.3160   29.0790 C.2   179  ARG179      0.2287
     49  O         13.2500   -6.8850   27.9890 O.2   179  ARG179     -0.2864
     50  CB        13.3740   -8.0650   30.8250 C.3   179  ARG179      0.0334
     51  CG        11.8660   -8.0470   31.0620 C.3   179  ARG179      0.0492
     52  CD        11.4330   -9.2560   31.8760 C.3   179  ARG179      0.2205
     53  NE        12.0250   -9.1970   33.2110 N.pl3 179  ARG179     -0.0865
     54  CZ        11.7950  -10.0900   34.1670 C.cat 179  ARG179      0.5346
     55  NH1       10.9820  -11.1120   33.9360 N.pl3 179  ARG179      0.1354
     56  NH2       12.3910   -9.9680   35.3440 N.pl3 179  ARG179      0.1354
     57  N         12.4850    3.6860   43.8320 N.3   200  GLY200     -0.1225
     58  CA        12.5540    2.2280   43.8200 C.3   200  GLY200      0.1811
     59  C         12.7590    1.7240   42.3990 C.2   200  GLY200      0.2280
     60  O         11.9570    2.0040   41.5190 O.2   200  GLY200     -0.2866
     61  N         14.4890   -1.7080   39.8570 N.3   202  ASP202     -0.1239
     62  CA        15.2390   -2.9380   39.6380 C.3   202  ASP202      0.1674
     63  C         16.1400   -2.8210   38.4130 C.2   202  ASP202      0.2266
     64  O         16.8260   -3.7730   38.0370 O.2   202  ASP202     -0.2867
     65  CB        14.3000   -4.1430   39.4940 C.3   202  ASP202      0.1410
     66  CG        14.0560   -4.8590   40.8200 C.2   202  ASP202      0.3668
     67  OD1       13.8690   -4.1720   41.8510 O.co2 202  ASP202     -0.2456
     68  OD2       14.0550   -6.1140   40.8340 O.co2 202  ASP202     -0.2456
     69  N         16.7360    2.1680   45.0170 N.3   223  TYR223     -0.1227
     70  CA        16.8080    1.0420   45.9430 C.3   223  TYR223      0.1736
     71  C         15.9270   -0.1330   45.5230 C.2   223  TYR223      0.2596
     72  O         15.0070    0.0240   44.7390 O.2   223  TYR223     -0.2718
     73  CB        16.3670    1.5100   47.3240 C.3   223  TYR223      0.0548
     74  CG        17.1740    2.6850   47.8130 C.ar  223  TYR223     -0.0200
     75  CD1       18.3970    2.4880   48.4360 C.ar  223  TYR223     -0.0009
     76  CD2       16.7320    3.9960   47.6170 C.ar  223  TYR223     -0.0009
     77  CE1       19.1560    3.5590   48.8770 C.ar  223  TYR223      0.0417
     78  CE2       17.4900    5.0740   48.0500 C.ar  223  TYR223      0.0417
     79  CZ        18.6970    4.8470   48.6810 C.ar  223  TYR223      0.1957
     80  OH        19.4630    5.9020   49.1180 O.3   223  TYR223     -0.2866
     81  N         16.2070   -1.3110   46.0760 N.am  224  SER224     -0.1938
     82  CA        15.3330   -2.4650   45.8820 C.3   224  SER224      0.2055
     83  C         15.3960   -3.3510   47.1210 C.2   224  SER224      0.2642
     84  O         16.1650   -3.0770   48.0460 O.2   224  SER224     -0.2714
     85  CB        15.7320   -3.2500   44.6340 C.3   224  SER224      0.2130
     86  OG        14.7310   -4.1990   44.2870 O.3   224  SER224     -0.2179
     87  N         14.5650   -4.3890   47.1440 N.am  225  VAL225     -0.1977
     88  CA        14.5270   -5.3420   48.2540 C.3   225  VAL225      0.1596
     89  C         14.3570   -6.7350   47.6600 C.2   225  VAL225      0.2287
     90  O         14.0190   -6.8750   46.4800 O.2   225  VAL225     -0.2864
     91  CB        13.3720   -5.0570   49.2660 C.3   225  VAL225      0.0276
     92  CG1       13.5340   -3.6820   49.9480 C.3   225  VAL225      0.0022
     93  CG2       12.0310   -5.1790   48.6040 C.3   225  VAL225      0.0022
     94  N         13.0130  -10.3080   46.3890 N.3   227  ALA227     -0.1231
     95  CA        11.7250  -10.7690   45.8950 C.3   227  ALA227      0.1694
     96  C         11.8960  -12.0680   45.1170 C.2   227  ALA227      0.2592
     97  O         12.9760  -12.3310   44.5910 O.2   227  ALA227     -0.2718
     98  CB        11.0800   -9.7090   45.0020 C.3   227  ALA227      0.0304
     99  N         10.8290  -12.8570   45.0420 N.am  228  ALA228     -0.1966
    100  CA        10.8390  -14.0920   44.2540 C.3   228  ALA228      0.1728
    101  C         10.5160  -13.8130   42.7910 C.2   228  ALA228      0.2616
    102  O         10.0900  -12.7140   42.4480 O.2   228  ALA228     -0.2715
    103  CB         9.8390  -15.1030   44.8370 C.3   228  ALA228      0.0334
    104  N         10.7510  -14.7940   41.9230 N.am  229  GLU229     -0.1977
    105  CA        10.2130  -14.7380   40.5690 C.3   229  GLU229      0.1602
    106  C          9.5580  -16.0800   40.3610 C.2   229  GLU229      0.2287
    107  O          9.6810  -16.9540   41.2170 O.2   229  GLU229     -0.2864
    108  CB        11.3050  -14.4840   39.5130 C.3   229  GLU229      0.0415
    109  CG        12.3020  -15.6390   39.3500 C.3   229  GLU229      0.1163
    110  CD        13.3410  -15.3610   38.2550 C.2   229  GLU229      0.3649
    111  OE1       13.6040  -14.1740   37.9650 O.co2 229  GLU229     -0.2457
    112  OE2       13.8880  -16.3270   37.6830 O.co2 229  GLU229     -0.2457
    113  N         12.1910   -6.4350   54.0750 N.3   256  PRO256     -0.2116
    114  CA        11.0000   -6.5520   53.2350 C.3   256  PRO256      0.1372
    115  C         11.2150   -7.6440   52.1960 C.2   256  PRO256      0.2244
    116  O         12.3360   -7.7890   51.6850 O.2   256  PRO256     -0.2868
    117  CB        10.9460   -5.1970   52.5270 C.3   256  PRO256      0.0268
    118  CG        11.6500   -4.2690   53.4430 C.3   256  PRO256      0.0207
    119  CD        12.7650   -5.0790   54.0150 C.3   256  PRO256      0.0892
    120  N          9.1010   -9.5370   48.7260 N.3   258  SER258     -0.1217
    121  CA         7.9360   -9.6440   47.8660 C.3   258  SER258      0.1889
    122  C          7.9070  -11.0330   47.2460 C.2   258  SER258      0.2288
    123  O          8.9260  -11.5260   46.7860 O.2   258  SER258     -0.2866
    124  CB         7.9760   -8.5710   46.7800 C.3   258  SER258      0.2089
    125  OG         6.8350   -8.6720   45.9500 O.3   258  SER258     -0.2183
    126  N          7.8580   -6.1430   55.9160 N.3   290  PRO290     -0.2116
    127  CA         6.5730   -6.7290   55.5330 C.3   290  PRO290      0.1372
    128  C          6.7330   -7.7950   54.4550 C.2   290  PRO290      0.2244
    129  O          7.7090   -7.7700   53.6990 O.2   290  PRO290     -0.2868
    130  CB         5.8120   -5.5290   54.9530 C.3   290  PRO290      0.0268
    131  CG         6.8910   -4.6620   54.3810 C.3   290  PRO290      0.0207
    132  CD         8.0220   -4.7770   55.3780 C.3   290  PRO290      0.0892
    133  N          5.2750   -8.6550   50.9870 N.3   292  ILE292     -0.1245
    134  CA         4.5560   -7.9310   49.9470 C.3   292  ILE292      0.1561
    135  C          4.0790   -8.9540   48.9290 C.2   292  ILE292      0.2260
    136  O          4.8720   -9.4960   48.1690 O.2   292  ILE292     -0.2867
    137  CB         5.4460   -6.8660   49.2910 C.3   292  ILE292      0.0252
    138  CG1        5.9750   -5.9240   50.3770 C.3   292  ILE292      0.0019
    139  CG2        4.6620   -6.0730   48.2360 C.3   292  ILE292      0.0019
    140  CD1        7.4500   -5.6080   50.2610 C.3   292  ILE292      0.0001
    141  N          2.5300  -10.3820   45.5930 N.3   294  ARG294     -0.1245
    142  CA         2.4830   -9.9160   44.2090 C.3   294  ARG294      0.1563
    143  C          1.6260  -10.8090   43.3290 C.2   294  ARG294      0.2260
    144  O          2.0480  -11.9120   42.9490 O.2   294  ARG294     -0.2867
    145  CB         3.8930   -9.8140   43.5930 C.3   294  ARG294      0.0307
    146  CG         3.8500   -9.3600   42.1220 C.3   294  ARG294      0.0489
    147  CD         5.1650   -8.7850   41.6060 C.3   294  ARG294      0.2205
    148  NE         6.2290   -9.7810   41.5420 N.pl3 294  ARG294     -0.0865
    149  CZ         6.5710  -10.4510   40.4420 C.cat 294  ARG294      0.5346
    150  NH1        5.9350  -10.2500   39.2940 N.pl3 294  ARG294      0.1354
    151  NH2        7.5550  -11.3340   40.4910 N.pl3 294  ARG294      0.1354
    152  N          1.7820   -5.6800   45.9190 N.3   334  ILE334     -0.1245
    153  CA         2.3150   -4.9530   44.7740 C.3   334  ILE334      0.1561
    154  C          1.7490   -5.5240   43.4710 C.2   334  ILE334      0.2260
    155  O          1.6910   -6.7400   43.2870 O.2   334  ILE334     -0.2867
    156  CB         3.8660   -4.9300   44.7700 C.3   334  ILE334      0.0252
    157  CG1        4.3790   -4.0420   43.6340 C.3   334  ILE334      0.0019
    158  CG2        4.4280   -6.3580   44.6920 C.3   334  ILE334      0.0019
    159  CD1        5.8830   -3.8280   43.6460 C.3   334  ILE334      0.0001
    160  N          1.5780   -0.9670   46.1880 N.3   362  ALA362     -0.1245
    161  CA         2.5790   -0.3180   45.3480 C.3   362  ALA362      0.1562
    162  C          2.4300   -0.8890   43.9500 C.2   362  ALA362      0.2260
    163  O          1.7470   -1.8940   43.7560 O.2   362  ALA362     -0.2867
    164  CB         3.9780   -0.5700   45.8730 C.3   362  ALA362      0.0290
@<TRIPOS>BOND
     1    49    48    2
     2    48    47    1
     3    37    36    2
     4    47    50    1
     5    47    46    1
     6    50    51    1
     7    51    52    1
     8    36    46   am
     9    36    35    1
    10    43    41   ar
    11    43    44   ar
    12    52    53    1
    13    41    39   ar
    14    35    34    1
    15    35    38    1
    16    45    44    1
    17    44    42   ar
    18    53    54    2
    19    39    38    1
    20    39    40   ar
    21    55    54    1
    22    42    40   ar
    23    54    56    1
    24    26    25    2
    25    25    24    1
    26    24    27    1
    27    24    23    1
    28    27    28    1
    29   112   110   ar
    30   111   110   ar
    31    64    63    2
    32    28    29   ar
    33    28    30   ar
    34   110   109    1
    35    29    31   ar
    36    63    62    1
    37    16    15    2
    38    30    32   ar
    39   150   149    1
    40   109   108    1
    41    65    62    1
    42    65    66    1
    43   108   105    1
    44    31    33   ar
    45    15    14    1
    46    62    61    1
    47   106   105    1
    48   106   107    2
    49   149   151    1
    50   149   148    2
    51    32    33   ar
    52   105   104    1
    53    66    68   ar
    54    66    67   ar
    55    14    13    1
    56    14    17    1
    57    60    59    2
    58   148   147    1
    59   147   146    1
    60    20    18   ar
    61    20    22   ar
    62   104   101   am
    63    17    18    1
    64   146   145    1
    65    18    19   ar
    66    59    58    1
    67    22    21   ar
    68   102   101    2
    69   101   100    1
    70   144   143    2
    71   155   154    2
    72   143   142    1
    73   154   153    1
    74    19    21   ar
    75   145   142    1
    76   157   159    1
    77   157   156    1
    78   163   162    2
    79    58    57    1
    80   162   161    1
    81   142   141    1
    82   100   103    1
    83   100    99    1
    84    86    85    1
    85    97    96    2
    86    85    82    1
    87   158   156    1
    88    72    71    2
    89   156   153    1
    90   153   152    1
    91    98    95    1
    92    69    70    1
    93    99    96   am
    94    96    95    1
    95   161   164    1
    96   161   160    1
    97    71    70    1
    98    71    81   am
    99    82    81    1
   100    82    83    1
   101    95    94    1
   102    70    73    1
   103   125   124    1
   104     3     4    2
   105     3     2    1
   106    90    89    2
   107     2     1    1
   108     2     5    1
   109   124   121    1
   110   123   122    2
   111    83    87   am
   112    83    84    2
   113    87    88    1
   114   122   121    1
   115    73    74    1
   116    76    74   ar
   117    76    78   ar
   118    89    88    1
   119     7     9   ar
   120     7     6   ar
   121    74    75   ar
   122     5     6    1
   123   121   120    1
   124    78    79   ar
   125     9    11   ar
   126   136   135    2
   127   139   137    1
   128    88    91    1
   129     6     8   ar
   130    75    77   ar
   131    93    91    1
   132    79    77   ar
   133    79    80    1
   134   135   134    1
   135    11    12    1
   136    11    10   ar
   137     8    10   ar
   138    91    92    1
   139   137   134    1
   140   137   138    1
   141   134   133    1
   142   140   138    1
   143   116   115    2
   144   115   114    1
   145   117   114    1
   146   117   118    1
   147   114   113    1
   148   118   119    1
   149   129   128    2
   150   119   113    1
   151   131   130    1
   152   131   132    1
   153   128   127    1
   154   130   127    1
   155   132   126    1
   156   127   126    1
