@<TRIPOS>MOLECULE
tmp/4o1bA00.pdb
 188 176 0 0 0
SMALL
GASTEIGER

@<TRIPOS>ATOM
      1  N         10.4030   -7.0340   -8.8820 N.3   168  ASP168     -0.1225
      2  CA        11.5950   -6.2230   -9.1080 C.3   168  ASP168      0.1805
      3  C         11.6630   -5.0410   -8.1380 C.2   168  ASP168      0.2598
      4  O         10.7270   -4.2480   -8.0520 O.2   168  ASP168     -0.2718
      5  CB        11.6150   -5.6860  -10.5450 C.3   168  ASP168      0.1424
      6  CG        11.8350   -6.7790  -11.5800 C.2   168  ASP168      0.3668
      7  OD1       12.0810   -7.9480  -11.1960 O.co2 168  ASP168     -0.2456
      8  OD2       11.7650   -6.4560  -12.7860 O.co2 168  ASP168     -0.2456
      9  N         12.7630   -4.9420   -7.4000 N.am  169  GLY169     -0.1957
     10  CA        12.9790   -3.7890   -6.5430 C.3   169  GLY169      0.1869
     11  C         12.3330   -3.8410   -5.1600 C.2   169  GLY169      0.2309
     12  O         12.4830   -2.8900   -4.3910 O.2   169  GLY169     -0.2863
     13  N         14.0230   -2.6300   -2.0270 N.3   172  TYR172     -0.1227
     14  CA        14.2940   -1.1980   -1.9040 C.3   172  TYR172      0.1736
     15  C         13.0660   -0.3930   -1.4940 C.2   172  TYR172      0.2595
     16  O         13.1330    0.8270   -1.3990 O.2   172  TYR172     -0.2718
     17  CB        14.8210   -0.6430   -3.2400 C.3   172  TYR172      0.0548
     18  CG        16.0920   -1.3020   -3.7240 C.ar  172  TYR172     -0.0200
     19  CD1       17.2880   -1.1360   -3.0390 C.ar  172  TYR172     -0.0009
     20  CD2       16.1000   -2.0870   -4.8700 C.ar  172  TYR172     -0.0009
     21  CE1       18.4540   -1.7340   -3.4770 C.ar  172  TYR172      0.0417
     22  CE2       17.2550   -2.6850   -5.3130 C.ar  172  TYR172      0.0417
     23  CZ        18.4310   -2.5110   -4.6170 C.ar  172  TYR172      0.1957
     24  OH        19.5900   -3.1150   -5.0650 O.3   172  TYR172     -0.2866
     25  N         11.9500   -1.0750   -1.2490 N.am  173  LYS173     -0.1980
     26  CA        10.6460   -0.4190   -1.1120 C.3   173  LYS173      0.1596
     27  C         10.2700    0.0120    0.3200 C.2   173  LYS173      0.2287
     28  O          9.2830    0.7200    0.5070 O.2   173  LYS173     -0.2864
     29  CB         9.5430   -1.3510   -1.6260 C.3   173  LYS173      0.0298
     30  CG         9.5240   -1.5640   -3.1250 C.3   173  LYS173      0.0038
     31  CD         8.8100   -0.4190   -3.8090 C.3   173  LYS173      0.0206
     32  CE         8.7890   -0.5960   -5.3380 C.3   173  LYS173      0.1093
     33  NZ         8.5800    0.7270   -5.9820 N.3   173  LYS173     -0.1314
     34  N         12.3650    1.7330    3.5070 N.3   175  HIS175     -0.1241
     35  CA        13.6260    2.3920    3.7970 C.3   175  HIS175      0.1621
     36  C         13.5710    2.8490    5.2650 C.2   175  HIS175      0.2264
     37  O         12.6110    3.5000    5.7020 O.2   175  HIS175     -0.2867
     38  CB        13.7410    3.5830    2.8410 C.3   175  HIS175      0.0745
     39  CG        15.0930    4.2230    2.7730 C.ar  175  HIS175      0.0817
     40  ND1       15.6640    4.5950    1.5720 N.ar  175  HIS175     -0.2268
     41  CD2       15.9650    4.6010    3.7400 C.ar  175  HIS175      0.1154
     42  CE1       16.8380    5.1610    1.8030 C.ar  175  HIS175      0.1986
     43  NE2       17.0410    5.1810    3.1110 N.ar  175  HIS175     -0.2212
     44  N         14.1310    5.0160    8.2770 N.3   177  PHE177     -0.1241
     45  CA        14.2960    6.4290    8.6130 C.3   177  PHE177      0.1605
     46  C         14.3520    6.5840   10.1540 C.2   177  PHE177      0.2264
     47  O         14.1290    7.6850   10.6720 O.2   177  PHE177     -0.2867
     48  CB        13.0600    7.2300    8.1660 C.3   177  PHE177      0.0534
     49  CG        12.9370    7.4850    6.6720 C.ar  177  PHE177     -0.0203
     50  CD1       13.7760    6.8820    5.7420 C.ar  177  PHE177     -0.0042
     51  CD2       11.9590    8.3730    6.2170 C.ar  177  PHE177     -0.0042
     52  CE1       13.6360    7.1360    4.3700 C.ar  177  PHE177     -0.0003
     53  CE2       11.7980    8.6410    4.8620 C.ar  177  PHE177     -0.0003
     54  CZ        12.6410    8.0100    3.9250 C.ar  177  PHE177     -0.0000
     55  N         16.6790    8.7600   14.4990 N.3   180  ARG180     -0.1245
     56  CA        16.4010    9.7790   15.5040 C.3   180  ARG180      0.1563
     57  C         15.2960    9.3510   16.4730 C.2   180  ARG180      0.2260
     58  O         15.1980    9.8810   17.5790 O.2   180  ARG180     -0.2867
     59  CB        16.0350   11.1130   14.8650 C.3   180  ARG180      0.0307
     60  CG        14.5810   11.1710   14.4190 C.3   180  ARG180      0.0489
     61  CD        14.3440   12.3850   13.5250 C.3   180  ARG180      0.2205
     62  NE        15.1580   12.2710   12.3160 N.pl3 180  ARG180     -0.0865
     63  CZ        15.1620   13.1460   11.3170 C.cat 180  ARG180      0.5346
     64  NH1       14.3610   14.2060   11.3530 N.pl3 180  ARG180      0.1354
     65  NH2       15.9760   12.9530   10.2780 N.pl3 180  ARG180      0.1354
     66  N         17.7920   -0.8740    2.0560 N.3   201  ARG201     -0.1245
     67  CA        17.8820    0.5900    2.1830 C.3   201  ARG201      0.1563
     68  C         17.7040    1.0920    3.6250 C.2   201  ARG201      0.2260
     69  O         16.7380    0.7470    4.3200 O.2   201  ARG201     -0.2867
     70  CB        16.8810    1.2860    1.2530 C.3   201  ARG201      0.0307
     71  CG        17.2700    1.2430   -0.2190 C.3   201  ARG201      0.0489
     72  CD        18.1420    2.4310   -0.5940 C.3   201  ARG201      0.2205
     73  NE        18.7140    2.3280   -1.9360 N.pl3 201  ARG201     -0.0865
     74  CZ        18.0380    2.5000   -3.0760 C.cat 201  ARG201      0.5346
     75  NH1       18.6810    2.3930   -4.2250 N.pl3 201  ARG201      0.1354
     76  NH2       16.7410    2.7770   -3.0800 N.pl3 201  ARG201      0.1354
     77  N         18.8730    4.6790    6.3430 N.3   203  ASP203     -0.1239
     78  CA        19.6070    5.8900    6.6860 C.3   203  ASP203      0.1674
     79  C         20.1380    5.7570    8.1060 C.2   203  ASP203      0.2266
     80  O         20.7820    6.6670    8.6610 O.2   203  ASP203     -0.2867
     81  CB        18.7190    7.1380    6.5480 C.3   203  ASP203      0.1410
     82  CG        18.8350    7.7720    5.1810 C.2   203  ASP203      0.3668
     83  OD1       18.8570    7.0250    4.1750 O.co2 203  ASP203     -0.2456
     84  OD2       18.9030    9.0200    5.1210 O.co2 203  ASP203     -0.2456
     85  N         20.6050    7.0560   -0.3750 N.3   226  VAL226     -0.1245
     86  CA        20.3820    7.8600   -1.5740 C.3   226  VAL226      0.1561
     87  C         20.3070    9.3360   -1.1660 C.2   226  VAL226      0.2260
     88  O         19.7830    9.6530   -0.0850 O.2   226  VAL226     -0.2867
     89  CB        19.0880    7.3700   -2.2990 C.3   226  VAL226      0.0252
     90  CG1       18.2200    6.5840   -1.3340 C.3   226  VAL226      0.0019
     91  CG2       18.2940    8.5030   -2.8930 C.3   226  VAL226      0.0019
     92  N         19.1370   13.0030   -0.4630 N.3   228  ALA228     -0.1231
     93  CA        17.8060   13.4470   -0.1240 C.3   228  ALA228      0.1694
     94  C         17.8670   14.7340    0.6790 C.2   228  ALA228      0.2591
     95  O         18.7900   14.9530    1.4780 O.2   228  ALA228     -0.2718
     96  CB        17.0530   12.3720    0.6750 C.3   228  ALA228      0.0304
     97  N         16.8660   15.5760    0.4590 N.am  229  ALA229     -0.1980
     98  CA        16.7320   16.8320    1.1980 C.3   229  ALA229      0.1597
     99  C         16.0550   16.5930    2.5430 C.2   229  ALA229      0.2287
    100  O         15.4530   15.5510    2.7540 O.2   229  ALA229     -0.2864
    101  CB        15.9120   17.8300    0.3760 C.3   229  ALA229      0.0319
    102  N         19.9170    9.2990   -8.1310 N.3   257  PRO257     -0.2116
    103  CA        18.5550    9.5090   -7.6280 C.3   257  PRO257      0.1372
    104  C         18.5740   10.5390   -6.4950 C.2   257  PRO257      0.2244
    105  O         19.5290   10.5680   -5.7210 O.2   257  PRO257     -0.2868
    106  CB        18.1610    8.1400   -7.0480 C.3   257  PRO257      0.0268
    107  CG        19.1880    7.1820   -7.5120 C.3   257  PRO257      0.0207
    108  CD        20.4140    7.9450   -7.8400 C.3   257  PRO257      0.0892
    109  N         15.8390   12.4640   -3.5600 N.3   259  SER259     -0.1217
    110  CA        14.5230   12.7040   -2.9870 C.3   259  SER259      0.1889
    111  C         14.4340   14.1360   -2.4770 C.2   259  SER259      0.2288
    112  O         15.3840   14.6390   -1.8730 O.2   259  SER259     -0.2866
    113  CB        14.2940   11.7130   -1.8530 C.3   259  SER259      0.2089
    114  OG        13.5920   12.2580   -0.7700 O.3   259  SER259     -0.2183
    115  N         16.1700    9.0720  -11.0580 N.3   291  PRO291     -0.2116
    116  CA        14.8720    9.7540  -10.9780 C.3   291  PRO291      0.1372
    117  C         14.8460   10.8730   -9.9330 C.2   291  PRO291      0.2244
    118  O         15.6830   10.8920   -9.0390 O.2   291  PRO291     -0.2868
    119  CB        13.9330    8.6400  -10.5040 C.3   291  PRO291      0.0268
    120  CG        14.8090    7.7190   -9.7280 C.3   291  PRO291      0.0207
    121  CD        16.1100    7.7110  -10.4910 C.3   291  PRO291      0.0892
    122  N         12.6390   11.7950   -6.8290 N.3   293  ILE293     -0.1245
    123  CA        11.6520   11.1880   -5.9670 C.3   293  ILE293      0.1561
    124  C         11.0070   12.2790   -5.1250 C.2   293  ILE293      0.2260
    125  O         11.6610   12.8970   -4.2800 O.2   293  ILE293     -0.2867
    126  CB        12.2850   10.1070   -5.0510 C.3   293  ILE293      0.0252
    127  CG1       13.0530    9.0680   -5.8810 C.3   293  ILE293      0.0019
    128  CG2       11.2130    9.4220   -4.2180 C.3   293  ILE293      0.0019
    129  CD1       14.5610    9.2390   -5.8400 C.3   293  ILE293      0.0001
    130  N          8.8020   13.7030   -2.1890 N.3   295  ARG295     -0.1245
    131  CA         8.5310   13.2080   -0.8460 C.3   295  ARG295      0.1563
    132  C          7.5120   14.0780   -0.1090 C.2   295  ARG295      0.2260
    133  O          7.8600   15.1310    0.4080 O.2   295  ARG295     -0.2867
    134  CB         9.8450   13.1080   -0.0570 C.3   295  ARG295      0.0307
    135  CG         9.6740   12.5970    1.3830 C.3   295  ARG295      0.0489
    136  CD        10.9830   12.5310    2.1260 C.3   295  ARG295      0.2205
    137  NE        10.7030   12.5580    3.5550 N.pl3 295  ARG295     -0.0865
    138  CZ        11.3740   13.2830    4.4350 C.cat 295  ARG295      0.5346
    139  NH1       11.0090   13.2640    5.7110 N.pl3 295  ARG295      0.1354
    140  NH2       12.3980   14.0360    4.0440 N.pl3 295  ARG295      0.1354
    141  N          9.3530    9.2820   -9.2480 N.3   333  ARG333     -0.1231
    142  CA         8.7800    8.3570   -8.2840 C.3   333  ARG333      0.1694
    143  C          8.3770    9.1260   -7.0340 C.2   333  ARG333      0.2592
    144  O          8.6490   10.3250   -6.9170 O.2   333  ARG333     -0.2718
    145  CB         9.7730    7.2600   -7.9110 C.3   333  ARG333      0.0321
    146  CG        10.0500    6.2720   -9.0560 C.3   333  ARG333      0.0489
    147  CD         8.8290    5.4120   -9.3250 C.3   333  ARG333      0.2205
    148  NE         9.0970    4.3890  -10.3380 N.pl3 333  ARG333     -0.0865
    149  CZ         8.8010    4.5030  -11.6260 C.cat 333  ARG333      0.5346
    150  NH1        8.2170    5.6020  -12.0980 N.pl3 333  ARG333      0.1354
    151  NH2        9.0890    3.5060  -12.4470 N.pl3 333  ARG333      0.1354
    152  N          7.7110    8.4340   -6.1160 N.am  334  VAL334     -0.1966
    153  CA         7.2610    9.0570   -4.8660 C.3   334  VAL334      0.1727
    154  C          7.7590    8.2290   -3.6830 C.2   334  VAL334      0.2616
    155  O          7.8510    7.0040   -3.7640 O.2   334  VAL334     -0.2715
    156  CB         5.7180    9.1480   -4.8330 C.3   334  VAL334      0.0290
    157  CG1        5.1920    9.6200   -3.4790 C.3   334  VAL334      0.0023
    158  CG2        5.2500   10.0770   -5.9480 C.3   334  VAL334      0.0023
    159  N          8.1000    8.8890   -2.5780 N.am  335  ILE335     -0.1977
    160  CA         8.3240    8.1400   -1.3410 C.3   335  ILE335      0.1596
    161  C          7.4780    8.7410   -0.2150 C.2   335  ILE335      0.2287
    162  O          7.4890    9.9510    0.0050 O.2   335  ILE335     -0.2864
    163  CB         9.8420    8.0690   -0.9710 C.3   335  ILE335      0.0276
    164  CG1       10.0270    7.1820    0.2700 C.3   335  ILE335      0.0022
    165  CG2       10.4350    9.4900   -0.7770 C.3   335  ILE335      0.0022
    166  CD1       11.4850    6.8350    0.5930 C.3   335  ILE335      0.0001
    167  N          4.6730    0.0170   -8.2540 N.3   360  GLU360     -0.1245
    168  CA         5.9500    0.4320   -8.8580 C.3   360  GLU360      0.1567
    169  C          6.2560    1.9190   -8.6100 C.2   360  GLU360      0.2260
    170  O          7.4230    2.3240   -8.5200 O.2   360  GLU360     -0.2867
    171  CB         5.9340    0.1940  -10.3650 C.3   360  GLU360      0.0388
    172  CG         5.9290   -1.2490  -10.7710 C.3   360  GLU360      0.1160
    173  CD         5.4960   -1.4520  -12.2260 C.2   360  GLU360      0.3649
    174  OE1        4.2780   -1.3420  -12.5160 O.co2 360  GLU360     -0.2457
    175  OE2        6.3650   -1.7510  -13.0750 O.co2 360  GLU360     -0.2457
    176  N          5.8760    3.8560   -6.0200 N.3   362  ILE362     -0.1231
    177  CA         6.0550    4.3370   -4.6580 C.3   362  ILE362      0.1692
    178  C          7.0180    3.4790   -3.8570 C.2   362  ILE362      0.2591
    179  O          7.1640    2.2900   -4.1090 O.2   362  ILE362     -0.2718
    180  CB         4.6920    4.4020   -3.9230 C.3   362  ILE362      0.0266
    181  CG1        4.8380    5.2080   -2.6250 C.3   362  ILE362      0.0019
    182  CG2        4.1460    2.9770   -3.6680 C.3   362  ILE362      0.0020
    183  CD1        3.5380    5.7560   -2.0910 C.3   362  ILE362      0.0001
    184  N          7.6900    4.1180   -2.8920 N.am  363  ALA363     -0.1980
    185  CA         8.4340    3.4250   -1.8590 C.3   363  ALA363      0.1597
    186  C          8.0570    4.0480   -0.5400 C.2   363  ALA363      0.2287
    187  O          7.4490    5.1220   -0.4930 O.2   363  ALA363     -0.2864
    188  CB         9.9360    3.5450   -2.0760 C.3   363  ALA363      0.0319
@<TRIPOS>BOND
     1   175   173   ar
     2     8     6   ar
     3   174   173   ar
     4   151   149    1
     5   173   172    1
     6   150   149    1
     7   149   148    2
     8     6     7   ar
     9     6     5    1
    10   115   116    1
    11   115   121    1
    12   116   119    1
    13   116   117    1
    14   172   171    1
    15     5     2    1
    16   119   120    1
    17   121   120    1
    18   171   168    1
    19   148   147    1
    20   117   118    2
    21   147   146    1
    22   141   142    1
    23     2     1    1
    24     2     3    1
    25   146   145    1
    26   168   169    1
    27   168   167    1
    28   169   170    2
    29   142   145    1
    30   142   143    1
    31     3     4    2
    32     3     9   am
    33   102   108    1
    34   102   103    1
    35   108   107    1
    36   103   106    1
    37   103   104    1
    38   107   106    1
    39     9    10    1
    40   143   144    2
    41   143   152   am
    42   122   123    1
    43    10    11    1
    44   104   105    2
    45   152   153    1
    46   176   177    1
    47    33    32    1
    48   123   124    1
    49   123   126    1
    50   158   156    1
    51   127   129    1
    52   127   126    1
    53    32    31    1
    54    22    20   ar
    55    22    23   ar
    56    11    12    2
    57   124   125    2
    58    24    23    1
    59   126   128    1
    60    20    18   ar
    61   153   156    1
    62   153   154    1
    63   156   157    1
    64   177   180    1
    65   177   178    1
    66    23    21   ar
    67    75    74    1
    68   179   178    2
    69   180   182    1
    70   180   181    1
    71   178   184   am
    72    31    30    1
    73   155   154    2
    74    18    17    1
    75    18    19   ar
    76   154   159   am
    77   109   110    1
    78    21    19   ar
    79    17    14    1
    80    30    29    1
    81    76    74    1
    82    74    73    2
    83   110   111    1
    84   110   113    1
    85    91    89    1
    86   184   185    1
    87   181   183    1
    88   159   160    1
    89   111   112    2
    90    89    86    1
    91    89    90    1
    92   130   131    1
    93   188   185    1
    94    13    14    1
    95    73    72    1
    96    14    15    1
    97   185   186    1
    98   113   114    1
    99    29    26    1
   100    86    87    1
   101    86    85    1
   102    15    16    2
   103    15    25   am
   104   160   163    1
   105   160   161    1
   106    25    26    1
   107    87    88    2
   108    26    27    1
   109   163   165    1
   110   163   164    1
   111   131   132    1
   112   131   134    1
   113    72    71    1
   114   186   187    2
   115    92    93    1
   116    71    70    1
   117   161   162    2
   118    93    96    1
   119    93    94    1
   120   132   133    2
   121   134   135    1
   122   164   166    1
   123    27    28    2
   124   101    98    1
   125    97    94   am
   126    97    98    1
   127    94    95    2
   128    98    99    1
   129    70    67    1
   130   135   136    1
   131    40    42   ar
   132    40    39   ar
   133    42    43   ar
   134    66    67    1
   135   136   137    1
   136    67    68    1
   137    99   100    2
   138    39    38    1
   139    39    41   ar
   140    38    35    1
   141    43    41   ar
   142    34    35    1
   143   137   138    2
   144    68    69    2
   145    35    36    1
   146    54    52   ar
   147    54    53   ar
   148   140   138    1
   149    83    82   ar
   150    52    50   ar
   151   138   139    1
   152    53    51   ar
   153    84    82   ar
   154    82    81    1
   155    36    37    2
   156    50    49   ar
   157    51    49   ar
   158    77    78    1
   159    81    78    1
   160    49    48    1
   161    78    79    1
   162    79    80    2
   163    48    45    1
   164    44    45    1
   165    45    46    1
   166    46    47    2
   167    65    63    1
   168    63    64    1
   169    63    62    2
   170    62    61    1
   171    61    60    1
   172    60    59    1
   173    55    56    1
   174    59    56    1
   175    56    57    1
   176    57    58    2
