@<TRIPOS>MOLECULE
tmp/4o1gA00.pdb
 186 175 0 0 0
SMALL
GASTEIGER

@<TRIPOS>ATOM
      1  N        -17.7710    6.5340  -14.9830 N.3   171  SER171     -0.1202
      2  CA       -16.9290    7.3170  -15.8840 C.3   171  SER171      0.2020
      3  C        -17.6800    8.5030  -16.4920 C.2   171  SER171      0.2618
      4  O        -18.1220    9.4160  -15.7650 O.2   171  SER171     -0.2717
      5  CB       -16.1520    6.4500  -16.9140 C.3   171  SER171      0.2103
      6  OG       -17.0160    5.8770  -17.8970 O.3   171  SER171     -0.2182
      7  N        -17.8880    8.4900  -17.8050 N.am  172  GLN172     -0.1979
      8  CA       -18.4040    9.6900  -18.4870 C.3   172  GLN172      0.1601
      9  C        -19.8910    9.9470  -18.2030 C.2   172  GLN172      0.2287
     10  O        -20.4080   11.0080  -18.5450 O.2   172  GLN172     -0.2864
     11  CB       -18.1520    9.5940  -19.9950 C.3   172  GLN172      0.0394
     12  CG       -16.6890    9.5870  -20.4310 C.3   172  GLN172      0.0908
     13  CD       -15.9430   10.8100  -19.9630 C.2   172  GLN172      0.2608
     14  OE1      -16.4130   11.9370  -20.2100 O.2   172  GLN172     -0.2717
     15  NE2      -14.9010   10.6380  -19.2130 N.am  172  GLN172     -0.0878
     16  N        -11.4080    8.6720  -12.5910 N.3   195  ASN195     -0.1225
     17  CA       -10.1870    9.4510  -12.6700 C.3   195  ASN195      0.1785
     18  C        -10.2700   10.6380  -11.7210 C.2   195  ASN195      0.2597
     19  O        -11.2540   10.8090  -10.9840 O.2   195  ASN195     -0.2718
     20  CB        -9.8970    9.8290  -14.1260 C.3   195  ASN195      0.1169
     21  CG       -10.8400   10.8670  -14.6980 C.2   195  ASN195      0.2627
     22  OD1      -11.5200   11.5880  -13.9830 O.2   195  ASN195     -0.2716
     23  ND2      -10.9040   10.9290  -16.0310 N.am  195  ASN195     -0.0877
     24  N         -9.2330   11.4680  -11.6930 N.am  196  ASP196     -0.1974
     25  CA        -9.2520   12.4680  -10.6250 C.3   196  ASP196      0.1709
     26  C        -10.2250   13.6230  -10.9120 C.2   196  ASP196      0.2293
     27  O        -10.8410   14.1040   -9.9520 O.2   196  ASP196     -0.2864
     28  CB        -7.8580   12.9240  -10.1710 C.3   196  ASP196      0.1436
     29  CG        -7.0930   13.5590  -11.2530 C.2   196  ASP196      0.3671
     30  OD1       -7.1070   13.0020  -12.3550 O.co2 196  ASP196     -0.2456
     31  OD2       -6.4620   14.6000  -10.9970 O.co2 196  ASP196     -0.2456
     32  N        -13.0830   13.2380  -12.3530 N.3   198  GLU198     -0.1245
     33  CA       -14.3920   12.6410  -12.0510 C.3   198  GLU198      0.1567
     34  C        -14.6220   12.5020  -10.5530 C.2   198  GLU198      0.2260
     35  O        -15.7640   12.6050  -10.0780 O.2   198  GLU198     -0.2867
     36  CB       -14.5070   11.2480  -12.6830 C.3   198  GLU198      0.0388
     37  CG       -14.6720   11.3040  -14.1950 C.3   198  GLU198      0.1160
     38  CD       -14.3420   10.0190  -14.9240 C.2   198  GLU198      0.3649
     39  OE1      -13.8100    9.0440  -14.3290 O.co2 198  GLU198     -0.2457
     40  OE2      -14.6470    9.9820  -16.1500 O.co2 198  GLU198     -0.2457
     41  N         -7.6970    7.1260  -10.6300 N.3   223  THR223     -0.1218
     42  CA        -6.5650    7.2290  -11.5400 C.3   223  THR223      0.1862
     43  C         -6.1370    8.6860  -11.7320 C.2   223  THR223      0.2287
     44  O         -6.9430    9.6010  -11.6640 O.2   223  THR223     -0.2866
     45  CB        -6.8160    6.5500  -12.8830 C.3   223  THR223      0.1770
     46  OG1       -7.8420    7.2090  -13.5810 O.3   223  THR223     -0.2211
     47  CG2       -7.1970    5.0870  -12.6840 C.3   223  THR223      0.0375
     48  N         -3.7560    9.7660  -14.3710 N.3   225  GLY225     -0.1210
     49  CA        -3.0460    9.9690  -15.6430 C.3   225  GLY225      0.1940
     50  C         -1.6040    9.5520  -15.5130 C.2   225  GLY225      0.2453
     51  O         -1.2900    8.4920  -14.9990 O.2   225  GLY225     -0.2732
     52  N         -0.6810   10.4110  -15.9410 N.am  226  PRO226     -0.2728
     53  CA         0.7080   10.0440  -15.8830 C.3   226  PRO226      0.1401
     54  C          1.2600    9.9890  -14.4590 C.2   226  PRO226      0.2269
     55  O          2.4180    9.5530  -14.2430 O.2   226  PRO226     -0.2865
     56  CB         1.3990   11.1850  -16.6670 C.3   226  PRO226      0.0296
     57  CG         0.4870   12.3220  -16.5750 C.3   226  PRO226      0.0237
     58  CD        -0.8950   11.7840  -16.4260 C.3   226  PRO226      0.0939
     59  N         -0.1410    8.2270  -12.0280 N.3   228  GLY228     -0.1210
     60  CA        -0.3720    6.8900  -11.4530 C.3   228  GLY228      0.1956
     61  C         -1.7680    6.7040  -10.9250 C.2   228  GLY228      0.2611
     62  O         -2.7310    7.0130  -11.6120 O.2   228  GLY228     -0.2717
     63  N         -1.8850    6.1100   -9.7440 N.am  229  VAL229     -0.1979
     64  CA        -3.1890    5.7200   -9.1960 C.3   229  VAL229      0.1595
     65  C         -3.1510    5.7390   -7.6880 C.2   229  VAL229      0.2287
     66  O         -2.1340    5.3860   -7.0920 O.2   229  VAL229     -0.2864
     67  CB        -3.7120    4.3350   -9.6960 C.3   229  VAL229      0.0276
     68  CG1       -2.7880    3.1920   -9.2630 C.3   229  VAL229      0.0022
     69  CG2       -5.1460    4.0870   -9.3000 C.3   229  VAL229      0.0022
     70  N          3.0800    4.9340  -12.6810 N.3   243  VAL243     -0.1231
     71  CA         2.8260    4.3300  -13.9830 C.3   243  VAL243      0.1692
     72  C          3.9940    3.4710  -14.4500 C.2   243  VAL243      0.2591
     73  O          5.1060    3.5560  -13.9450 O.2   243  VAL243     -0.2718
     74  CB         2.5600    5.3820  -15.0680 C.3   243  VAL243      0.0266
     75  CG1        1.3820    6.2640  -14.6870 C.3   243  VAL243      0.0020
     76  CG2        3.7850    6.2580  -15.3260 C.3   243  VAL243      0.0020
     77  N          3.7000    2.6830  -15.4840 N.am  244  VAL244     -0.1980
     78  CA         4.7220    2.0840  -16.2950 C.3   244  VAL244      0.1595
     79  C          5.0950    3.1130  -17.3640 C.2   244  VAL244      0.2287
     80  O          4.2100    3.5780  -18.0740 O.2   244  VAL244     -0.2864
     81  CB         4.2180    0.7840  -16.9350 C.3   244  VAL244      0.0276
     82  CG1        5.2230    0.2660  -17.9520 C.3   244  VAL244      0.0022
     83  CG2        3.9760   -0.2750  -15.8830 C.3   244  VAL244      0.0022
     84  N          5.7670    5.1070  -20.6080 N.3   246  GLU246     -0.1245
     85  CA         5.3630    4.7850  -21.9690 C.3   246  GLU246      0.1567
     86  C          6.5140    5.0820  -22.9410 C.2   246  GLU246      0.2260
     87  O          7.4000    5.8680  -22.6290 O.2   246  GLU246     -0.2867
     88  CB         4.0630    5.5050  -22.3430 C.3   246  GLU246      0.0388
     89  CG         4.1730    6.8400  -23.0640 C.3   246  GLU246      0.1160
     90  CD         4.5120    7.9920  -22.1560 C.2   246  GLU246      0.3649
     91  OE1        5.5810    7.9310  -21.5290 O.co2 246  GLU246     -0.2457
     92  OE2        3.7210    8.9680  -22.0840 O.co2 246  GLU246     -0.2457
     93  N          2.6410    7.6050  -27.2550 N.3   249  GLN249     -0.1245
     94  CA         1.2380    7.7890  -26.8830 C.3   249  GLN249      0.1566
     95  C          0.3870    7.7210  -28.1340 C.2   249  GLN249      0.2260
     96  O         -0.3080    8.6790  -28.4730 O.2   249  GLN249     -0.2867
     97  CB         1.0410    9.1220  -26.1690 C.3   249  GLN249      0.0367
     98  CG         1.7810    9.2130  -24.8500 C.3   249  GLN249      0.0905
     99  CD         1.5860   10.5470  -24.1630 C.2   249  GLN249      0.2608
    100  OE1        1.6260   11.6040  -24.8020 O.2   249  GLN249     -0.2717
    101  NE2        1.3830   10.5090  -22.8510 N.am  249  GLN249     -0.0878
    102  N         -4.5330    7.4620  -26.6270 N.3   252  PRO252     -0.2102
    103  CA        -4.9650    7.3830  -25.2120 C.3   252  PRO252      0.1504
    104  C         -6.3400    6.7600  -24.9760 C.2   252  PRO252      0.2576
    105  O         -6.6890    6.4520  -23.8280 O.2   252  PRO252     -0.2718
    106  CB        -4.9970    8.8480  -24.7580 C.3   252  PRO252      0.0282
    107  CG        -4.1810    9.6000  -25.7590 C.3   252  PRO252      0.0208
    108  CD        -4.2920    8.8570  -27.0530 C.3   252  PRO252      0.0893
    109  N         -7.1310    6.5880  -26.0240 N.am  253  THR253     -0.1939
    110  CA        -8.4300    5.9520  -25.8900 C.3   253  THR253      0.2028
    111  C         -8.2910    4.5690  -25.2250 C.2   253  THR253      0.2643
    112  O         -7.3340    3.8350  -25.4910 O.2   253  THR253     -0.2714
    113  CB        -9.1340    5.8000  -27.2670 C.3   253  THR253      0.1808
    114  OG1      -10.4750    5.3220  -27.0840 O.3   253  THR253     -0.2208
    115  CG2       -8.3790    4.8310  -28.1380 C.3   253  THR253      0.0379
    116  N         -9.2350    4.2680  -24.3450 N.am  254  GLY254     -0.1939
    117  CA        -9.3990    2.9460  -23.7160 C.3   254  GLY254      0.2014
    118  C         -8.5070    2.6530  -22.5180 C.2   254  GLY254      0.2639
    119  O         -8.4340    1.5130  -22.0570 O.2   254  GLY254     -0.2714
    120  N         -7.7760    3.6570  -22.0590 N.am  255  VAL255     -0.1963
    121  CA        -6.7260    3.4540  -21.0620 C.3   255  VAL255      0.1727
    122  C         -7.3240    3.1620  -19.6890 C.2   255  VAL255      0.2617
    123  O         -6.8620    2.2660  -18.9790 O.2   255  VAL255     -0.2715
    124  CB        -5.7520    4.6440  -21.0610 C.3   255  VAL255      0.0290
    125  CG1       -4.7560    4.5290  -19.9450 C.3   255  VAL255      0.0023
    126  CG2       -5.0150    4.7070  -22.3900 C.3   255  VAL255      0.0023
    127  N         -8.3580    3.9220  -19.3260 N.am  256  GLY256     -0.1940
    128  CA        -9.0890    3.6830  -18.0890 C.3   256  GLY256      0.2014
    129  C         -9.6890    2.2780  -18.0150 C.2   256  GLY256      0.2638
    130  O         -9.5490    1.5900  -17.0270 O.2   256  GLY256     -0.2714
    131  N        -10.3110    1.8620  -19.1050 N.am  257  ASP257     -0.1971
    132  CA       -10.9030    0.5300  -19.1880 C.3   257  ASP257      0.1709
    133  C         -9.8450   -0.5430  -18.9770 C.2   257  ASP257      0.2293
    134  O        -10.0650   -1.5270  -18.2660 O.2   257  ASP257     -0.2864
    135  CB       -11.5590    0.3360  -20.5690 C.3   257  ASP257      0.1436
    136  CG       -12.7810    1.2260  -20.7940 C.2   257  ASP257      0.3671
    137  OD1      -13.4030    1.6870  -19.8280 O.co2 257  ASP257     -0.2456
    138  OD2      -13.1400    1.4850  -21.9590 O.co2 257  ASP257     -0.2456
    139  N         -6.9230   -0.2000  -17.4810 N.3   259  PHE259     -0.1227
    140  CA        -6.4460   -0.1870  -16.0960 C.3   259  PHE259      0.1736
    141  C         -7.3510   -1.0360  -15.2190 C.2   259  PHE259      0.2595
    142  O         -6.8890   -1.8370  -14.3960 O.2   259  PHE259     -0.2718
    143  CB        -6.3480    1.2350  -15.5010 C.3   259  PHE259      0.0547
    144  CG        -5.8670    1.2110  -14.0870 C.ar  259  PHE259     -0.0202
    145  CD1       -4.5060    1.1060  -13.7660 C.ar  259  PHE259     -0.0042
    146  CD2       -6.8080    1.1210  -13.0760 C.ar  259  PHE259     -0.0042
    147  CE1       -4.1270    0.9940  -12.4460 C.ar  259  PHE259     -0.0003
    148  CE2       -6.4200    0.9550  -11.7700 C.ar  259  PHE259     -0.0003
    149  CZ        -5.0730    0.9050  -11.4590 C.ar  259  PHE259     -0.0000
    150  N         -8.6480   -0.7990  -15.3410 N.am  260  ARG260     -0.1980
    151  CA        -9.6420   -1.5010  -14.5700 C.3   260  ARG260      0.1597
    152  C         -9.5820   -2.9770  -14.7970 C.2   260  ARG260      0.2287
    153  O         -9.6250   -3.7570  -13.8560 O.2   260  ARG260     -0.2864
    154  CB       -11.0550   -1.0080  -14.9030 C.3   260  ARG260      0.0334
    155  CG       -11.3030    0.3740  -14.3710 C.3   260  ARG260      0.0492
    156  CD       -12.2510    1.1190  -15.2750 C.3   260  ARG260      0.2205
    157  NE       -12.6680    2.4140  -14.7500 N.pl3 260  ARG260     -0.0865
    158  CZ       -11.8960    3.5080  -14.6780 C.cat 260  ARG260      0.5346
    159  NH1      -10.6250    3.4740  -15.0310 N.pl3 260  ARG260      0.1354
    160  NH2      -12.4040    4.6560  -14.2480 N.pl3 260  ARG260      0.1354
    161  N         -1.5860   -0.9710  -14.3890 N.3   281  SER281     -0.1217
    162  CA        -0.7460    0.0560  -15.0060 C.3   281  SER281      0.1889
    163  C         -0.0620   -0.4550  -16.2830 C.2   281  SER281      0.2288
    164  O          0.0850    0.2940  -17.2510 O.2   281  SER281     -0.2866
    165  CB         0.2770    0.5660  -13.9900 C.3   281  SER281      0.2089
    166  OG        -0.3230    1.2180  -12.8980 O.3   281  SER281     -0.2183
    167  N         -2.8200   -0.7200  -18.9900 N.3   284  ALA284     -0.1231
    168  CA        -3.1040    0.6420  -19.3870 C.3   284  ALA284      0.1694
    169  C         -2.0630    1.1650  -20.3870 C.2   284  ALA284      0.2591
    170  O         -2.4530    1.7150  -21.4000 O.2   284  ALA284     -0.2718
    171  CB        -3.1820    1.5390  -18.1550 C.3   284  ALA284      0.0304
    172  N         -0.7770    0.9740  -20.1310 N.am  285  VAL285     -0.1980
    173  CA         0.2410    1.5230  -21.0560 C.3   285  VAL285      0.1595
    174  C          0.2300    0.8050  -22.4160 C.2   285  VAL285      0.2287
    175  O          0.4720    1.4470  -23.4340 O.2   285  VAL285     -0.2864
    176  CB         1.6660    1.5660  -20.4330 C.3   285  VAL285      0.0276
    177  CG1        2.3790    0.2200  -20.4760 C.3   285  VAL285      0.0022
    178  CG2        2.5020    2.6300  -21.1320 C.3   285  VAL285      0.0022
    179  N         -2.5250    2.5340  -24.2010 N.3   288  LEU288     -0.1245
    180  CA        -2.0490    3.8810  -24.5440 C.3   288  LEU288      0.1561
    181  C         -1.1950    3.8550  -25.8050 C.2   288  LEU288      0.2260
    182  O         -1.3280    4.7390  -26.6410 O.2   288  LEU288     -0.2867
    183  CB        -1.2420    4.4580  -23.3750 C.3   288  LEU288      0.0270
    184  CG        -0.6820    5.8880  -23.4950 C.3   288  LEU288      0.0019
    185  CD1       -1.7680    6.8710  -23.9220 C.3   288  LEU288      0.0001
    186  CD2       -0.0240    6.3060  -22.1800 C.3   288  LEU288      0.0001
@<TRIPOS>BOND
     1    96    95    2
     2   115   113    1
     3    95    94    1
     4   113   114    1
     5   113   110    1
     6    93    94    1
     7   108   102    1
     8   108   107    1
     9    94    97    1
    10   182   181    2
    11   102   103    1
    12    97    98    1
    13   109   110    1
    14   109   104   am
    15   110   111    1
    16   181   180    1
    17   107   106    1
    18   112   111    2
    19   111   116   am
    20   103   104    1
    21   103   106    1
    22   104   105    2
    23    98    99    1
    24   100    99    2
    25   180   179    1
    26   180   183    1
    27   116   117    1
    28    99   101   am
    29   185   184    1
    30   117   118    1
    31   184   183    1
    32   184   186    1
    33   175   174    2
    34    89    88    1
    35    89    90    1
    36    86    87    2
    37    86    85    1
    38   118   120   am
    39   118   119    2
    40   174   173    1
    41   126   124    1
    42    88    85    1
    43    90    92   ar
    44    90    91   ar
    45   120   121    1
    46    85    84    1
    47   138   136   ar
    48   170   169    2
    49   178   176    1
    50   121   124    1
    51   121   122    1
    52   124   125    1
    53   173   176    1
    54   173   172    1
    55   136   135    1
    56   136   137   ar
    57   135   132    1
    58   177   176    1
    59    12    11    1
    60    12    13    1
    61   169   172   am
    62   169   168    1
    63    14    13    2
    64    11     8    1
    65    13    15   am
    66   122   127   am
    67   122   123    2
    68   168   167    1
    69   168   171    1
    70   127   128    1
    71   132   131    1
    72   132   133    1
    73   131   129   am
    74   133   134    2
    75    10     9    2
    76     8     9    1
    77     8     7    1
    78   128   129    1
    79    80    79    2
    80   129   130    2
    81    82    81    1
    82     6     5    1
    83     7     3   am
    84   139   140    1
    85    79    78    1
    86   164   163    2
    87    81    78    1
    88    81    83    1
    89     5     2    1
    90    56    57    1
    91    56    53    1
    92    57    58    1
    93     3     2    1
    94     3     4    2
    95    58    52    1
    96    78    77    1
    97   163   162    1
    98    40    38   ar
    99   140   143    1
   100   140   141    1
   101    23    21   am
   102    52    53    1
   103    52    50   am
   104     2     1    1
   105    53    54    1
   106    49    50    1
   107    49    48    1
   108    50    51    2
   109   143   144    1
   110    77    72   am
   111   150   141   am
   112   150   151    1
   113    76    74    1
   114   156   157    1
   115   156   155    1
   116   141   142    2
   117    74    75    1
   118    74    71    1
   119   159   158    1
   120   162   161    1
   121   162   165    1
   122    38    39   ar
   123    38    37    1
   124   154   151    1
   125   154   155    1
   126   152   151    1
   127   152   153    2
   128   157   158    2
   129    21    20    1
   130    21    22    2
   131   158   160    1
   132    54    55    2
   133    72    71    1
   134    72    73    2
   135    37    36    1
   136    20    17    1
   137   144   145   ar
   138   144   146   ar
   139   165   166    1
   140    71    70    1
   141   145   147   ar
   142    46    45    1
   143   146   148   ar
   144    45    47    1
   145    45    42    1
   146    36    33    1
   147    17    16    1
   148    17    18    1
   149   147   149   ar
   150    30    29   ar
   151    32    33    1
   152    33    34    1
   153    59    60    1
   154   148   149   ar
   155    43    44    2
   156    43    42    1
   157    18    24   am
   158    18    19    2
   159    24    25    1
   160    62    61    2
   161    42    41    1
   162    60    61    1
   163    29    31   ar
   164    29    28    1
   165    61    63   am
   166    26    25    1
   167    26    27    2
   168    25    28    1
   169    34    35    2
   170    63    64    1
   171    67    69    1
   172    67    68    1
   173    67    64    1
   174    64    65    1
   175    65    66    2
