@<TRIPOS>MOLECULE
tmp/4o1lA01.pdb
 142 133 0 0 0
SMALL
GASTEIGER

@<TRIPOS>ATOM
      1  N         24.2400   28.3290   28.8120 N.3   262  THR262     -0.1203
      2  CA        25.5470   28.5270   28.2490 C.3   262  THR262      0.1994
      3  C         25.4960   29.7800   27.4330 C.2   262  THR262      0.2618
      4  O         24.4140   30.2250   27.0740 O.2   262  THR262     -0.2717
      5  CB        25.9800   27.3310   27.4190 C.3   262  THR262      0.1784
      6  OG1       25.3360   27.3660   26.1420 O.3   262  THR262     -0.2211
      7  CG2       25.6260   26.0480   28.1660 C.3   262  THR262      0.0376
      8  N         26.6630   30.3390   27.1190 N.am  263  GLN263     -0.1965
      9  CA        26.7530   31.6430   26.4170 C.3   263  GLN263      0.1733
     10  C         27.9080   31.7590   25.4420 C.2   263  GLN263      0.2617
     11  O         28.3550   32.8670   25.1330 O.2   263  GLN263     -0.2715
     12  CB        26.9160   32.8100   27.4000 C.3   263  GLN263      0.0408
     13  CG        25.8020   33.0570   28.3710 C.3   263  GLN263      0.0908
     14  CD        26.0000   34.3760   29.0950 C.2   263  GLN263      0.2608
     15  OE1       25.4450   35.3870   28.7180 O.2   263  GLN263     -0.2717
     16  NE2       26.7840   34.3530   30.1410 N.am  263  GLN263     -0.0878
     17  N         28.3570   30.6420   24.9050 N.am  264  GLY264     -0.1940
     18  CA        29.3610   30.6520   23.8710 C.3   264  GLY264      0.2014
     19  C         30.6840   30.7430   24.5970 C.2   264  GLY264      0.2639
     20  O         30.9890   29.8900   25.3860 O.2   264  GLY264     -0.2714
     21  N         31.4850   31.7550   24.2960 N.am  265  ARG265     -0.1963
     22  CA        32.7770   31.9060   24.9680 C.3   265  ARG265      0.1729
     23  C         32.6030   32.7970   26.2000 C.2   265  ARG265      0.2616
     24  O         33.5180   32.9330   26.9670 O.2   265  ARG265     -0.2715
     25  CB        33.8930   32.3570   23.9850 C.3   265  ARG265      0.0348
     26  CG        33.7310   33.7120   23.3200 C.3   265  ARG265      0.0492
     27  CD        34.1990   33.6910   21.8660 C.3   265  ARG265      0.2205
     28  NE        35.5390   33.1440   21.7170 N.pl3 265  ARG265     -0.0865
     29  CZ        36.0660   32.6870   20.5790 C.cat 265  ARG265      0.5346
     30  NH1       35.3790   32.6840   19.4240 N.pl3 265  ARG265      0.1354
     31  NH2       37.3010   32.2080   20.6020 N.pl3 265  ARG265      0.1354
     32  N         31.4120   33.3760   26.3910 N.am  266  ASP266     -0.1971
     33  CA        31.0380   33.9800   27.6700 C.3   266  ASP266      0.1709
     34  C         30.8310   32.9090   28.7370 C.2   266  ASP266      0.2293
     35  O         30.7920   31.7220   28.4490 O.2   266  ASP266     -0.2864
     36  CB        29.7190   34.7760   27.5340 C.3   266  ASP266      0.1436
     37  CG        29.9190   36.2340   27.1150 C.2   266  ASP266      0.3671
     38  OD1       30.3650   37.0410   27.9820 O.co2 266  ASP266     -0.2456
     39  OD2       29.5670   36.5750   25.9450 O.co2 266  ASP266     -0.2456
     40  N         29.2060   30.4520   31.6380 N.3   268  THR268     -0.1218
     41  CA        28.0050   29.6370   31.8090 C.3   268  THR268      0.1862
     42  C         27.3370   30.1110   33.0630 C.2   268  THR268      0.2287
     43  O         27.9660   30.1750   34.1110 O.2   268  THR268     -0.2866
     44  CB        28.3620   28.1330   31.9400 C.3   268  THR268      0.1770
     45  OG1       29.2110   27.7370   30.8470 O.3   268  THR268     -0.2211
     46  CG2       27.1230   27.2700   31.9390 C.3   268  THR268      0.0375
     47  N         34.6330   30.0510   30.7830 N.3   281  VAL281     -0.1245
     48  CA        35.1970   29.0980   29.8570 C.3   281  VAL281      0.1561
     49  C         36.7110   29.4230   29.7670 C.2   281  VAL281      0.2260
     50  O         37.1280   30.3700   29.0930 O.2   281  VAL281     -0.2867
     51  CB        34.4680   29.1720   28.4870 C.3   281  VAL281      0.0252
     52  CG1       35.0290   28.1450   27.4850 C.3   281  VAL281      0.0019
     53  CG2       32.9640   29.0010   28.6860 C.3   281  VAL281      0.0019
     54  N         39.3320   27.3090   28.6020 N.3   283  ASP283     -0.1225
     55  CA        40.0790   26.7560   27.4840 C.3   283  ASP283      0.1805
     56  C         39.4800   27.2570   26.1900 C.2   283  ASP283      0.2598
     57  O         38.4490   26.7680   25.7720 O.2   283  ASP283     -0.2718
     58  CB        40.0160   25.2160   27.5430 C.3   283  ASP283      0.1424
     59  CG        40.8190   24.5360   26.4320 C.2   283  ASP283      0.3668
     60  OD1       41.9830   24.9370   26.1960 O.co2 283  ASP283     -0.2456
     61  OD2       40.2830   23.5900   25.8070 O.co2 283  ASP283     -0.2456
     62  N         40.1210   28.2240   25.5450 N.am  284  GLN284     -0.1965
     63  CA        39.5570   28.8090   24.3390 C.3   284  GLN284      0.1733
     64  C         40.3490   28.4250   23.0840 C.2   284  GLN284      0.2616
     65  O         41.5820   28.4070   23.1050 O.2   284  GLN284     -0.2715
     66  CB        39.4650   30.3260   24.4860 C.3   284  GLN284      0.0408
     67  CG        38.7730   30.7700   25.7770 C.3   284  GLN284      0.0908
     68  CD        37.6250   31.7480   25.5510 C.2   284  GLN284      0.2608
     69  OE1       37.4730   32.3120   24.4540 O.2   284  GLN284     -0.2717
     70  NE2       36.7940   31.9370   26.5870 N.am  284  GLN284     -0.0878
     71  N         39.6150   28.0700   22.0240 N.am  285  ASP285     -0.1971
     72  CA        40.1570   27.8860   20.6740 C.3   285  ASP285      0.1709
     73  C         39.8520   29.1810   19.9310 C.2   285  ASP285      0.2293
     74  O         39.1540   30.0430   20.4660 O.2   285  ASP285     -0.2864
     75  CB        39.4770   26.6910   19.9420 C.3   285  ASP285      0.1436
     76  CG        40.2370   25.3460   20.1110 C.2   285  ASP285      0.3671
     77  OD1       41.4980   25.3480   20.2370 O.co2 285  ASP285     -0.2456
     78  OD2       39.5650   24.2810   20.0830 O.co2 285  ASP285     -0.2456
     79  N         33.3710   27.9860   15.0410 N.3   288  ILE288     -0.1245
     80  CA        32.8510   26.9480   15.9310 C.3   288  ILE288      0.1561
     81  C         31.3390   26.6360   15.7700 C.2   288  ILE288      0.2260
     82  O         30.4850   27.5400   15.7130 O.2   288  ILE288     -0.2867
     83  CB        33.1370   27.2740   17.4300 C.3   288  ILE288      0.0252
     84  CG1       34.6010   26.9830   17.7980 C.3   288  ILE288      0.0019
     85  CG2       32.2420   26.4600   18.3750 C.3   288  ILE288      0.0019
     86  CD1       35.4190   28.2240   18.0250 C.3   288  ILE288      0.0001
     87  N         28.5670   26.0760   17.6050 N.3   290  THR290     -0.1218
     88  CA        28.0430   26.3380   18.9340 C.3   290  THR290      0.1862
     89  C         26.8940   25.3780   19.2670 C.2   290  THR290      0.2287
     90  O         26.7840   24.9190   20.4080 O.2   290  THR290     -0.2866
     91  CB        27.5720   27.8240   19.1290 C.3   290  THR290      0.1770
     92  OG1       26.7420   28.2320   18.0290 O.3   290  THR290     -0.2211
     93  CG2       28.7480   28.7850   19.2600 C.3   290  THR290      0.0375
     94  N         28.3530   22.1070   20.1580 N.3   293  ALA293     -0.1231
     95  CA        29.0810   22.3480   21.4200 C.3   293  ALA293      0.1694
     96  C         28.1040   22.3810   22.5940 C.2   293  ALA293      0.2592
     97  O         28.4030   21.8610   23.6610 O.2   293  ALA293     -0.2718
     98  CB        29.8890   23.6610   21.3130 C.3   293  ALA293      0.0304
     99  N         26.9560   23.0080   22.3910 N.am  294  GLY294     -0.1957
    100  CA        25.9010   23.0240   23.3900 C.3   294  GLY294      0.1869
    101  C         25.4030   21.6390   23.8050 C.2   294  GLY294      0.2309
    102  O         25.2800   21.3650   24.9970 O.2   294  GLY294     -0.2863
    103  N         28.1240   20.0270   25.7880 N.3   297  PHE297     -0.1241
    104  CA        28.1150   20.5060   27.1790 C.3   297  PHE297      0.1605
    105  C         27.1480   19.7020   28.0590 C.2   297  PHE297      0.2264
    106  O         27.5230   19.2580   29.1590 O.2   297  PHE297     -0.2867
    107  CB        27.7650   21.9880   27.2670 C.3   297  PHE297      0.0534
    108  CG        27.5910   22.4830   28.6800 C.ar  297  PHE297     -0.0203
    109  CD1       26.3440   22.4160   29.3070 C.ar  297  PHE297     -0.0042
    110  CD2       28.6830   22.9970   29.3860 C.ar  297  PHE297     -0.0042
    111  CE1       26.1870   22.8790   30.5840 C.ar  297  PHE297     -0.0003
    112  CE2       28.5440   23.4220   30.6870 C.ar  297  PHE297     -0.0003
    113  CZ        27.2800   23.3750   31.2870 C.ar  297  PHE297     -0.0000
    114  N         31.9410   21.7930   30.1910 N.3   319  HIS319     -0.1241
    115  CA        32.9610   22.6030   29.5150 C.3   319  HIS319      0.1621
    116  C         34.0380   21.7650   28.8610 C.2   319  HIS319      0.2264
    117  O         34.5280   22.1250   27.7880 O.2   319  HIS319     -0.2867
    118  CB        33.6220   23.5720   30.4980 C.3   319  HIS319      0.0745
    119  CG        32.7590   24.7510   30.8580 C.ar  319  HIS319      0.0817
    120  ND1       33.1310   25.6660   31.7530 N.ar  319  HIS319     -0.2268
    121  CD2       31.5050   25.1260   30.3950 C.ar  319  HIS319      0.1154
    122  CE1       32.1580   26.5890   31.8740 C.ar  319  HIS319      0.1986
    123  NE2       31.1590   26.2500   31.0260 N.ar  319  HIS319     -0.2212
    124  N         32.4170   19.9570   25.6580 N.3   322  ALA322     -0.1231
    125  CA        32.2680   20.9550   24.6030 C.3   322  ALA322      0.1694
    126  C         33.5820   21.2700   23.8540 C.2   322  ALA322      0.2592
    127  O         33.5520   21.4530   22.6550 O.2   322  ALA322     -0.2718
    128  CB        31.6720   22.2490   25.1720 C.3   322  ALA322      0.0304
    129  N         34.7050   21.3840   24.5650 N.am  323  SER323     -0.1952
    130  CA        36.0090   21.7550   23.9540 C.3   323  SER323      0.1924
    131  C         36.6000   20.6260   23.1150 C.2   323  SER323      0.2314
    132  O         37.2110   20.8720   22.0970 O.2   323  SER323     -0.2863
    133  CB        37.0310   22.1300   25.0260 C.3   323  SER323      0.2116
    134  OG        37.2960   21.0180   25.8480 O.3   323  SER323     -0.2180
    135  N         34.3180   20.5520   19.8450 N.3   326  ILE326     -0.1245
    136  CA        34.9350   21.6220   19.0530 C.3   326  ILE326      0.1561
    137  C         36.3250   21.1280   18.6340 C.2   326  ILE326      0.2260
    138  O         36.8190   21.4620   17.5640 O.2   326  ILE326     -0.2867
    139  CB        35.1490   22.9140   19.8640 C.3   326  ILE326      0.0252
    140  CG1       33.8370   23.4890   20.3690 C.3   326  ILE326      0.0019
    141  CG2       35.8530   23.9740   19.0150 C.3   326  ILE326      0.0019
    142  CD1       34.0320   24.5730   21.4230 C.3   326  ILE326      0.0001
@<TRIPOS>BOND
     1    79    80    1
     2    82    81    2
     3    81    80    1
     4    80    83    1
     5    83    84    1
     6    83    85    1
     7   138   137    2
     8    87    88    1
     9    84    86    1
    10    92    91    1
    11   137   136    1
    12    88    91    1
    13    88    89    1
    14   141   139    1
    15   136   135    1
    16   136   139    1
    17    91    93    1
    18    89    90    2
    19    30    29    1
    20   139   140    1
    21    73    74    2
    22    73    72    1
    23    75    76    1
    24    75    72    1
    25    78    76   ar
    26    76    77   ar
    27    94    95    1
    28   140   142    1
    29    29    31    1
    30    29    28    2
    31    72    71    1
    32    98    95    1
    33    95    96    1
    34    28    27    1
    35    27    26    1
    36    71    64   am
    37   132   131    2
    38    99    96   am
    39    99   100    1
    40    96    97    2
    41   127   126    2
    42    64    65    2
    43    64    63    1
    44   131   130    1
    45    26    25    1
    46   100   101    1
    47   101   102    2
    48   126   129   am
    49   126   125    1
    50    18    19    1
    51    18    17    1
    52   130   129    1
    53   130   133    1
    54    25    22    1
    55    21    19   am
    56    21    22    1
    57    63    66    1
    58    63    62    1
    59    69    68    2
    60    66    67    1
    61    19    20    2
    62   125   128    1
    63   125   124    1
    64    17    10   am
    65    22    23    1
    66   133   134    1
    67    11    10    2
    68    10     9    1
    69    62    56   am
    70    68    67    1
    71    68    70   am
    72    57    56    2
    73   103   104    1
    74    61    59   ar
    75    39    37   ar
    76     6     5    1
    77    56    55    1
    78    60    59   ar
    79    23    32   am
    80    23    24    2
    81    32    33    1
    82     9     8    1
    83     9    12    1
    84    59    58    1
    85     4     3    2
    86    37    36    1
    87    37    38   ar
    88     8     3   am
    89   104   107    1
    90   104   105    1
    91   107   108    1
    92    12    13    1
    93     5     7    1
    94     5     2    1
    95     3     2    1
    96    55    58    1
    97    55    54    1
    98    52    51    1
    99    36    33    1
   100    33    34    1
   101   117   116    2
   102   105   106    2
   103     2     1    1
   104    13    14    1
   105    35    34    2
   106    51    53    1
   107    51    48    1
   108   108   109   ar
   109   108   110   ar
   110    15    14    2
   111   116   115    1
   112    50    49    2
   113    14    16   am
   114   109   111   ar
   115   110   112   ar
   116   115   114    1
   117   115   118    1
   118    49    48    1
   119    48    47    1
   120   121   119   ar
   121   121   123   ar
   122   118   119    1
   123   111   113   ar
   124   112   113   ar
   125    45    44    1
   126   119   120   ar
   127   123   122   ar
   128    40    41    1
   129   120   122   ar
   130    41    44    1
   131    41    42    1
   132    46    44    1
   133    42    43    2
