@<TRIPOS>MOLECULE
tmp/4o1lA00.pdb
 163 148 0 0 0
SMALL
GASTEIGER

@<TRIPOS>ATOM
      1  N         14.4320   13.3290   18.6870 N.3    11  ASN11      -0.1240
      2  CA        14.4740   13.1800   17.2330 C.3    11  ASN11       0.1653
      3  C         15.8310   12.7040   16.6920 C.2    11  ASN11       0.2266
      4  O         16.7860   13.4660   16.6350 O.2    11  ASN11      -0.2867
      5  CB        14.1320   14.5270   16.5990 C.3    11  ASN11       0.1155
      6  CG        12.7920   15.0620   17.0840 C.2    11  ASN11       0.2627
      7  OD1       11.8140   14.2860   17.2640 O.2    11  ASN11      -0.2716
      8  ND2       12.7240   16.3910   17.3280 N.am   11  ASN11      -0.0877
      9  N         18.2530   12.4300   13.9660 N.3    13  LEU13      -0.1245
     10  CA        18.3810   13.0400   12.6510 C.3    13  LEU13       0.1561
     11  C         19.7580   12.7160   12.1010 C.2    13  LEU13       0.2260
     12  O         20.7010   12.5970   12.8590 O.2    13  LEU13      -0.2867
     13  CB        18.1860   14.5600   12.6960 C.3    13  LEU13       0.0270
     14  CG        16.8480   15.0220   13.2780 C.3    13  LEU13       0.0019
     15  CD1       16.7430   16.5460   13.5090 C.3    13  LEU13       0.0001
     16  CD2       15.6990   14.4570   12.4230 C.3    13  LEU13       0.0001
     17  N         22.4490   14.6210    9.9360 N.3    15  ASP15      -0.1239
     18  CA        22.7710   15.9860    9.5630 C.3    15  ASP15       0.1674
     19  C         23.5260   15.9520    8.2530 C.2    15  ASP15       0.2266
     20  O         24.4610   15.1850    8.0870 O.2    15  ASP15      -0.2867
     21  CB        23.6600   16.6710   10.6170 C.3    15  ASP15       0.1410
     22  CG        22.9730   16.8350   11.9650 C.2    15  ASP15       0.3668
     23  OD1       21.7230   16.9620   11.9990 O.co2  15  ASP15      -0.2456
     24  OD2       23.7070   16.8580   12.9820 O.co2  15  ASP15      -0.2456
     25  N         17.4900   28.1240   13.7000 N.3    35  GLN35      -0.1231
     26  CA        17.1430   26.7220   13.7570 C.3    35  GLN35       0.1698
     27  C         15.6330   26.6800   13.5210 C.2    35  GLN35       0.2592
     28  O         14.9160   27.2200   14.3520 O.2    35  GLN35      -0.2718
     29  CB        17.4730   26.1400   15.1650 C.3    35  GLN35       0.0381
     30  CG        18.9540   25.8230   15.4430 C.3    35  GLN35       0.0905
     31  CD        19.1780   25.1860   16.8090 C.2    35  GLN35       0.2608
     32  OE1       18.9840   25.8180   17.8600 O.2    35  GLN35      -0.2717
     33  NE2       19.6060   23.9490   16.8100 N.am   35  GLN35      -0.0878
     34  N         15.1550   26.0990   12.4150 N.am   36  ILE36      -0.1966
     35  CA        13.6940   26.0340   12.1300 C.3    36  ILE36       0.1727
     36  C         13.2250   24.6060   11.7680 C.2    36  ILE36       0.2616
     37  O         14.0180   23.7740   11.3730 O.2    36  ILE36      -0.2715
     38  CB        13.2310   27.0410   10.9810 C.3    36  ILE36       0.0290
     39  CG1       13.6820   26.6290    9.5780 C.3    36  ILE36       0.0022
     40  CG2       13.7480   28.4500   11.1770 C.3    36  ILE36       0.0023
     41  CD1       13.2540   27.6140    8.4830 C.3    36  ILE36       0.0001
     42  N         11.9340   24.3200   11.8920 N.am   37  LEU37      -0.1977
     43  CA        11.3770   23.1000   11.2730 C.3    37  LEU37       0.1596
     44  C         11.0610   23.3360    9.7790 C.2    37  LEU37       0.2287
     45  O         10.6810   24.4430    9.3820 O.2    37  LEU37      -0.2864
     46  CB        10.1290   22.6460   12.0320 C.3    37  LEU37       0.0297
     47  CG        10.4050   22.0350   13.4320 C.3    37  LEU37       0.0022
     48  CD1        9.2260   21.2730   13.9500 C.3    37  LEU37       0.0001
     49  CD2       11.6160   21.1600   13.4690 C.3    37  LEU37       0.0001
     50  N         20.7140   14.9710   15.7570 N.3    61  GLY61      -0.1210
     51  CA        19.6240   15.0050   16.7130 C.3    61  GLY61       0.1956
     52  C         20.2100   15.4540   18.0250 C.2    61  GLY61       0.2613
     53  O         21.2100   14.8750   18.5010 O.2    61  GLY61      -0.2717
     54  N         19.6220   16.5030   18.6040 N.am   62  SER62      -0.1938
     55  CA        20.2050   17.1500   19.7810 C.3    62  SER62       0.2055
     56  C         20.3010   16.1560   20.9500 C.2    62  SER62       0.2643
     57  O         21.3700   15.9420   21.4860 O.2    62  SER62      -0.2714
     58  CB        19.3840   18.3750   20.1780 C.3    62  SER62       0.2130
     59  OG        19.9790   19.0510   21.2780 O.3    62  SER62      -0.2179
     60  N         19.2000   15.5320   21.3370 N.am   63  THR63      -0.1950
     61  CA        19.2380   14.6900   22.4880 C.3    63  THR63       0.1897
     62  C         20.1780   13.5500   22.1790 C.2    63  THR63       0.2313
     63  O         21.0150   13.1990   23.0070 O.2    63  THR63      -0.2863
     64  CB        17.9070   14.0730   22.8570 C.3    63  THR63       0.1794
     65  OG1       16.8680   15.0810   22.9180 O.3    63  THR63      -0.2208
     66  CG2       18.1030   13.2800   24.1820 C.3    63  THR63       0.0378
     67  N         22.8740   13.3660   20.2490 N.3    65  ASN65      -0.1240
     68  CA        24.2340   13.8680   20.4890 C.3    65  ASN65       0.1653
     69  C         24.6380   13.8680   21.9590 C.2    65  ASN65       0.2266
     70  O         25.7090   13.3460   22.3170 O.2    65  ASN65      -0.2867
     71  CB        24.3640   15.3130   20.0290 C.3    65  ASN65       0.1155
     72  CG        24.3550   15.4290   18.5540 C.2    65  ASN65       0.2627
     73  OD1       24.6490   14.4510   17.8700 O.2    65  ASN65      -0.2716
     74  ND2       24.0120   16.6160   18.0400 N.am   65  ASN65      -0.0877
     75  N         18.4840   16.8770    8.9930 N.3   120  CYS120     -0.1235
     76  CA        18.6480   18.3020    9.3500 C.3   120  CYS120      0.1677
     77  C         19.6860   18.9060    8.4290 C.2   120  CYS120      0.2270
     78  O         20.8010   18.4010    8.3580 O.2   120  CYS120     -0.2867
     79  CB        19.0990   18.4530   10.7950 C.3   120  CYS120      0.0956
     80  SG        19.2500   20.1550   11.4450 S.3   120  CYS120     -0.0801
     81  N         20.1450   26.1400   10.4750 N.3   131  LEU131     -0.1245
     82  CA        19.6500   24.7630   10.5520 C.3   131  LEU131      0.1561
     83  C         18.1760   24.6450   10.1680 C.2   131  LEU131      0.2260
     84  O         17.3790   25.3910   10.6630 O.2   131  LEU131     -0.2867
     85  CB        19.8560   24.1840   11.9560 C.3   131  LEU131      0.0270
     86  CG        21.2240   23.5010   12.1230 C.3   131  LEU131      0.0019
     87  CD1       22.3350   24.5070   11.9020 C.3   131  LEU131      0.0001
     88  CD2       21.4420   22.7680   13.4360 C.3   131  LEU131      0.0001
     89  N         15.2780   21.5530   10.0630 N.3   133  ALA133     -0.1245
     90  CA        15.0260   20.1280   10.3490 C.3   133  ALA133      0.1562
     91  C         13.8360   19.6140    9.5350 C.2   133  ALA133      0.2260
     92  O         12.7550   20.1770    9.5790 O.2   133  ALA133     -0.2867
     93  CB        14.7780   19.9060   11.8260 C.3   133  ALA133      0.0290
     94  N         11.9770   16.6430   10.0590 N.3   135  LEU135     -0.1245
     95  CA        11.8360   15.6350   11.0810 C.3   135  LEU135      0.1561
     96  C         11.3970   14.2830   10.4930 C.2   135  LEU135      0.2260
     97  O         12.0040   13.2530   10.8030 O.2   135  LEU135     -0.2867
     98  CB        10.8690   16.1210   12.1570 C.3   135  LEU135      0.0270
     99  CG        11.3080   17.3150   12.9990 C.3   135  LEU135      0.0019
    100  CD1       10.1140   17.7990   13.7820 C.3   135  LEU135      0.0001
    101  CD2       12.4640   16.9520   13.9090 C.3   135  LEU135      0.0001
    102  N         15.4740   16.8260   24.9780 N.3   165  ALA165     -0.1245
    103  CA        15.5220   18.2000   24.4310 C.3   165  ALA165      0.1562
    104  C         14.1160   18.7260   24.2680 C.2   165  ALA165      0.2260
    105  O         13.1910   17.9820   23.9970 O.2   165  ALA165     -0.2867
    106  CB        16.2610   18.2800   23.1090 C.3   165  ALA165      0.0290
    107  N         13.1580   20.1950   21.8030 N.3   167  PHE167     -0.1241
    108  CA        12.8240   19.8200   20.4300 C.3   167  PHE167      0.1605
    109  C         11.7070   18.7610   20.3350 C.2   167  PHE167      0.2264
    110  O         10.8320   18.8680   19.5040 O.2   167  PHE167     -0.2867
    111  CB        14.0540   19.3050   19.6920 C.3   167  PHE167      0.0534
    112  CG        14.9830   20.3700   19.1710 C.ar  167  PHE167     -0.0203
    113  CD1       14.5260   21.4010   18.3950 C.ar  167  PHE167     -0.0042
    114  CD2       16.3430   20.3000   19.4450 C.ar  167  PHE167     -0.0042
    115  CE1       15.3870   22.3760   17.9210 C.ar  167  PHE167     -0.0003
    116  CE2       17.2090   21.2620   18.9750 C.ar  167  PHE167     -0.0003
    117  CZ        16.7240   22.2960   18.2000 C.ar  167  PHE167     -0.0000
    118  N          7.7710   19.1630   19.9730 N.3   170  THR170     -0.1218
    119  CA         6.9810   19.3600   18.7270 C.3   170  THR170      0.1862
    120  C          6.3780   18.0270   18.2230 C.2   170  THR170      0.2287
    121  O          5.5150   18.0260   17.3890 O.2   170  THR170     -0.2866
    122  CB         7.7620   20.0730   17.5990 C.3   170  THR170      0.1770
    123  OG1        8.7270   19.1790   17.0520 O.3   170  THR170     -0.2211
    124  CG2        8.4090   21.3530   18.0920 C.3   170  THR170      0.0375
    125  N         12.1750   28.7690   18.6650 N.3   198  PHE198     -0.1241
    126  CA        10.8620   28.3900   18.1420 C.3   198  PHE198      0.1605
    127  C         10.1180   27.5000   19.1300 C.2   198  PHE198      0.2264
    128  O          8.8900   27.4600   19.1630 O.2   198  PHE198     -0.2867
    129  CB        10.9040   27.7950   16.6950 C.3   198  PHE198      0.0534
    130  CG        11.3960   26.3560   16.5850 C.ar  198  PHE198     -0.0203
    131  CD1       10.6130   25.2870   16.9680 C.ar  198  PHE198     -0.0042
    132  CD2       12.6240   26.0900   16.0640 C.ar  198  PHE198     -0.0042
    133  CE1       11.0620   23.9960   16.8770 C.ar  198  PHE198     -0.0003
    134  CE2       13.1010   24.7910   15.9610 C.ar  198  PHE198     -0.0003
    135  CZ        12.3140   23.7430   16.3810 C.ar  198  PHE198     -0.0000
    136  N         31.0400   25.3370   15.7480 N.3   289  ASP289     -0.1239
    137  CA        29.6820   24.7990   15.8490 C.3   289  ASP289      0.1674
    138  C         29.1990   24.9400   17.3060 C.2   289  ASP289      0.2266
    139  O         29.4070   24.0500   18.1240 O.2   289  ASP289     -0.2867
    140  CB        29.6340   23.3120   15.4260 C.3   289  ASP289      0.1410
    141  CG        28.1930   22.7520   15.3380 C.2   289  ASP289      0.3668
    142  OD1       27.2300   23.5090   15.5300 O.co2 289  ASP289     -0.2456
    143  OD2       28.0110   21.5470   15.0720 O.co2 289  ASP289     -0.2456
    144  N         26.0540   25.0890   18.2810 N.3   291  ASN291     -0.1225
    145  CA        24.9290   24.1840   18.4790 C.3   291  ASN291      0.1785
    146  C         25.3920   22.8190   18.9970 C.2   291  ASN291      0.2597
    147  O         24.9100   22.3400   20.0030 O.2   291  ASN291     -0.2718
    148  CB        24.1450   23.9870   17.1820 C.3   291  ASN291      0.1169
    149  CG        23.6070   25.2960   16.6180 C.2   291  ASN291      0.2627
    150  OD1       22.9620   26.0570   17.3320 O.2   291  ASN291     -0.2716
    151  ND2       23.8530   25.5470   15.3280 N.am  291  ASN291     -0.0877
    152  N         26.3130   22.1980   18.2720 N.am  292  GLY292     -0.1957
    153  CA        26.8850   20.9010   18.6520 C.3   292  GLY292      0.1869
    154  C         27.7110   20.9640   19.9180 C.2   292  GLY292      0.2309
    155  O         27.7290   20.0250   20.6930 O.2   292  GLY292     -0.2863
    156  N         25.1290   20.7730   22.8180 N.3   295  ASP295     -0.1239
    157  CA        24.7380   19.3900   23.0530 C.3   295  ASP295      0.1674
    158  C         25.8040   18.6460   23.8230 C.2   295  ASP295      0.2266
    159  O         25.5120   17.8540   24.7080 O.2   295  ASP295     -0.2867
    160  CB        24.5930   18.6370   21.7110 C.3   295  ASP295      0.1410
    161  CG        23.3930   19.0960   20.8650 C.2   295  ASP295      0.3668
    162  OD1       22.4740   19.7690   21.3630 O.co2 295  ASP295     -0.2456
    163  OD2       23.3890   18.7270   19.6850 O.co2 295  ASP295     -0.2456
@<TRIPOS>BOND
     1    20    19    2
     2    19    18    1
     3    78    77    2
     4    77    76    1
     5    41    39    1
     6    75    76    1
     7    76    79    1
     8    45    44    2
     9    91    92    2
    10    91    90    1
    11    18    17    1
    12    18    21    1
    13    39    38    1
    14    44    43    1
    15    94    95    1
    16    89    90    1
    17    83    82    1
    18    83    84    2
    19    90    93    1
    20    81    82    1
    21    96    97    2
    22    96    95    1
    23    82    85    1
    24    21    22    1
    25    79    80    1
    26    38    40    1
    27    38    35    1
    28    95    98    1
    29    43    42    1
    30    43    46    1
    31    37    36    2
    32    36    42   am
    33    36    35    1
    34    87    86    1
    35    85    86    1
    36    22    23   ar
    37    22    24   ar
    38    46    47    1
    39    11    10    1
    40    11    12    2
    41    86    88    1
    42    35    34    1
    43    98    99    1
    44    34    27   am
    45    16    14    1
    46    10    13    1
    47    10     9    1
    48    13    14    1
    49    99   100    1
    50    99   101    1
    51    14    15    1
    52    47    49    1
    53    47    48    1
    54    27    26    1
    55    27    28    2
    56    25    26    1
    57    26    29    1
    58   143   141   ar
    59    29    30    1
    60   151   149   am
    61   141   140    1
    62   141   142   ar
    63   140   137    1
    64    30    31    1
    65   136   137    1
    66    50    51    1
    67   137   138    1
    68   134   132   ar
    69   134   135   ar
    70   132   130   ar
    71   135   133   ar
    72   130   129    1
    73   130   131   ar
    74     5     6    1
    75     5     2    1
    76   149   148    1
    77   149   150    2
    78     4     3    2
    79     3     2    1
    80   129   126    1
    81    51    52    1
    82    31    33   am
    83    31    32    2
    84   133   131   ar
    85   123   122    1
    86     6     7    2
    87     6     8   am
    88   148   145    1
    89     2     1    1
    90   138   139    2
    91   121   120    2
    92   122   124    1
    93   122   119    1
    94    73    72    2
    95   115   117   ar
    96   115   113   ar
    97    52    53    2
    98    52    54   am
    99    74    72   am
   100   126   125    1
   101   126   127    1
   102   117   116   ar
   103   120   119    1
   104   152   153    1
   105   152   146   am
   106   144   145    1
   107   113   112   ar
   108   145   146    1
   109    72    71    1
   110    54    55    1
   111   153   154    1
   112   119   118    1
   113   116   114   ar
   114   146   147    2
   115   127   128    2
   116   112   114   ar
   117   112   111    1
   118   110   109    2
   119   163   161   ar
   120   111   108    1
   121    55    58    1
   122    55    56    1
   123   154   155    2
   124    71    68    1
   125    58    59    1
   126    67    68    1
   127   109   108    1
   128   108   107    1
   129    68    69    1
   130   161   162   ar
   131   161   160    1
   132    56    60   am
   133    56    57    2
   134    60    61    1
   135   160   157    1
   136    69    70    2
   137    62    61    1
   138    62    63    2
   139    61    64    1
   140   156   157    1
   141    64    65    1
   142    64    66    1
   143   157   158    1
   144   106   103    1
   145   158   159    2
   146   105   104    2
   147   104   103    1
   148   103   102    1
