@<TRIPOS>MOLECULE
tmp/4o1pC00.pdb
 203 192 0 0 0
SMALL
GASTEIGER

@<TRIPOS>ATOM
      1  N         31.0370  -54.6990   48.8860 N.3   310  TRP310     -0.1241
      2  CA        30.5360  -53.3380   48.8110 C.3   310  TRP310      0.1605
      3  C         29.0220  -53.2530   48.6010 C.2   310  TRP310      0.2264
      4  O         28.4740  -52.1600   48.4970 O.2   310  TRP310     -0.2867
      5  CB        31.2390  -52.6130   47.6640 C.3   310  TRP310      0.0550
      6  CG        32.7450  -52.6220   47.7860 C.ar  310  TRP310      0.0003
      7  CD1       33.6380  -53.2400   46.9530 C.ar  310  TRP310      0.0946
      8  CD2       33.5220  -52.0010   48.8150 C.ar  310  TRP310      0.0152
      9  NE1       34.9120  -53.0370   47.3970 N.ar  310  TRP310     -0.2442
     10  CE2       34.8720  -52.2720   48.5340 C.ar  310  TRP310      0.0810
     11  CE3       33.2010  -51.2430   49.9490 C.ar  310  TRP310      0.0012
     12  CZ2       35.9010  -51.8170   49.3430 C.ar  310  TRP310      0.0191
     13  CZ3       34.2170  -50.8020   50.7530 C.ar  310  TRP310      0.0001
     14  CH2       35.5500  -51.0800   50.4490 C.ar  310  TRP310      0.0015
     15  N         36.0250  -46.1520   49.9860 N.3   338  ILE338     -0.1231
     16  CA        36.7900  -47.3730   49.8040 C.3   338  ILE338      0.1692
     17  C         38.1840  -47.2630   50.4340 C.2   338  ILE338      0.2592
     18  O         38.6530  -48.2130   51.0710 O.2   338  ILE338     -0.2718
     19  CB        36.9180  -47.7440   48.3100 C.3   338  ILE338      0.0266
     20  CG1       35.5530  -48.1810   47.7630 C.3   338  ILE338      0.0019
     21  CG2       37.9350  -48.8690   48.1170 C.3   338  ILE338      0.0020
     22  CD1       35.4870  -48.3110   46.2590 C.3   338  ILE338      0.0001
     23  N         38.8460  -46.1240   50.2450 N.am  339  ALA339     -0.1966
     24  CA        40.2260  -45.9470   50.7070 C.3   339  ALA339      0.1728
     25  C         40.7110  -44.5140   50.5620 C.2   339  ALA339      0.2616
     26  O         40.1320  -43.7320   49.8120 O.2   339  ALA339     -0.2715
     27  CB        41.1520  -46.8590   49.9240 C.3   339  ALA339      0.0334
     28  N         41.7740  -44.1830   51.2940 N.am  340  ASP340     -0.1957
     29  CA        42.4680  -42.9020   51.1530 C.3   340  ASP340      0.1840
     30  C         43.3490  -42.9230   49.9240 C.2   340  ASP340      0.2623
     31  O         43.8250  -43.9880   49.5150 O.2   340  ASP340     -0.2715
     32  CB        43.3780  -42.6340   52.3550 C.3   340  ASP340      0.1450
     33  CG        42.6160  -42.2710   53.5980 C.2   340  ASP340      0.3671
     34  OD1       41.7550  -41.3710   53.5280 O.co2 340  ASP340     -0.2456
     35  OD2       42.8910  -42.8730   54.6600 O.co2 340  ASP340     -0.2456
     36  N         43.5830  -41.7450   49.3520 N.am  341  THR341     -0.1937
     37  CA        44.6050  -41.5780   48.3200 C.3   341  THR341      0.2028
     38  C         45.4650  -40.3570   48.6370 C.2   341  THR341      0.2642
     39  O         45.2650  -39.6910   49.6570 O.2   341  THR341     -0.2714
     40  CB        43.9960  -41.4380   46.9050 C.3   341  THR341      0.1808
     41  OG1       43.2710  -40.2090   46.7980 O.3   341  THR341     -0.2208
     42  CG2       43.0800  -42.6100   46.5820 C.3   341  THR341      0.0379
     43  N         46.3610  -40.0590   47.7390 N.am  342  ALA342     -0.1977
     44  CA        47.1270  -38.8210   47.7530 C.3   342  ALA342      0.1597
     45  C         46.3470  -37.5200   47.6390 C.2   342  ALA342      0.2287
     46  O         46.6720  -36.6020   48.2670 O.2   342  ALA342     -0.2864
     47  CB        48.2960  -38.8670   46.8330 C.3   342  ALA342      0.0319
     48  N         39.1570  -42.8630   47.2400 N.3   346  ILE346     -0.1245
     49  CA        38.4200  -43.7390   46.3770 C.3   346  ILE346      0.1561
     50  C         37.0530  -43.9300   47.0070 C.2   346  ILE346      0.2260
     51  O         36.9550  -44.4010   48.1360 O.2   346  ILE346     -0.2867
     52  CB        39.0790  -45.1200   46.2770 C.3   346  ILE346      0.0252
     53  CG1       40.5770  -45.0100   46.0070 C.3   346  ILE346      0.0019
     54  CG2       38.4070  -45.9640   45.2010 C.3   346  ILE346      0.0019
     55  CD1       40.9600  -44.4440   44.6520 C.3   346  ILE346      0.0001
     56  N         34.3130  -47.8340   41.2750 N.3   357  ALA357     -0.1245
     57  CA        35.1430  -47.1580   42.2160 C.3   357  ALA357      0.1562
     58  C         35.5110  -45.8520   41.5600 C.2   357  ALA357      0.2260
     59  O         35.8350  -45.8080   40.3800 O.2   357  ALA357     -0.2867
     60  CB        36.3740  -47.9910   42.5300 C.3   357  ALA357      0.0290
     61  N         37.9710  -42.6080   41.7030 N.3   359  LYS359     -0.1245
     62  CA        39.1890  -41.9950   42.1900 C.3   359  LYS359      0.1561
     63  C         39.1390  -40.5150   41.8900 C.2   359  LYS359      0.2260
     64  O         39.0230  -40.1150   40.7270 O.2   359  LYS359     -0.2867
     65  CB        40.3970  -42.6270   41.5040 C.3   359  LYS359      0.0271
     66  CG        41.7310  -42.1610   42.0380 C.3   359  LYS359      0.0035
     67  CD        42.8530  -43.0610   41.5500 C.3   359  LYS359      0.0206
     68  CE        44.1840  -42.6940   42.1860 C.3   359  LYS359      0.1093
     69  NZ        45.2990  -43.4520   41.5560 N.3   359  LYS359     -0.1314
     70  N         42.4910  -52.7040   35.0170 N.3   385  VAL385     -0.1245
     71  CA        41.1840  -52.4400   35.5900 C.3   385  VAL385      0.1561
     72  C         40.3680  -51.6840   34.5420 C.2   385  VAL385      0.2260
     73  O         40.8590  -50.7440   33.9250 O.2   385  VAL385     -0.2867
     74  CB        41.2860  -51.6880   36.9360 C.3   385  VAL385      0.0252
     75  CG1       41.8840  -50.3160   36.7530 C.3   385  VAL385      0.0019
     76  CG2       39.9340  -51.6060   37.6110 C.3   385  VAL385      0.0019
     77  N         36.2150  -46.4220   37.6540 N.3   401  LEU401     -0.1231
     78  CA        36.8220  -47.7150   37.3590 C.3   401  LEU401      0.1693
     79  C         35.8940  -48.8620   37.7560 C.2   401  LEU401      0.2592
     80  O         35.0620  -48.7080   38.6300 O.2   401  LEU401     -0.2718
     81  CB        38.1270  -47.8560   38.1540 C.3   401  LEU401      0.0284
     82  CG        39.1340  -46.7090   38.0990 C.3   401  LEU401      0.0019
     83  CD1       40.2350  -46.8820   39.1420 C.3   401  LEU401      0.0001
     84  CD2       39.7450  -46.6050   36.7170 C.3   401  LEU401      0.0001
     85  N         36.0840  -50.0260   37.1560 N.am  402  ALA402     -0.1966
     86  CA        35.4510  -51.2490   37.6420 C.3   402  ALA402      0.1728
     87  C         35.7190  -51.4430   39.1380 C.2   402  ALA402      0.2616
     88  O         36.8460  -51.3140   39.5950 O.2   402  ALA402     -0.2715
     89  CB        35.9610  -52.4600   36.8620 C.3   402  ALA402      0.0334
     90  N         34.6770  -51.7680   39.8890 N.am  403  LEU403     -0.1963
     91  CA        34.8010  -51.9720   41.3250 C.3   403  LEU403      0.1728
     92  C         35.3290  -53.3610   41.6010 C.2   403  LEU403      0.2616
     93  O         34.6900  -54.3450   41.2360 O.2   403  LEU403     -0.2715
     94  CB        33.4300  -51.8030   41.9940 C.3   403  LEU403      0.0311
     95  CG        33.3460  -51.9130   43.5110 C.3   403  LEU403      0.0022
     96  CD1       34.2660  -50.9150   44.1840 C.3   403  LEU403      0.0001
     97  CD2       31.9140  -51.6850   43.9580 C.3   403  LEU403      0.0001
     98  N         36.4830  -53.4380   42.2520 N.am  404  CYS404     -0.1954
     99  CA        37.0810  -54.7120   42.6160 C.3   404  CYS404      0.1843
    100  C         36.8920  -55.0040   44.1080 C.2   404  CYS404      0.2625
    101  O         36.5650  -54.1070   44.8780 O.2   404  CYS404     -0.2714
    102  CB        38.5610  -54.7060   42.2520 C.3   404  CYS404      0.0997
    103  SG        38.8380  -54.6510   40.4620 S.3   404  CYS404     -0.0797
    104  N         37.0620  -56.2610   44.5000 N.am  405  GLU405     -0.1963
    105  CA        36.8010  -56.6790   45.8760 C.3   405  GLU405      0.1733
    106  C         37.9740  -56.3550   46.7680 C.2   405  GLU405      0.2616
    107  O         37.8440  -55.6120   47.7460 O.2   405  GLU405     -0.2715
    108  CB        36.5360  -58.1890   45.9590 C.3   405  GLU405      0.0429
    109  CG        35.2460  -58.6340   45.3070 C.3   405  GLU405      0.1163
    110  CD        34.0560  -57.8650   45.8420 C.2   405  GLU405      0.3649
    111  OE1       33.5660  -58.1800   46.9490 O.co2 405  GLU405     -0.2457
    112  OE2       33.6410  -56.9060   45.1710 O.co2 405  GLU405     -0.2457
    113  N         39.1290  -56.9000   46.4000 N.am  406  TYR406     -0.1960
    114  CA        40.2970  -56.8410   47.2500 C.3   406  TYR406      0.1771
    115  C         41.5600  -56.4940   46.4790 C.2   406  TYR406      0.2620
    116  O         41.6640  -56.6810   45.2670 O.2   406  TYR406     -0.2715
    117  CB        40.4810  -58.1780   47.9900 C.3   406  TYR406      0.0574
    118  CG        39.4030  -58.4380   49.0210 C.ar  406  TYR406     -0.0198
    119  CD1       39.4210  -57.7820   50.2480 C.ar  406  TYR406     -0.0009
    120  CD2       38.3520  -59.3150   48.7620 C.ar  406  TYR406     -0.0009
    121  CE1       38.4280  -57.9830   51.1930 C.ar  406  TYR406      0.0417
    122  CE2       37.3540  -59.5260   49.7010 C.ar  406  TYR406      0.0417
    123  CZ        37.3940  -58.8520   50.9130 C.ar  406  TYR406      0.1957
    124  OH        36.4100  -59.0550   51.8640 O.3   406  TYR406     -0.2866
    125  N         42.5010  -55.9550   47.2330 N.am  407  THR407     -0.1951
    126  CA        43.8680  -55.7500   46.8050 C.3   407  THR407      0.1897
    127  C         44.5430  -57.1160   46.7900 C.2   407  THR407      0.2313
    128  O         44.0800  -58.0490   47.4640 O.2   407  THR407     -0.2863
    129  CB        44.5150  -54.7430   47.7880 C.3   407  THR407      0.1794
    130  OG1       44.4570  -53.4260   47.2210 O.3   407  THR407     -0.2208
    131  CG2       45.9090  -55.0680   48.1230 C.3   407  THR407      0.0378
    132  N         45.4330  -58.0560   50.3510 N.3   410  GLU410     -0.1245
    133  CA        44.2640  -58.5270   51.1150 C.3   410  GLU410      0.1567
    134  C         43.7980  -59.8950   50.6300 C.2   410  GLU410      0.2260
    135  O         43.4150  -60.7550   51.4250 O.2   410  GLU410     -0.2867
    136  CB        43.1050  -57.5270   50.9940 C.3   410  GLU410      0.0388
    137  CG        43.3770  -56.1400   51.5760 C.3   410  GLU410      0.1160
    138  CD        42.3390  -55.0940   51.1530 C.2   410  GLU410      0.3649
    139  OE1       41.9770  -55.0290   49.9640 O.co2 410  GLU410     -0.2457
    140  OE2       41.8970  -54.3070   52.0120 O.co2 410  GLU410     -0.2457
    141  N         55.1570  -47.8790   39.4760 N.3   451  ASP451     -0.1239
    142  CA        54.7380  -48.0850   40.7930 C.3   451  ASP451      0.1674
    143  C         54.1470  -49.4670   41.0300 C.2   451  ASP451      0.2266
    144  O         53.2740  -49.6210   41.6990 O.2   451  ASP451     -0.2867
    145  CB        53.8700  -46.9560   41.1800 C.3   451  ASP451      0.1410
    146  CG        53.6190  -46.8090   42.6340 C.2   451  ASP451      0.3668
    147  OD1       54.3640  -47.0600   43.4340 O.co2 451  ASP451     -0.2456
    148  OD2       52.5950  -46.3120   43.0120 O.co2 451  ASP451     -0.2456
    149  N         53.2310  -52.5390   42.6570 N.3   453  GLN453     -0.1245
    150  CA        53.2970  -53.0750   44.0030 C.3   453  GLN453      0.1566
    151  C         51.9630  -53.7340   44.3490 C.2   453  GLN453      0.2260
    152  O         50.9530  -53.4680   43.6830 O.2   453  GLN453     -0.2867
    153  CB        53.6670  -51.9670   44.9880 C.3   453  GLN453      0.0367
    154  CG        52.5710  -50.9450   45.2480 C.3   453  GLN453      0.0905
    155  CD        52.5860  -50.4860   46.6840 C.2   453  GLN453      0.2608
    156  OE1       51.9280  -51.0850   47.5530 O.2   453  GLN453     -0.2717
    157  NE2       53.3730  -49.4400   46.9590 N.am  453  GLN453     -0.0878
    158  N         49.5250  -53.3710   46.4090 N.3   455  GLN455     -0.1231
    159  CA        48.3070  -52.5510   46.6710 C.3   455  GLN455      0.1698
    160  C         47.7620  -51.8140   45.4290 C.2   455  GLN455      0.2592
    161  O         46.7230  -51.1690   45.4840 O.2   455  GLN455     -0.2718
    162  CB        48.5750  -51.5590   47.7950 C.3   455  GLN455      0.0381
    163  CG        48.8810  -52.2380   49.1240 C.3   455  GLN455      0.0905
    164  CD        49.2100  -51.2540   50.2430 C.2   455  GLN455      0.2608
    165  OE1       49.6940  -50.1420   49.9960 O.2   455  GLN455     -0.2717
    166  NE2       48.9320  -51.6510   51.4770 N.am  455  GLN455     -0.0878
    167  N         48.4690  -51.9400   44.3110 N.am  456  ASN456     -0.1974
    168  CA        48.0250  -51.4460   43.0120 C.3   456  ASN456      0.1688
    169  C         47.5480  -52.5700   42.1160 C.2   456  ASN456      0.2292
    170  O         47.3380  -52.3720   40.9230 O.2   456  ASN456     -0.2864
    171  CB        49.1790  -50.7260   42.3410 C.3   456  ASN456      0.1181
    172  CG        49.5980  -49.4940   43.1040 C.2   456  ASN456      0.2629
    173  OD1       48.8180  -48.9600   43.8970 O.2   456  ASN456     -0.2716
    174  ND2       50.8180  -49.0130   42.8490 N.am  456  ASN456     -0.0877
    175  N         44.5020  -55.4470   41.8000 N.3   458  LEU458     -0.1245
    176  CA        43.1560  -55.6290   42.3100 C.3   458  LEU458      0.1561
    177  C         42.5590  -56.9390   41.8510 C.2   458  LEU458      0.2260
    178  O         42.7610  -57.3570   40.6940 O.2   458  LEU458     -0.2867
    179  CB        42.2790  -54.4890   41.8320 C.3   458  LEU458      0.0270
    180  CG        42.7980  -53.0840   42.1460 C.3   458  LEU458      0.0019
    181  CD1       41.9050  -52.0620   41.4750 C.3   458  LEU458      0.0001
    182  CD2       42.8590  -52.8290   43.6460 C.3   458  LEU458      0.0001
    183  N         46.1540  -51.5400   38.3540 N.3   468  ALA468     -0.1231
    184  CA        45.2510  -50.4170   38.7050 C.3   468  ALA468      0.1694
    185  C         45.7150  -48.9630   38.8600 C.2   468  ALA468      0.2592
    186  O         44.9100  -48.0570   38.6180 O.2   468  ALA468     -0.2718
    187  CB        44.4660  -50.7730   39.9510 C.3   468  ALA468      0.0304
    188  N         46.9080  -48.6660   39.3230 N.am  469  ASP469     -0.1974
    189  CA        47.1140  -47.2710   39.7940 C.3   469  ASP469      0.1709
    190  C         48.1160  -46.5240   38.9090 C.2   469  ASP469      0.2293
    191  O         49.3250  -46.7400   39.0180 O.2   469  ASP469     -0.2864
    192  CB        47.4900  -47.3080   41.2880 C.3   469  ASP469      0.1436
    193  CG        48.2420  -46.0730   41.7700 C.2   469  ASP469      0.3671
    194  OD1       48.1650  -44.9890   41.1380 O.co2 469  ASP469     -0.2456
    195  OD2       48.9260  -46.2020   42.8240 O.co2 469  ASP469     -0.2456
    196  N         48.5140  -43.0500   38.2940 N.3   471  ASP471     -0.1239
    197  CA        48.7880  -41.6320   38.5410 C.3   471  ASP471      0.1674
    198  C         50.2710  -41.2430   38.3310 C.2   471  ASP471      0.2266
    199  O         50.5730  -40.0730   38.1600 O.2   471  ASP471     -0.2867
    200  CB        48.2630  -41.1630   39.9300 C.3   471  ASP471      0.1410
    201  CG        48.7930  -41.9900   41.0950 C.2   471  ASP471      0.3668
    202  OD1       49.9350  -42.4680   41.0410 O.co2 471  ASP471     -0.2456
    203  OD2       48.0640  -42.1790   42.0920 O.co2 471  ASP471     -0.2456
@<TRIPOS>BOND
     1    73    72    2
     2    72    71    1
     3    70    71    1
     4    71    74    1
     5    84    82    1
     6    75    74    1
     7    89    86    1
     8    74    76    1
     9    85    86    1
    10    85    79   am
    11    78    77    1
    12    78    79    1
    13    78    81    1
    14    86    87    1
    15    79    80    2
    16    82    81    1
    17    82    83    1
    18   199   198    2
    19   196   197    1
    20   198   197    1
    21   183   184    1
    22   197   200    1
    23   186   185    2
    24   184   185    1
    25   184   187    1
    26   185   188   am
    27   190   191    2
    28   190   189    1
    29    87    88    2
    30    87    90   am
    31   188   189    1
    32   141   142    1
    33   189   192    1
    34    90    91    1
    35   200   201    1
    36    59    58    2
    37   103   102    1
    38   178   177    2
    39    64    63    2
    40   142   143    1
    41   142   145    1
    42   170   169    2
    43   143   144    2
    44   202   201   ar
    45   201   203   ar
    46   194   193   ar
    47   145   146    1
    48    93    92    2
    49    56    57    1
    50   192   193    1
    51    91    92    1
    52    91    94    1
    53   181   180    1
    54    65    66    1
    55    65    62    1
    56    67    66    1
    57    67    68    1
    58    69    68    1
    59    58    57    1
    60    92    98   am
    61    61    62    1
    62   193   195   ar
    63   175   176    1
    64   179   180    1
    65   179   176    1
    66   177   176    1
    67    63    62    1
    68    94    95    1
    69   169   168    1
    70   180   182    1
    71    57    60    1
    72   102    99    1
    73    98    99    1
    74   171   168    1
    75   171   172    1
    76    99   100    1
    77   146   148   ar
    78   146   147   ar
    79   149   150    1
    80   174   172   am
    81   168   167    1
    82   172   173    2
    83    95    97    1
    84    95    96    1
    85   152   151    2
    86   150   151    1
    87   150   153    1
    88   100   104   am
    89   100   101    2
    90   167   160   am
    91   104   105    1
    92    55    53    1
    93   153   154    1
    94   112   110   ar
    95    54    52    1
    96   154   155    1
    97   116   115    2
    98   109   110    1
    99   109   108    1
   100   160   161    2
   101   160   159    1
   102   110   111   ar
   103   105   108    1
   104   105   106    1
   105    53    52    1
   106    22    20    1
   107    52    49    1
   108    49    50    1
   109    49    48    1
   110   113   106   am
   111   113   114    1
   112   158   159    1
   113   115   125   am
   114   115   114    1
   115    42    40    1
   116   159   162    1
   117   155   157   am
   118   155   156    2
   119   106   107    2
   120   127   126    1
   121   127   128    2
   122    41    40    1
   123   126   125    1
   124   126   129    1
   125    47    44    1
   126    40    37    1
   127     7     9   ar
   128     7     6   ar
   129    50    51    2
   130   130   129    1
   131   114   117    1
   132     9    10   ar
   133    45    44    1
   134    45    46    2
   135     5     6    1
   136     5     2    1
   137    43    44    1
   138    43    38   am
   139    20    19    1
   140     6     8   ar
   141   129   131    1
   142   162   163    1
   143   117   118    1
   144    21    19    1
   145    19    16    1
   146    37    38    1
   147    37    36    1
   148     4     3    2
   149    10     8   ar
   150    10    12   ar
   151     3     2    1
   152    38    39    2
   153   120   118   ar
   154   120   122   ar
   155     2     1    1
   156     8    11   ar
   157   118   119   ar
   158   163   164    1
   159    12    14   ar
   160    36    30   am
   161    31    30    2
   162   122   123   ar
   163    16    15    1
   164    16    17    1
   165    26    25    2
   166    30    29    1
   167    27    24    1
   168    11    13   ar
   169   139   138   ar
   170   165   164    2
   171   164   166   am
   172    23    17   am
   173    23    24    1
   174   119   121   ar
   175   132   133    1
   176    17    18    2
   177    14    13   ar
   178    25    24    1
   179    25    28   am
   180   134   133    1
   181   134   135    2
   182   123   121   ar
   183   123   124    1
   184   136   133    1
   185   136   137    1
   186    29    28    1
   187    29    32    1
   188   138   137    1
   189   138   140   ar
   190    32    33    1
   191    34    33   ar
   192    33    35   ar
