@<TRIPOS>MOLECULE
tmp/4o1pC01.pdb
 250 232 0 0 0
SMALL
GASTEIGER

@<TRIPOS>ATOM
      1  N         45.6210  -19.6340   -6.9170 N.3     7  THR7       -0.1218
      2  CA        44.8050  -19.7800   -5.7170 C.3     7  THR7        0.1862
      3  C         45.1960  -18.7510   -4.6520 C.2     7  THR7        0.2287
      4  O         44.3250  -18.0830   -4.0940 O.2     7  THR7       -0.2866
      5  CB        44.8760  -21.2220   -5.1650 C.3     7  THR7        0.1770
      6  OG1       44.3190  -22.1280   -6.1290 O.3     7  THR7       -0.2211
      7  CG2       44.0960  -21.3590   -3.8630 C.3     7  THR7        0.0375
      8  N         43.1390  -15.3940   -3.0880 N.3    11  GLN11      -0.1245
      9  CA        42.9950  -15.1810   -1.6420 C.3    11  GLN11       0.1566
     10  C         43.4530  -13.7900   -1.2190 C.2    11  GLN11       0.2260
     11  O         42.7460  -13.0940   -0.4890 O.2    11  GLN11      -0.2867
     12  CB        43.7760  -16.2370   -0.8420 C.3    11  GLN11       0.0367
     13  CG        43.1390  -17.6190   -0.8160 C.3    11  GLN11       0.0905
     14  CD        41.7390  -17.6010   -0.2230 C.2    11  GLN11       0.2608
     15  OE1       41.5370  -17.1380    0.9020 O.2    11  GLN11      -0.2717
     16  NE2       40.7690  -18.1160   -0.9700 N.am   11  GLN11      -0.0878
     17  N         41.1180  -27.6340   -5.5540 N.3    32  GLU32      -0.1245
     18  CA        42.0630  -28.2480   -4.6170 C.3    32  GLU32       0.1567
     19  C         41.4930  -29.5720   -4.1210 C.2    32  GLU32       0.2260
     20  O         40.2790  -29.7140   -3.9530 O.2    32  GLU32      -0.2867
     21  CB        42.4430  -27.3080   -3.4580 C.3    32  GLU32       0.0388
     22  CG        41.2930  -26.6680   -2.6840 C.3    32  GLU32       0.1160
     23  CD        40.7700  -27.5170   -1.5370 C.2    32  GLU32       0.3649
     24  OE1       41.5530  -28.2690   -0.9130 O.co2  32  GLU32      -0.2457
     25  OE2       39.5590  -27.4150   -1.2550 O.co2  32  GLU32      -0.2457
     26  N         39.1220  -30.3810   -0.2700 N.3    35  TRP35      -0.1241
     27  CA        37.7330  -29.9550   -0.0730 C.3    35  TRP35       0.1605
     28  C         37.0330  -29.4790   -1.3510 C.2    35  TRP35       0.2264
     29  O         35.8710  -29.0610   -1.3050 O.2    35  TRP35      -0.2867
     30  CB        37.6730  -28.8690    1.0110 C.3    35  TRP35       0.0550
     31  CG        38.1700  -29.3650    2.3280 C.ar   35  TRP35       0.0003
     32  CD1       39.3310  -29.0270    2.9430 C.ar   35  TRP35       0.0946
     33  CD2       37.5360  -30.3360    3.1680 C.ar   35  TRP35       0.0152
     34  NE1       39.4550  -29.7130    4.1250 N.ar   35  TRP35      -0.2442
     35  CE2       38.3650  -30.5240    4.2860 C.ar   35  TRP35       0.0810
     36  CE3       36.3420  -31.0600    3.0810 C.ar   35  TRP35       0.0012
     37  CZ2       38.0390  -31.3980    5.3220 C.ar   35  TRP35       0.0191
     38  CZ3       36.0180  -31.9320    4.1050 C.ar   35  TRP35       0.0001
     39  CH2       36.8680  -32.0980    5.2090 C.ar   35  TRP35       0.0015
     40  N         37.4950  -26.8550   -3.2990 N.3    37  TRP37      -0.1241
     41  CA        37.3160  -25.4170   -3.5090 C.3    37  TRP37       0.1605
     42  C         37.9710  -24.9570   -4.8100 C.2    37  TRP37       0.2264
     43  O         39.1340  -25.2640   -5.0660 O.2    37  TRP37      -0.2867
     44  CB        37.9030  -24.6080   -2.3400 C.3    37  TRP37       0.0550
     45  CG        37.0290  -24.5960   -1.1290 C.ar   37  TRP37       0.0003
     46  CD1       36.9870  -25.5300   -0.1440 C.ar   37  TRP37       0.0946
     47  CD2       36.0620  -23.6010   -0.7790 C.ar   37  TRP37       0.0152
     48  NE1       36.0600  -25.1800    0.8040 N.ar   37  TRP37      -0.2442
     49  CE2       35.4730  -24.0030    0.4350 C.ar   37  TRP37       0.0810
     50  CE3       35.6360  -22.4070   -1.3750 C.ar   37  TRP37       0.0012
     51  CZ2       34.4880  -23.2510    1.0700 C.ar   37  TRP37       0.0191
     52  CZ3       34.6470  -21.6640   -0.7470 C.ar   37  TRP37       0.0001
     53  CH2       34.0820  -22.0900    0.4630 C.ar   37  TRP37       0.0015
     54  N         35.9510  -19.5500   -4.0050 N.3    42  SER42      -0.1217
     55  CA        36.7220  -18.6760   -3.1200 C.3    42  SER42       0.1889
     56  C         36.3970  -17.2040   -3.3410 C.2    42  SER42       0.2288
     57  O         36.3620  -16.4230   -2.3890 O.2    42  SER42      -0.2866
     58  CB        38.2290  -18.9090   -3.3240 C.3    42  SER42       0.2089
     59  OG        38.5720  -20.2800   -3.1400 O.3    42  SER42      -0.2183
     60  N         32.9680  -16.4990   -1.8760 N.3    45  GLN45      -0.1245
     61  CA        33.1170  -16.5750   -0.4180 C.3    45  GLN45       0.1566
     62  C         33.7210  -15.3060    0.1870 C.2    45  GLN45       0.2260
     63  O         33.2260  -14.8000    1.1940 O.2    45  GLN45      -0.2867
     64  CB        33.9880  -17.7820   -0.0780 C.3    45  GLN45       0.0367
     65  CG        34.1950  -18.0510    1.3990 C.3    45  GLN45       0.0905
     66  CD        35.2990  -19.0710    1.6430 C.2    45  GLN45       0.2608
     67  OE1       36.3420  -19.0340    0.9920 O.2    45  GLN45      -0.2717
     68  NE2       35.0820  -19.9730    2.5970 N.am   45  GLN45      -0.0878
     69  N         31.8880  -28.4270   -5.0920 N.3    66  LYS66      -0.1245
     70  CA        32.9730  -28.8010   -4.1880 C.3    66  LYS66       0.1561
     71  C         32.5880  -30.0510   -3.3830 C.2    66  LYS66       0.2260
     72  O         31.5230  -30.6220   -3.6210 O.2    66  LYS66      -0.2867
     73  CB        33.4020  -27.6090   -3.3190 C.3    66  LYS66       0.0271
     74  CG        32.3980  -27.0750   -2.3080 C.3    66  LYS66       0.0035
     75  CD        32.7150  -25.6250   -1.9840 C.3    66  LYS66       0.0206
     76  CE        32.4840  -25.2370   -0.5330 C.3    66  LYS66       0.1093
     77  NZ        31.1860  -25.6340    0.0790 N.3    66  LYS66      -0.1314
     78  N         31.2710  -31.0010   -0.6170 N.3    68  ASN68      -0.1240
     79  CA        29.8990  -31.1020   -0.1010 C.3    68  ASN68       0.1653
     80  C         28.8200  -30.7950   -1.1580 C.2    68  ASN68       0.2266
     81  O         27.6360  -30.7180   -0.8360 O.2    68  ASN68      -0.2867
     82  CB        29.7130  -30.2270    1.1440 C.3    68  ASN68       0.1155
     83  CG        29.4730  -28.7600    0.8130 C.2    68  ASN68       0.2627
     84  OD1       30.0900  -28.2080   -0.0980 O.2    68  ASN68      -0.2716
     85  ND2       28.5600  -28.1270    1.5450 N.am   68  ASN68      -0.0877
     86  N         26.9740  -20.6580   -2.3740 N.3    75  ILE75      -0.1245
     87  CA        27.8570  -19.8800   -1.5140 C.3    75  ILE75       0.1561
     88  C         27.4540  -18.4170   -1.5330 C.2    75  ILE75       0.2260
     89  O         27.5890  -17.7280   -0.5310 O.2    75  ILE75      -0.2867
     90  CB        29.3490  -20.0360   -1.9280 C.3    75  ILE75       0.0252
     91  CG1       29.7820  -21.5090   -1.9070 C.3    75  ILE75       0.0019
     92  CG2       30.2670  -19.2270   -1.0180 C.3    75  ILE75       0.0019
     93  CD1       29.3820  -22.2750   -0.6520 C.3    75  ILE75       0.0001
     94  N         25.0950  -17.4760    1.0970 N.3    78  ILE78      -0.1245
     95  CA        25.7320  -17.3140    2.3970 C.3    78  ILE78       0.1561
     96  C         26.2280  -15.8880    2.5600 C.2    78  ILE78       0.2260
     97  O         25.9260  -15.2380    3.5580 O.2    78  ILE78      -0.2867
     98  CB        26.9080  -18.2990    2.5840 C.3    78  ILE78       0.0252
     99  CG1       26.3780  -19.7300    2.6640 C.3    78  ILE78       0.0019
    100  CG2       27.6940  -17.9600    3.8480 C.3    78  ILE78       0.0019
    101  CD1       27.4460  -20.8080    2.5650 C.3    78  ILE78       0.0001
    102  N         23.1120  -28.7510   -2.2990 N.3    99  ASP99      -0.1239
    103  CA        24.3350  -29.4940   -1.9970 C.3    99  ASP99       0.1674
    104  C         23.9840  -30.8880   -1.4680 C.2    99  ASP99       0.2266
    105  O         22.8050  -31.2440   -1.4210 O.2    99  ASP99      -0.2867
    106  CB        25.2660  -28.6800   -1.0710 C.3    99  ASP99       0.1410
    107  CG        24.7840  -28.5800    0.3820 C.2    99  ASP99       0.3668
    108  OD1       23.8140  -29.2570    0.8010 O.co2  99  ASP99      -0.2456
    109  OD2       25.4170  -27.7820    1.1120 O.co2  99  ASP99      -0.2456
    110  N         23.8280  -32.2340    1.3940 N.3   101  ASN101     -0.1240
    111  CA        23.0020  -32.2480    2.6130 C.3   101  ASN101      0.1653
    112  C         21.6700  -31.5110    2.4560 C.2   101  ASN101      0.2266
    113  O         20.9090  -31.4070    3.4220 O.2   101  ASN101     -0.2867
    114  CB        23.7840  -31.6680    3.7960 C.3   101  ASN101      0.1155
    115  CG        24.9850  -32.5150    4.1570 C.2   101  ASN101      0.2627
    116  OD1       24.8380  -33.6500    4.6340 O.2   101  ASN101     -0.2716
    117  ND2       26.1760  -31.9930    3.9090 N.am  101  ASN101     -0.0877
    118  N         21.1620  -28.2420    1.1260 N.3   103  PHE103     -0.1241
    119  CA        21.1610  -26.7880    1.2310 C.3   103  PHE103      0.1605
    120  C         21.1080  -26.1050   -0.1310 C.2   103  PHE103      0.2264
    121  O         21.9140  -26.3970   -1.0120 O.2   103  PHE103     -0.2867
    122  CB        22.3840  -26.2900    1.9930 C.3   103  PHE103      0.0534
    123  CG        22.2720  -26.4550    3.4740 C.ar  103  PHE103     -0.0203
    124  CD1       21.5460  -25.5470    4.2270 C.ar  103  PHE103     -0.0042
    125  CD2       22.9110  -27.5100    4.1180 C.ar  103  PHE103     -0.0042
    126  CE1       21.4470  -25.6870    5.5920 C.ar  103  PHE103     -0.0003
    127  CE2       22.8060  -27.6630    5.4810 C.ar  103  PHE103     -0.0003
    128  CZ        22.0750  -26.7430    6.2220 C.ar  103  PHE103     -0.0000
    129  N         20.4290  -21.0120    2.6460 N.3   108  GLU108     -0.1245
    130  CA        21.6280  -20.3780    3.1770 C.3   108  GLU108      0.1567
    131  C         21.3800  -18.9100    3.5070 C.2   108  GLU108      0.2260
    132  O         21.8450  -18.4240    4.5380 O.2   108  GLU108     -0.2867
    133  CB        22.8180  -20.5000    2.2240 C.3   108  GLU108      0.0388
    134  CG        23.2810  -21.9240    1.9610 C.3   108  GLU108      0.1160
    135  CD        24.0630  -22.5720    3.0990 C.2   108  GLU108      0.3649
    136  OE1       23.9590  -22.1260    4.2680 O.co2 108  GLU108     -0.2457
    137  OE2       24.7900  -23.5510    2.8070 O.co2 108  GLU108     -0.2457
    138  N         19.5640  -19.0210    6.8410 N.3   111  VAL111     -0.1231
    139  CA        20.4680  -19.3880    7.9200 C.3   111  VAL111      0.1692
    140  C         21.3560  -18.2120    8.3410 C.2   111  VAL111      0.2592
    141  O         21.5670  -17.9730    9.5360 O.2   111  VAL111     -0.2718
    142  CB        21.3750  -20.5640    7.5020 C.3   111  VAL111      0.0266
    143  CG1       22.5420  -20.7450    8.4670 C.3   111  VAL111      0.0020
    144  CG2       20.5700  -21.8440    7.4040 C.3   111  VAL111      0.0020
    145  N         21.8960  -17.5010    7.3550 N.am  112  TYR112     -0.1976
    146  CA        22.8340  -16.4030    7.6040 C.3   112  TYR112      0.1639
    147  C         22.1760  -15.0080    7.7170 C.2   112  TYR112      0.2290
    148  O         22.8770  -14.0140    7.8770 O.2   112  TYR112     -0.2864
    149  CB        23.9400  -16.4150    6.5390 C.3   112  TYR112      0.0560
    150  CG        24.9630  -17.5040    6.7590 C.ar  112  TYR112     -0.0198
    151  CD1       24.7840  -18.7830    6.2300 C.ar  112  TYR112     -0.0009
    152  CD2       26.1050  -17.2630    7.5060 C.ar  112  TYR112     -0.0009
    153  CE1       25.7170  -19.7850    6.4430 C.ar  112  TYR112      0.0417
    154  CE2       27.0500  -18.2590    7.7120 C.ar  112  TYR112      0.0417
    155  CZ        26.8470  -19.5180    7.1910 C.ar  112  TYR112      0.1957
    156  OH        27.7890  -20.5080    7.3920 O.3   112  TYR112     -0.2866
    157  N         14.8990  -30.1030    3.1220 N.3   132  ARG132     -0.1245
    158  CA        16.2420  -30.5680    2.7490 C.3   132  ARG132      0.1563
    159  C         16.2430  -32.0590    2.4500 C.2   132  ARG132      0.2260
    160  O         15.8800  -32.8730    3.3000 O.2   132  ARG132     -0.2867
    161  CB        17.2790  -30.2490    3.8420 C.3   132  ARG132      0.0307
    162  CG        17.7070  -28.7830    3.8480 C.3   132  ARG132      0.0489
    163  CD        19.0860  -28.5570    4.4390 C.3   132  ARG132      0.2205
    164  NE        19.0760  -28.3460    5.8830 N.pl3 132  ARG132     -0.0865
    165  CZ        18.6460  -27.2430    6.4910 C.cat 132  ARG132      0.5346
    166  NH1       18.1290  -26.2370    5.7940 N.pl3 132  ARG132      0.1354
    167  NH2       18.7140  -27.1510    7.8190 N.pl3 132  ARG132      0.1354
    168  N         18.6220  -35.2020    1.7810 N.3   134  THR134     -0.1203
    169  CA        20.0010  -35.5360    2.1600 C.3   134  THR134      0.1994
    170  C         20.3490  -36.9870    1.8180 C.2   134  THR134      0.2617
    171  O         19.5770  -37.6830    1.1650 O.2   134  THR134     -0.2717
    172  CB        20.2610  -35.2030    3.6560 C.3   134  THR134      0.1784
    173  OG1       21.6090  -35.5350    4.0120 O.3   134  THR134     -0.2211
    174  CG2       19.2840  -35.9160    4.5740 C.3   134  THR134      0.0376
    175  N         21.5260  -37.4270    2.2510 N.am  135  LYS135     -0.1979
    176  CA        22.0200  -38.7620    1.9420 C.3   135  LYS135      0.1596
    177  C         21.2040  -39.8220    2.6740 C.2   135  LYS135      0.2287
    178  O         20.6140  -39.5640    3.7280 O.2   135  LYS135     -0.2864
    179  CB        23.4880  -38.9160    2.3480 C.3   135  LYS135      0.0298
    180  CG        24.3820  -37.7130    2.1000 C.3   135  LYS135      0.0038
    181  CD        25.7490  -37.8950    2.7470 C.3   135  LYS135      0.0206
    182  CE        26.3820  -36.5530    3.0810 C.3   135  LYS135      0.1093
    183  NZ        27.8090  -36.6880    3.4760 N.3   135  LYS135     -0.1314
    184  N         21.8860  -40.3490    6.3270 N.3   138  GLN138     -0.1245
    185  CA        21.3110  -39.3040    7.1590 C.3   138  GLN138      0.1566
    186  C         19.8070  -39.5040    7.3130 C.2   138  GLN138      0.2260
    187  O         19.2740  -39.3550    8.4030 O.2   138  GLN138     -0.2867
    188  CB        21.6090  -37.9180    6.5750 C.3   138  GLN138      0.0367
    189  CG        23.0870  -37.6050    6.4270 C.3   138  GLN138      0.0905
    190  CD        23.8160  -37.4760    7.7550 C.2   138  GLN138      0.2608
    191  OE1       23.2680  -37.0370    8.7580 O.2   138  GLN138     -0.2717
    192  NE2       25.0760  -37.8520    7.7560 N.am  138  GLN138     -0.0878
    193  N         17.5920  -37.5400   10.2350 N.3   143  LYS143     -0.1231
    194  CA        18.1320  -36.2020   10.0230 C.3   143  LYS143      0.1693
    195  C         17.6610  -35.6940    8.6650 C.2   143  LYS143      0.2592
    196  O         17.0940  -36.4500    7.8800 O.2   143  LYS143     -0.2718
    197  CB        19.6590  -36.2080   10.1210 C.3   143  LYS143      0.0285
    198  CG        20.1770  -36.1890   11.5580 C.3   143  LYS143      0.0035
    199  CD        21.6720  -36.4330   11.6030 C.3   143  LYS143      0.0206
    200  CE        22.4830  -35.1730   11.3330 C.3   143  LYS143      0.1093
    201  NZ        22.9600  -34.5550   12.6000 N.3   143  LYS143     -0.1314
    202  N         17.9030  -34.4160    8.3920 N.am  144  GLY144     -0.1957
    203  CA        17.4030  -33.7730    7.1690 C.3   144  GLY144      0.1869
    204  C         15.9500  -33.3190    7.3010 C.2   144  GLY144      0.2309
    205  O         15.3010  -33.5270    8.3400 O.2   144  GLY144     -0.2863
    206  N         14.6890  -30.2300    7.2030 N.3   146  ALA146     -0.1245
    207  CA        14.4600  -28.8870    7.7100 C.3   146  ALA146      0.1562
    208  C         14.1230  -27.9060    6.5740 C.2   146  ALA146      0.2260
    209  O         14.4740  -28.1420    5.4230 O.2   146  ALA146     -0.2867
    210  CB        15.6770  -28.4000    8.4850 C.3   146  ALA146      0.0290
    211  N         15.3770  -22.8920   10.0430 N.3   151  ASP151     -0.1239
    212  CA        16.7270  -22.3130   10.1610 C.3   151  ASP151      0.1674
    213  C         16.7130  -20.8970   10.7170 C.2   151  ASP151      0.2266
    214  O         17.4640  -20.5760   11.6410 O.2   151  ASP151     -0.2867
    215  CB        17.4290  -22.2790    8.8000 C.3   151  ASP151      0.1410
    216  CG        17.8270  -23.6550    8.3030 C.2   151  ASP151      0.3668
    217  OD1       18.0900  -24.5590    9.1420 O.co2 151  ASP151     -0.2456
    218  OD2       17.8810  -23.8340    7.0570 O.co2 151  ASP151     -0.2456
    219  N         15.7770  -20.9590   14.2970 N.3   154  GLU154     -0.1245
    220  CA        16.8970  -21.4540   15.0940 C.3   154  GLU154      0.1567
    221  C         17.9630  -20.3910   15.3280 C.2   154  GLU154      0.2260
    222  O         18.4820  -20.2590   16.4280 O.2   154  GLU154     -0.2867
    223  CB        17.5310  -22.6720   14.4180 C.3   154  GLU154      0.0388
    224  CG        18.4950  -23.4620   15.3000 C.3   154  GLU154      0.1160
    225  CD        19.3530  -24.4470   14.5170 C.2   154  GLU154      0.3649
    226  OE1       18.8550  -25.0370   13.5230 O.co2 154  GLU154     -0.2457
    227  OE2       20.5350  -24.6300   14.8950 O.co2 154  GLU154     -0.2457
    228  N         10.0350  -32.5190   14.1520 N.3   180  ARG180     -0.1245
    229  CA        10.1110  -31.1910   14.7610 C.3   180  ARG180      0.1563
    230  C          9.5350  -30.1590   13.8250 C.2   180  ARG180      0.2260
    231  O          9.5590  -30.3550   12.6070 O.2   180  ARG180     -0.2867
    232  CB        11.5650  -30.8160   15.0420 C.3   180  ARG180      0.0307
    233  CG        12.2380  -31.6960   16.0770 C.3   180  ARG180      0.0489
    234  CD        13.7140  -31.3880   16.2010 C.3   180  ARG180      0.2205
    235  NE        14.4560  -31.8380   15.0150 N.pl3 180  ARG180     -0.0865
    236  CZ        15.7020  -32.3050   15.0140 C.cat 180  ARG180      0.5346
    237  NH1       16.4020  -32.4130   16.1420 N.pl3 180  ARG180      0.1354
    238  NH2       16.2500  -32.6810   13.8670 N.pl3 180  ARG180      0.1354
    239  N         12.6570  -25.4520   17.0580 N.3   185  TYR185     -0.1241
    240  CA        13.9070  -24.7740   16.7180 C.3   185  TYR185      0.1605
    241  C         14.0030  -23.4050   17.4010 C.2   185  TYR185      0.2264
    242  O         15.0580  -23.0340   17.9020 O.2   185  TYR185     -0.2867
    243  CB        14.0450  -24.6090   15.2010 C.3   185  TYR185      0.0534
    244  CG        14.4230  -25.8700   14.4340 C.ar  185  TYR185     -0.0201
    245  CD1       13.4690  -26.8210   14.0840 C.ar  185  TYR185     -0.0009
    246  CD2       15.7410  -26.1040   14.0540 C.ar  185  TYR185     -0.0009
    247  CE1       13.8230  -27.9770   13.3920 C.ar  185  TYR185      0.0417
    248  CE2       16.1020  -27.2490   13.3510 C.ar  185  TYR185      0.0417
    249  CZ        15.1440  -28.1810   13.0230 C.ar  185  TYR185      0.1957
    250  OH        15.5070  -29.3210   12.3370 O.3   185  TYR185     -0.2866
@<TRIPOS>BOND
     1     1     2    1
     2     6     5    1
     3     2     5    1
     4     2     3    1
     5    17    18    1
     6     5     7    1
     7    69    70    1
     8    43    42    2
     9    42    41    1
    10     3     4    2
    11    18    19    1
    12    18    21    1
    13    70    71    1
    14    70    73    1
    15    19    20    2
    16    54    55    1
    17    72    71    2
    18    41    40    1
    19    41    44    1
    20    21    22    1
    21    56    55    1
    22    56    57    2
    23    58    59    1
    24    58    55    1
    25    73    74    1
    26     8     9    1
    27    22    23    1
    28    86    87    1
    29    44    45    1
    30    74    75    1
    31   102   103    1
    32   103   104    1
    33   103   106    1
    34    75    76    1
    35    90    91    1
    36    90    87    1
    37    90    92    1
    38    91    93    1
    39    60    61    1
    40     9    10    1
    41     9    12    1
    42    23    25   ar
    43    23    24   ar
    44    88    87    1
    45    88    89    2
    46   104   105    2
    47    50    47   ar
    48    50    52   ar
    49    28    29    2
    50    28    27    1
    51    10    11    2
    52    80    81    2
    53    80    79    1
    54    45    47   ar
    55    45    46   ar
    56   106   107    1
    57   121   120    2
    58    16    14   am
    59    12    13    1
    60    13    14    1
    61    47    49   ar
    62    52    53   ar
    63    78    79    1
    64    76    77    1
    65    61    64    1
    66    61    62    1
    67    26    27    1
    68    14    15    2
    69    46    48   ar
    70   120   119    1
    71    79    82    1
    72    84    83    2
    73    64    65    1
    74    27    30    1
    75    62    63    2
    76   107   108   ar
    77   107   109   ar
    78    49    48   ar
    79    49    51   ar
    80    53    51   ar
    81    83    82    1
    82    83    85   am
    83    67    66    2
    84    30    31    1
    85    94    95    1
    86   118   119    1
    87   171   170    2
    88   119   122    1
    89   110   111    1
    90    65    66    1
    91    66    68   am
    92   168   169    1
    93   170   169    1
    94   170   175   am
    95   176   175    1
    96   176   179    1
    97   176   177    1
    98   134   133    1
    99   134   135    1
   100   122   123    1
   101   180   179    1
   102   180   181    1
   103   169   172    1
   104   133   130    1
   105    31    32   ar
   106    31    33   ar
   107    95    96    1
   108    95    98    1
   109   159   158    1
   110   159   160    2
   111   112   111    1
   112   112   113    2
   113    96    97    2
   114   101    99    1
   115    98    99    1
   116    98   100    1
   117   111   114    1
   118   129   130    1
   119   177   178    2
   120   181   182    1
   121   158   157    1
   122   158   161    1
   123   137   135   ar
   124    32    34   ar
   125    36    33   ar
   126    36    38   ar
   127   182   183    1
   128   135   136   ar
   129    33    35   ar
   130   130   131    1
   131   123   125   ar
   132   123   124   ar
   133   131   132    2
   134   172   173    1
   135   172   174    1
   136   114   115    1
   137   161   162    1
   138   162   163    1
   139   117   115   am
   140    38    39   ar
   141   125   127   ar
   142    34    35   ar
   143   115   116    2
   144   124   126   ar
   145    35    37   ar
   146   163   164    1
   147    39    37   ar
   148   209   208    2
   149   127   128   ar
   150   126   128   ar
   151   166   165    1
   152   164   165    2
   153   151   153   ar
   154   151   150   ar
   155   184   185    1
   156   189   188    1
   157   189   190    1
   158   153   155   ar
   159   165   167    1
   160   149   150    1
   161   149   146    1
   162   208   207    1
   163   188   185    1
   164   150   152   ar
   165   138   139    1
   166   218   216   ar
   167   185   186    1
   168   203   204    1
   169   203   202    1
   170   155   156    1
   171   155   154   ar
   172   206   207    1
   173   204   205    2
   174   186   187    2
   175   145   146    1
   176   145   140   am
   177   144   142    1
   178   142   139    1
   179   142   143    1
   180   152   154   ar
   181   146   147    1
   182   207   210    1
   183   147   148    2
   184   190   192   am
   185   190   191    2
   186   196   195    2
   187   139   140    1
   188   216   215    1
   189   216   217   ar
   190   140   141    2
   191   202   195   am
   192   195   194    1
   193   215   212    1
   194   194   197    1
   195   194   193    1
   196   211   212    1
   197   197   198    1
   198   212   213    1
   199   213   214    2
   200   200   199    1
   201   200   201    1
   202   198   199    1
   203   250   249    1
   204   231   230    2
   205   249   248   ar
   206   249   247   ar
   207   248   246   ar
   208   247   245   ar
   209   226   225   ar
   210   230   229    1
   211   238   236    1
   212   246   244   ar
   213   245   244   ar
   214   228   229    1
   215   219   220    1
   216   223   220    1
   217   223   224    1
   218   244   243    1
   219   225   227   ar
   220   225   224    1
   221   229   232    1
   222   236   235    2
   223   236   237    1
   224   235   234    1
   225   232   233    1
   226   220   221    1
   227   243   240    1
   228   221   222    2
   229   233   234    1
   230   240   239    1
   231   240   241    1
   232   241   242    2
