@<TRIPOS>MOLECULE
tmp/4o1pC02.pdb
 108 107 0 0 0
SMALL
GASTEIGER

@<TRIPOS>ATOM
      1  N          8.4560  -32.9600   48.7320 N.3   283  ALA283     -0.1245
      2  CA         9.7770  -33.3810   49.1840 C.3   283  ALA283      0.1562
      3  C         10.8870  -32.7040   48.3850 C.2   283  ALA283      0.2260
      4  O         11.9200  -32.3370   48.9420 O.2   283  ALA283     -0.2867
      5  CB         9.9120  -34.8920   49.1010 C.3   283  ALA283      0.0290
      6  N         11.0150  -28.9460   49.3340 N.3   286  ARG286     -0.1231
      7  CA        11.6220  -28.9140   50.6660 C.3   286  ARG286      0.1694
      8  C         13.1390  -29.0530   50.5880 C.2   286  ARG286      0.2591
      9  O         13.8870  -28.2250   51.1310 O.2   286  ARG286     -0.2718
     10  CB        11.0500  -30.0450   51.5300 C.3   286  ARG286      0.0321
     11  CG        11.5200  -30.0060   52.9820 C.3   286  ARG286      0.0489
     12  CD        10.8990  -31.1200   53.8110 C.3   286  ARG286      0.2205
     13  NE        11.3320  -32.4400   53.3620 N.pl3 286  ARG286     -0.0865
     14  CZ        10.8640  -33.5990   53.8270 C.cat 286  ARG286      0.5346
     15  NH1        9.9290  -33.6230   54.7680 N.pl3 286  ARG286      0.1354
     16  NH2       11.3410  -34.7460   53.3500 N.pl3 286  ARG286      0.1354
     17  N         13.5680  -30.1020   49.8900 N.am  287  ARG287     -0.1980
     18  CA        14.9820  -30.3760   49.6060 C.3   287  ARG287      0.1597
     19  C         15.7240  -29.1750   49.0400 C.2   287  ARG287      0.2287
     20  O         16.8770  -28.9170   49.3950 O.2   287  ARG287     -0.2864
     21  CB        15.0510  -31.5190   48.6010 C.3   287  ARG287      0.0334
     22  CG        16.4310  -32.0700   48.3380 C.3   287  ARG287      0.0492
     23  CD        16.3170  -33.3030   47.4570 C.3   287  ARG287      0.2205
     24  NE        16.1350  -32.9430   46.0470 N.pl3 287  ARG287     -0.0865
     25  CZ        15.4870  -33.6740   45.1410 C.cat 287  ARG287      0.5346
     26  NH1       14.9070  -34.8250   45.4820 N.pl3 287  ARG287      0.1354
     27  NH2       15.4050  -33.2370   43.8830 N.pl3 287  ARG287      0.1354
     28  N         14.9150  -26.1290   49.6820 N.3   289  TYR289     -0.1241
     29  CA        14.6630  -25.0240   50.6120 C.3   289  TYR289      0.1605
     30  C         13.8120  -23.9160   49.9700 C.2   289  TYR289      0.2264
     31  O         14.0490  -22.7330   50.1960 O.2   289  TYR289     -0.2867
     32  CB        15.9700  -24.4530   51.1610 C.3   289  TYR289      0.0534
     33  CG        16.7650  -25.4360   51.9850 C.ar  289  TYR289     -0.0201
     34  CD1       17.6380  -26.3370   51.3790 C.ar  289  TYR289     -0.0009
     35  CD2       16.6440  -25.4650   53.3750 C.ar  289  TYR289     -0.0009
     36  CE1       18.3590  -27.2450   52.1400 C.ar  289  TYR289      0.0417
     37  CE2       17.3600  -26.3660   54.1430 C.ar  289  TYR289      0.0417
     38  CZ        18.2190  -27.2490   53.5200 C.ar  289  TYR289      0.1957
     39  OH        18.9340  -28.1370   54.2740 O.3   289  TYR289     -0.2866
     40  N         18.7490  -39.8920   47.1170 N.3   321  TRP321     -0.1227
     41  CA        18.7610  -38.9290   46.0310 C.3   321  TRP321      0.1737
     42  C         20.1070  -38.2210   45.9900 C.2   321  TRP321      0.2595
     43  O         20.5950  -37.7790   47.0160 O.2   321  TRP321     -0.2718
     44  CB        17.6560  -37.8590   46.1760 C.3   321  TRP321      0.0564
     45  CG        17.7070  -36.8950   45.0460 C.ar  321  TRP321      0.0003
     46  CD1       17.1480  -37.0590   43.8030 C.ar  321  TRP321      0.0946
     47  CD2       18.4120  -35.6620   45.0080 C.ar  321  TRP321      0.0152
     48  NE1       17.4550  -35.9860   43.0020 N.ar  321  TRP321     -0.2442
     49  CE2       18.2300  -35.1160   43.7160 C.ar  321  TRP321      0.0810
     50  CE3       19.1820  -34.9540   45.9380 C.ar  321  TRP321      0.0012
     51  CZ2       18.7620  -33.8900   43.3430 C.ar  321  TRP321      0.0191
     52  CZ3       19.7130  -33.7320   45.5640 C.ar  321  TRP321      0.0001
     53  CH2       19.5080  -33.2170   44.2740 C.ar  321  TRP321      0.0015
     54  N         20.6680  -38.0680   44.7930 N.am  322  ARG322     -0.1966
     55  CA        21.8780  -37.2780   44.6020 C.3   322  ARG322      0.1714
     56  C         21.7760  -36.5080   43.3030 C.2   322  ARG322      0.2458
     57  O         21.1750  -36.9910   42.3520 O.2   322  ARG322     -0.2730
     58  CB        23.1160  -38.2000   44.5530 C.3   322  ARG322      0.0347
     59  CG        23.4700  -38.8980   45.8690 C.3   322  ARG322      0.0492
     60  CD        23.8750  -37.8970   46.9370 C.3   322  ARG322      0.2205
     61  NE        24.9650  -37.0560   46.4600 N.pl3 322  ARG322     -0.0865
     62  CZ        25.1890  -35.7990   46.8430 C.cat 322  ARG322      0.5346
     63  NH1       24.3960  -35.1880   47.7290 N.pl3 322  ARG322      0.1354
     64  NH2       26.2220  -35.1390   46.3330 N.pl3 322  ARG322      0.1354
     65  N         22.3650  -35.2980   43.2440 N.am  323  PRO323     -0.2727
     66  CA        22.5060  -34.6830   41.9260 C.3   323  PRO323      0.1402
     67  C         23.5570  -35.4480   41.1330 C.2   323  PRO323      0.2269
     68  O         24.4180  -36.1010   41.7330 O.2   323  PRO323     -0.2865
     69  CB        22.9920  -33.2790   42.2470 C.3   323  PRO323      0.0296
     70  CG        23.7320  -33.4310   43.5310 C.3   323  PRO323      0.0237
     71  CD        23.0270  -34.5040   44.2930 C.3   323  PRO323      0.0939
     72  N         28.2100  -39.8080   46.4020 N.3   331  PHE331     -0.1227
     73  CA        28.0550  -39.0550   47.6380 C.3   331  PHE331      0.1736
     74  C         29.2940  -39.2300   48.4910 C.2   331  PHE331      0.2595
     75  O         29.6510  -40.3490   48.8730 O.2   331  PHE331     -0.2718
     76  CB        26.8220  -39.5500   48.4040 C.3   331  PHE331      0.0547
     77  CG        26.5220  -38.7780   49.6720 C.ar  331  PHE331     -0.0202
     78  CD1       26.7630  -37.4100   49.7690 C.ar  331  PHE331     -0.0042
     79  CD2       25.9690  -39.4250   50.7660 C.ar  331  PHE331     -0.0042
     80  CE1       26.4850  -36.7150   50.9420 C.ar  331  PHE331     -0.0003
     81  CE2       25.6990  -38.7360   51.9440 C.ar  331  PHE331     -0.0003
     82  CZ        25.9520  -37.3800   52.0310 C.ar  331  PHE331     -0.0000
     83  N         29.9460  -38.1200   48.8040 N.am  332  ILE332     -0.1980
     84  CA        31.1350  -38.1340   49.6490 C.3   332  ILE332      0.1595
     85  C         30.7680  -38.2540   51.1240 C.2   332  ILE332      0.2287
     86  O         30.5420  -37.2590   51.8000 O.2   332  ILE332     -0.2864
     87  CB        31.9800  -36.8640   49.4530 C.3   332  ILE332      0.0276
     88  CG1       32.2760  -36.6520   47.9680 C.3   332  ILE332      0.0022
     89  CG2       33.2660  -36.9640   50.2710 C.3   332  ILE332      0.0022
     90  CD1       32.8070  -37.8800   47.2560 C.3   332  ILE332      0.0001
     91  N         33.4430  -31.9940   37.7400 N.3   393  ASP393     -0.1225
     92  CA        32.5500  -30.9420   38.2150 C.3   393  ASP393      0.1805
     93  C         33.3900  -29.6600   38.1070 C.2   393  ASP393      0.2598
     94  O         34.3900  -29.6410   37.3880 O.2   393  ASP393     -0.2718
     95  CB        32.0210  -31.2420   39.6410 C.3   393  ASP393      0.1424
     96  CG        33.1320  -31.3300   40.6930 C.2   393  ASP393      0.3668
     97  OD1       34.2660  -30.9110   40.3900 O.co2 393  ASP393     -0.2456
     98  OD2       32.8720  -31.8030   41.8290 O.co2 393  ASP393     -0.2456
     99  N         33.0370  -28.5960   38.8110 N.am  394  GLY394     -0.1942
    100  CA        33.8570  -27.3780   38.7470 C.3   394  GLY394      0.2014
    101  C         35.3230  -27.5460   39.1540 C.2   394  GLY394      0.2639
    102  O         36.2010  -26.8510   38.6470 O.2   394  GLY394     -0.2714
    103  N         35.5830  -28.4830   40.0590 N.am  395  SER395     -0.1949
    104  CA        36.8530  -28.5480   40.7960 C.3   395  SER395      0.1924
    105  C         37.5520  -29.9180   40.7530 C.2   395  SER395      0.2314
    106  O         38.7820  -29.9800   40.7220 O.2   395  SER395     -0.2863
    107  CB        36.5980  -28.1850   42.2640 C.3   395  SER395      0.2116
    108  OG        35.7450  -27.0550   42.3870 O.3   395  SER395     -0.2180
@<TRIPOS>BOND
     1    94    93    2
     2    91    92    1
     3    93    92    1
     4    93    99   am
     5    92    95    1
     6   102   101    2
     7   100    99    1
     8   100   101    1
     9   101   103   am
    10    95    96    1
    11   103   104    1
    12    97    96   ar
    13    96    98   ar
    14   106   105    2
    15   105   104    1
    16   104   107    1
    17    67    68    2
    18    67    66    1
    19    66    69    1
    20    66    65    1
    21    69    70    1
    22   107   108    1
    23    57    56    2
    24    48    49   ar
    25    48    46   ar
    26    65    56   am
    27    65    71    1
    28    56    55    1
    29    51    49   ar
    30    51    53   ar
    31    70    71    1
    32    49    47   ar
    33    46    45   ar
    34    27    25    1
    35    53    52   ar
    36    58    55    1
    37    58    59    1
    38    55    54    1
    39    54    42   am
    40    47    45   ar
    41    47    50   ar
    42    45    44    1
    43    25    26    1
    44    25    24    2
    45    52    50   ar
    46    59    60    1
    47    42    41    1
    48    42    43    2
    49    41    44    1
    50    41    40    1
    51    24    23    1
    52    64    62    1
    53    72    73    1
    54    61    62    2
    55    61    60    1
    56    62    63    1
    57    90    88    1
    58    23    22    1
    59    73    76    1
    60    73    74    1
    61    88    87    1
    62    22    21    1
    63     3     4    2
    64     3     2    1
    65    76    77    1
    66    74    83   am
    67    74    75    2
    68    21    18    1
    69     1     2    1
    70    83    84    1
    71    19    20    2
    72    19    18    1
    73     5     2    1
    74     6     7    1
    75    87    84    1
    76    87    89    1
    77    18    17    1
    78    84    85    1
    79    77    78   ar
    80    77    79   ar
    81    28    29    1
    82    78    80   ar
    83    17     8   am
    84    30    31    2
    85    30    29    1
    86     8     7    1
    87     8     9    2
    88    29    32    1
    89     7    10    1
    90    79    81   ar
    91    80    82   ar
    92    85    86    2
    93    32    33    1
    94    34    33   ar
    95    34    36   ar
    96    10    11    1
    97    81    82   ar
    98    33    35   ar
    99    36    38   ar
   100    11    12    1
   101    16    14    1
   102    13    12    1
   103    13    14    2
   104    35    37   ar
   105    38    37   ar
   106    38    39    1
   107    14    15    1
