@<TRIPOS>MOLECULE
tmp/4o1sA00.pdb
 101 97 0 0 0
SMALL
GASTEIGER

@<TRIPOS>ATOM
      1  N         17.2130   54.4960   29.9230 N.3     3  GLY3       -0.1225
      2  CA        18.2360   54.5190   30.9460 C.3     3  GLY3        0.1811
      3  C         19.6210   54.6270   30.3280 C.2     3  GLY3        0.2280
      4  O         20.6120   54.7030   31.0390 O.2     3  GLY3       -0.2866
      5  N         22.6400   56.4790   28.8250 N.3     5  ALA5       -0.1245
      6  CA        23.1840   57.8280   28.9090 C.3     5  ALA5        0.1562
      7  C         24.7350   57.8270   28.9720 C.2     5  ALA5        0.2260
      8  O         25.3660   56.7720   29.1190 O.2     5  ALA5       -0.2867
      9  CB        22.5700   58.5730   30.1140 C.3     5  ALA5        0.0290
     10  N         11.5020   64.5180   38.6480 N.3    41  SER41      -0.1202
     11  CA        12.0200   63.3270   39.3530 C.3    41  SER41       0.2020
     12  C         13.4880   62.9960   39.0230 C.2    41  SER41       0.2619
     13  O         13.8020   61.8770   38.5830 O.2    41  SER41      -0.2717
     14  CB        11.1110   62.0990   39.1180 C.3    41  SER41       0.2103
     15  OG        11.4570   61.4160   37.9160 O.3    41  SER41      -0.2182
     16  N         14.3740   63.9710   39.2220 N.am   42  GLY42      -0.1942
     17  CA        15.7780   63.8150   38.8630 C.3    42  GLY42       0.2014
     18  C         16.1120   63.7710   37.3740 C.2    42  GLY42       0.2638
     19  O         17.2760   63.8130   36.9980 O.2    42  GLY42      -0.2714
     20  N         15.1020   63.6820   36.5210 N.am   43  GLU43      -0.1977
     21  CA        15.3290   63.7670   35.0950 C.3    43  GLU43       0.1602
     22  C         14.9260   65.1220   34.5570 C.2    43  GLU43       0.2287
     23  O         14.0640   65.8010   35.1130 O.2    43  GLU43      -0.2864
     24  CB        14.5390   62.7080   34.3720 C.3    43  GLU43       0.0415
     25  CG        14.8860   61.3290   34.7880 C.3    43  GLU43       0.1163
     26  CD        14.0170   60.3170   34.0930 C.2    43  GLU43       0.3649
     27  OE1       12.8030   60.5770   33.9640 O.co2  43  GLU43      -0.2457
     28  OE2       14.5450   59.2720   33.6600 O.co2  43  GLU43      -0.2457
     29  N         18.7820   65.3730   27.1500 N.3    71  TYR71      -0.1241
     30  CA        18.3990   64.8060   28.4260 C.3    71  TYR71       0.1605
     31  C         19.5490   64.9160   29.4230 C.2    71  TYR71       0.2264
     32  O         20.7370   64.8010   29.0700 O.2    71  TYR71      -0.2867
     33  CB        17.9700   63.3420   28.2350 C.3    71  TYR71       0.0534
     34  CG        17.9410   62.5010   29.5070 C.ar   71  TYR71      -0.0201
     35  CD1       16.8600   62.5590   30.3840 C.ar   71  TYR71      -0.0009
     36  CD2       18.9870   61.6320   29.8220 C.ar   71  TYR71      -0.0009
     37  CE1       16.8290   61.7830   31.5430 C.ar   71  TYR71       0.0417
     38  CE2       18.9620   60.8550   30.9810 C.ar   71  TYR71       0.0417
     39  CZ        17.8840   60.9380   31.8290 C.ar   71  TYR71       0.1957
     40  OH        17.8550   60.1690   32.9660 O.3    71  TYR71      -0.2866
     41  N         20.5370   61.2010   36.3110 N.3    74  LYS74      -0.1231
     42  CA        21.4770   60.7290   37.3280 C.3    74  LYS74       0.1693
     43  C         21.7430   59.2510   37.1200 C.2    74  LYS74       0.2593
     44  O         20.8380   58.4810   36.8020 O.2    74  LYS74      -0.2718
     45  CB        20.9190   60.9430   38.7450 C.3    74  LYS74       0.0285
     46  CG        20.9700   62.4070   39.2730 C.3    74  LYS74       0.0035
     47  CD        22.3950   62.9240   39.3570 C.3    74  LYS74       0.0206
     48  CE        22.6230   63.7520   40.5980 C.3    74  LYS74       0.1093
     49  NZ        24.0270   64.2670   40.5740 N.3    74  LYS74      -0.1314
     50  N         22.9910   58.8450   37.2910 N.am   75  SER75      -0.1938
     51  CA        23.2670   57.4240   37.4250 C.3    75  SER75       0.2055
     52  C         24.1970   57.2110   38.6200 C.2    75  SER75       0.2644
     53  O         24.9880   58.0890   38.9820 O.2    75  SER75      -0.2714
     54  CB        23.8650   56.8410   36.1520 C.3    75  SER75       0.2130
     55  OG        24.3760   55.5310   36.3770 O.3    75  SER75      -0.2179
     56  N         24.0580   56.0490   39.2400 N.am   76  SER76      -0.1935
     57  CA        24.8940   55.6290   40.3390 C.3    76  SER76       0.2055
     58  C         26.1180   54.9560   39.7950 C.2    76  SER76       0.2643
     59  O         27.0830   54.7110   40.5300 O.2    76  SER76      -0.2714
     60  CB        24.1390   54.5970   41.1760 C.3    76  SER76       0.2130
     61  OG        23.1950   55.2360   42.0010 O.3    76  SER76      -0.2179
     62  N         26.0550   54.6110   38.5150 N.am   77  TYR77      -0.1973
     63  CA        27.0830   53.7830   37.9260 C.3    77  TYR77       0.1639
     64  C         27.5160   54.3250   36.5900 C.2    77  TYR77       0.2290
     65  O         26.7000   54.8040   35.8060 O.2    77  TYR77      -0.2864
     66  CB        26.5850   52.3490   37.7370 C.3    77  TYR77       0.0560
     67  CG        26.1960   51.7060   39.0150 C.ar   77  TYR77      -0.0198
     68  CD1       27.1530   51.1870   39.8620 C.ar   77  TYR77      -0.0009
     69  CD2       24.8700   51.6490   39.4020 C.ar   77  TYR77      -0.0009
     70  CE1       26.8030   50.6060   41.0640 C.ar   77  TYR77       0.0417
     71  CE2       24.5050   51.0740   40.6050 C.ar   77  TYR77       0.0417
     72  CZ        25.4730   50.5500   41.4330 C.ar   77  TYR77       0.1957
     73  OH        25.1160   49.9740   42.6390 O.3    77  TYR77      -0.2866
     74  N         26.5520   54.7980   30.8970 N.3    92  THR92      -0.1204
     75  CA        25.6390   54.1110   31.7630 C.3    92  THR92       0.1979
     76  C         25.7260   52.6060   31.4440 C.2    92  THR92       0.2460
     77  O         25.9710   52.2350   30.3010 O.2    92  THR92      -0.2732
     78  CB        24.2590   54.7000   31.4200 C.3    92  THR92       0.1783
     79  OG1       23.8160   55.5540   32.4880 O.3    92  THR92      -0.2211
     80  CG2       23.2750   53.6420   31.1010 C.3    92  THR92       0.0376
     81  N         25.5560   51.7310   32.4550 N.am   93  PRO93      -0.2717
     82  CA        25.6570   50.2770   32.2350 C.3    93  PRO93       0.1535
     83  C         24.7290   49.7240   31.1650 C.2    93  PRO93       0.2598
     84  O         25.1460   48.7690   30.4920 O.2    93  PRO93      -0.2715
     85  CB        25.2920   49.6850   33.5900 C.3    93  PRO93       0.0310
     86  CG        25.7120   50.6990   34.5500 C.3    93  PRO93       0.0237
     87  CD        25.4970   52.0560   33.8880 C.3    93  PRO93       0.0939
     88  N         23.5240   50.2940   31.0100 N.am   94  VAL94      -0.1978
     89  CA        22.5620   49.8050   30.0080 C.3    94  VAL94       0.1596
     90  C         22.7900   50.3560   28.5920 C.2    94  VAL94       0.2287
     91  O         22.1860   49.8660   27.6350 O.2    94  VAL94      -0.2864
     92  CB        21.0720   50.0100   30.4190 C.3    94  VAL94       0.0276
     93  CG1       20.7230   49.1730   31.6130 C.3    94  VAL94       0.0022
     94  CG2       20.7660   51.4560   30.7060 C.3    94  VAL94       0.0022
     95  N         24.3350   62.3320   34.1920 N.3   146  VAL146     -0.1245
     96  CA        24.4690   61.7060   32.8860 C.3   146  VAL146      0.1561
     97  C         23.5710   62.4070   31.8720 C.2   146  VAL146      0.2260
     98  O         22.6070   63.0810   32.2430 O.2   146  VAL146     -0.2867
     99  CB        24.2510   60.1580   32.9190 C.3   146  VAL146      0.0252
    100  CG1       25.2850   59.5060   33.7850 C.3   146  VAL146      0.0019
    101  CG2       22.8740   59.8060   33.4260 C.3   146  VAL146      0.0019
@<TRIPOS>BOND
     1    29    30    1
     2    91    90    2
     3    33    30    1
     4    33    34    1
     5    30    31    1
     6    90    89    1
     7     5     6    1
     8     6     7    1
     9     6     9    1
    10     7     8    2
    11    32    31    2
    12    34    36   ar
    13    34    35   ar
    14    36    38   ar
    15     1     2    1
    16    89    92    1
    17    89    88    1
    18    77    76    2
    19     3     2    1
    20     3     4    2
    21    35    37   ar
    22    92    94    1
    23    92    93    1
    24    84    83    2
    25    74    75    1
    26    38    39   ar
    27    88    83   am
    28    80    78    1
    29    83    82    1
    30    78    75    1
    31    78    79    1
    32    76    75    1
    33    76    81   am
    34    37    39   ar
    35    39    40    1
    36    97    98    2
    37    97    96    1
    38    82    81    1
    39    82    85    1
    40    81    87    1
    41    96    99    1
    42    96    95    1
    43    99   101    1
    44    99   100    1
    45    85    86    1
    46    28    26   ar
    47    87    86    1
    48    27    26   ar
    49    26    25    1
    50    24    25    1
    51    24    21    1
    52    22    21    1
    53    22    23    2
    54    21    20    1
    55    65    64    2
    56    54    55    1
    57    54    51    1
    58    41    42    1
    59    20    18   am
    60    64    63    1
    61    44    43    2
    62    19    18    2
    63    43    50   am
    64    43    42    1
    65    50    51    1
    66    42    45    1
    67    18    17    1
    68    51    52    1
    69    66    63    1
    70    66    67    1
    71    15    14    1
    72    63    62    1
    73    62    58   am
    74    13    12    2
    75    52    53    2
    76    52    56   am
    77    10    11    1
    78    45    46    1
    79    17    16    1
    80    67    69   ar
    81    67    68   ar
    82    12    16   am
    83    12    11    1
    84    14    11    1
    85    56    57    1
    86    46    47    1
    87    47    48    1
    88    69    71   ar
    89    58    57    1
    90    58    59    2
    91    68    70   ar
    92    57    60    1
    93    49    48    1
    94    71    72   ar
    95    70    72   ar
    96    60    61    1
    97    72    73    1
