@<TRIPOS>MOLECULE
tmp/4o1vA00.pdb
 153 151 0 0 0
SMALL
GASTEIGER

@<TRIPOS>ATOM
      1  N         15.5000    3.0920    5.8260 N.3    45  ARG45      -0.1245
      2  CA        16.7200    2.6890    6.5030 C.3    45  ARG45       0.1563
      3  C         17.3320    3.9070    7.1500 C.2    45  ARG45       0.2260
      4  O         17.5060    4.9380    6.5040 O.2    45  ARG45      -0.2867
      5  CB        17.7220    2.1140    5.5110 C.3    45  ARG45       0.0307
      6  CG        17.3520    0.7580    4.9600 C.3    45  ARG45       0.0489
      7  CD        18.1880    0.4970    3.7380 C.3    45  ARG45       0.2205
      8  NE        18.4430   -0.9180    3.5580 N.pl3  45  ARG45      -0.0865
      9  CZ        19.2530   -1.4100    2.6300 C.cat  45  ARG45       0.5346
     10  NH1       19.8870   -0.5850    1.8000 N.pl3  45  ARG45       0.1354
     11  NH2       19.4260   -2.7250    2.5360 N.pl3  45  ARG45       0.1354
     12  N         20.6580    5.2270    9.6270 N.3    47  ASN47      -0.1240
     13  CA        21.8980    5.0790   10.3830 C.3    47  ASN47       0.1653
     14  C         21.8990    6.1240   11.5020 C.2    47  ASN47       0.2266
     15  O         22.1740    7.2980   11.2440 O.2    47  ASN47      -0.2867
     16  CB        23.1210    5.2790    9.4830 C.3    47  ASN47       0.1155
     17  CG        23.1830    4.2910    8.3370 C.2    47  ASN47       0.2627
     18  OD1       22.8500    4.6220    7.1970 O.2    47  ASN47      -0.2716
     19  ND2       23.6220    3.0680    8.6300 N.am   47  ASN47      -0.0877
     20  N         26.3760    6.9780    8.2480 N.3    51  LEU51      -0.1245
     21  CA        26.7630    5.9070    7.3330 C.3    51  LEU51       0.1561
     22  C         28.2610    5.6190    7.4040 C.2    51  LEU51       0.2260
     23  O         28.6660    4.4600    7.5120 O.2    51  LEU51      -0.2867
     24  CB        26.3530    6.2490    5.8930 C.3    51  LEU51       0.0270
     25  CG        26.5470    5.1730    4.8170 C.3    51  LEU51       0.0019
     26  CD1       25.5300    4.0540    4.9850 C.3    51  LEU51       0.0001
     27  CD2       26.4510    5.7680    3.4200 C.3    51  LEU51       0.0001
     28  N         17.4510    6.9470    4.4530 N.3    62  TYR62      -0.1241
     29  CA        17.2830    6.4590    3.0690 C.3    62  TYR62       0.1605
     30  C         15.9360    5.7840    2.8260 C.2    62  TYR62       0.2264
     31  O         15.3550    5.1730    3.7330 O.2    62  TYR62      -0.2867
     32  CB        18.3910    5.4580    2.6930 C.3    62  TYR62       0.0534
     33  CG        19.7870    6.0060    2.8590 C.ar   62  TYR62      -0.0201
     34  CD1       20.3800    6.7560    1.8490 C.ar   62  TYR62      -0.0009
     35  CD2       20.5050    5.7960    4.0390 C.ar   62  TYR62      -0.0009
     36  CE1       21.6490    7.2820    2.0010 C.ar   62  TYR62       0.0417
     37  CE2       21.7800    6.3160    4.2000 C.ar   62  TYR62       0.0417
     38  CZ        22.3460    7.0550    3.1720 C.ar   62  TYR62       0.1957
     39  OH        23.6030    7.5820    3.3130 O.3    62  TYR62      -0.2866
     40  N         11.1110   12.1170   -3.3540 N.3    77  PHE77      -0.1241
     41  CA        10.9100   11.8260   -1.9400 C.3    77  PHE77       0.1605
     42  C         11.2530   13.0310   -1.0460 C.2    77  PHE77       0.2264
     43  O         12.1160   13.8490   -1.3850 O.2    77  PHE77      -0.2867
     44  CB        11.7110   10.5820   -1.5130 C.3    77  PHE77       0.0534
     45  CG        13.1860   10.6730   -1.8030 C.ar   77  PHE77      -0.0203
     46  CD1       14.0630   11.1990   -0.8600 C.ar   77  PHE77      -0.0042
     47  CD2       13.6970   10.2330   -3.0190 C.ar   77  PHE77      -0.0042
     48  CE1       15.4240   11.2850   -1.1180 C.ar   77  PHE77      -0.0003
     49  CE2       15.0620   10.3240   -3.2930 C.ar   77  PHE77      -0.0003
     50  CZ        15.9270   10.8460   -2.3390 C.ar   77  PHE77      -0.0000
     51  N         13.8460   17.7730    4.2550 N.3    92  MET92      -0.1230
     52  CA        14.7570   17.7270    3.1130 C.3    92  MET92       0.1702
     53  C         14.0540   16.9640    2.0050 C.2    92  MET92       0.2592
     54  O         13.5270   15.8760    2.2390 O.2    92  MET92      -0.2718
     55  CB        16.0310   16.9650    3.4550 C.3    92  MET92       0.0401
     56  CG        17.0600   17.7290    4.2510 C.3    92  MET92       0.0596
     57  SD        18.6610   16.8890    4.1320 S.3    92  MET92      -0.1393
     58  CE        19.6630   17.9680    5.1440 C.3    92  MET92       0.0692
     59  N         14.0460   17.5230    0.8000 N.am   93  GLU93      -0.1966
     60  CA        13.4360   16.8240   -0.3410 C.3    93  GLU93       0.1733
     61  C         14.3780   16.6560   -1.5270 C.2    93  GLU93       0.2617
     62  O         15.2840   17.4700   -1.7340 O.2    93  GLU93      -0.2715
     63  CB        12.1160   17.4750   -0.7710 C.3    93  GLU93       0.0429
     64  CG        12.1610   18.9550   -1.0160 C.3    93  GLU93       0.1163
     65  CD        10.8020   19.5190   -1.3950 C.2    93  GLU93       0.3649
     66  OE1       10.5010   20.6590   -0.9770 O.co2  93  GLU93      -0.2457
     67  OE2       10.0330   18.8230   -2.1010 O.co2  93  GLU93      -0.2457
     68  N         14.1670   15.5850   -2.2880 N.am   94  SER94      -0.1936
     69  CA        14.9820   15.2950   -3.4550 C.3    94  SER94       0.2055
     70  C         14.7890   16.4130   -4.4680 C.2    94  SER94       0.2642
     71  O         13.6860   16.9520   -4.5930 O.2    94  SER94      -0.2714
     72  CB        14.5890   13.9370   -4.0510 C.3    94  SER94       0.2130
     73  OG        13.2540   13.9480   -4.5300 O.3    94  SER94      -0.2179
     74  N         15.8580   16.7800   -5.1710 N.am   95  GLN95      -0.1976
     75  CA        15.8040   17.8930   -6.1260 C.3    95  GLN95       0.1601
     76  C         15.0680   17.5180   -7.4220 C.2    95  GLN95       0.2287
     77  O         14.7290   18.3820   -8.2380 O.2    95  GLN95      -0.2864
     78  CB        17.2200   18.4020   -6.4400 C.3    95  GLN95       0.0394
     79  CG        18.0800   18.5720   -5.1880 C.3    95  GLN95       0.0908
     80  CD        17.5100   19.6460   -4.2790 C.2    95  GLN95       0.2608
     81  OE1       17.1220   20.7290   -4.7070 O.2    95  GLN95      -0.2717
     82  NE2       17.5120   19.3250   -3.0030 N.am   95  GLN95      -0.0878
     83  N         14.4820   10.2360   -8.6710 N.3    98  TYR98      -0.1241
     84  CA        15.6650    9.3630   -8.7350 C.3    98  TYR98       0.1605
     85  C         15.3250    7.9480   -9.2060 C.2    98  TYR98       0.2264
     86  O         14.2220    7.4690   -8.9670 O.2    98  TYR98      -0.2867
     87  CB        16.3780    9.3340   -7.3810 C.3    98  TYR98       0.0534
     88  CG        17.1780   10.5880   -7.1300 C.ar   98  TYR98      -0.0201
     89  CD1       18.5490   10.6110   -7.3510 C.ar   98  TYR98      -0.0009
     90  CD2       16.5570   11.7590   -6.6980 C.ar   98  TYR98      -0.0009
     91  CE1       19.2880   11.7690   -7.1420 C.ar   98  TYR98       0.0417
     92  CE2       17.2850   12.9210   -6.4850 C.ar   98  TYR98       0.0417
     93  CZ        18.6470   12.9190   -6.7100 C.ar   98  TYR98       0.1957
     94  OH        19.3730   14.0690   -6.4970 O.3    98  TYR98      -0.2866
     95  N         16.7150   -3.3250   -4.3350 N.3   103  GLY103     -0.1210
     96  CA        17.8900   -3.3620   -3.4950 C.3   103  GLY103      0.1956
     97  C         18.6570   -2.0590   -3.4660 C.2   103  GLY103      0.2612
     98  O         19.6660   -1.9630   -2.7780 O.2   103  GLY103     -0.2717
     99  N         18.1880   -1.0570   -4.2080 N.am  104  LYS104     -0.1965
    100  CA        18.8340    0.2530   -4.1830 C.3   104  LYS104      0.1728
    101  C         18.0790    1.2680   -3.3390 C.2   104  LYS104      0.2616
    102  O         16.8470    1.3190   -3.3510 O.2   104  LYS104     -0.2715
    103  CB        19.0760    0.8220   -5.5890 C.3   104  LYS104      0.0311
    104  CG        20.0790    1.9870   -5.5700 C.3   104  LYS104      0.0038
    105  CD        20.3840    2.5440   -6.9440 C.3   104  LYS104      0.0206
    106  CE        21.3370    3.7380   -6.8450 C.3   104  LYS104      0.1093
    107  NZ        22.6630    3.4070   -6.2450 N.3   104  LYS104     -0.1314
    108  N         18.8350    2.0840   -2.6170 N.am  105  ASP105     -0.1957
    109  CA        18.2440    3.1720   -1.8620 C.3   105  ASP105      0.1840
    110  C         18.7130    4.5600   -2.3250 C.2   105  ASP105      0.2622
    111  O         19.7270    4.6790   -3.0200 O.2   105  ASP105     -0.2715
    112  CB        18.4300    2.9520   -0.3480 C.3   105  ASP105      0.1450
    113  CG        19.8580    3.1740    0.1400 C.2   105  ASP105      0.3671
    114  OD1       20.7090    3.7290   -0.5730 O.co2 105  ASP105     -0.2456
    115  OD2       20.1260    2.8040    1.2980 O.co2 105  ASP105     -0.2456
    116  N         17.9380    5.5840   -1.9620 N.am  106  TRP106     -0.1960
    117  CA        18.3230    6.9860   -2.1210 C.3   106  TRP106      0.1771
    118  C         17.9080    7.7330   -0.8610 C.2   106  TRP106      0.2620
    119  O         16.8660    7.4350   -0.2670 O.2   106  TRP106     -0.2715
    120  CB        17.6420    7.6230   -3.3440 C.3   106  TRP106      0.0590
    121  CG        18.2180    7.1700   -4.6760 C.ar  106  TRP106      0.0006
    122  CD1       17.6640    6.2750   -5.5550 C.ar  106  TRP106      0.0946
    123  CD2       19.4590    7.5910   -5.2650 C.ar  106  TRP106      0.0152
    124  NE1       18.4840    6.1160   -6.6490 N.ar  106  TRP106     -0.2442
    125  CE2       19.5900    6.9110   -6.4990 C.ar  106  TRP106      0.0810
    126  CE3       20.4710    8.4810   -4.8710 C.ar  106  TRP106      0.0012
    127  CZ2       20.6940    7.0920   -7.3410 C.ar  106  TRP106      0.0191
    128  CZ3       21.5690    8.6560   -5.7050 C.ar  106  TRP106      0.0001
    129  CH2       21.6710    7.9650   -6.9270 C.ar  106  TRP106      0.0015
    130  N         18.7130    8.7110   -0.4580 N.am  107  GLY107     -0.1940
    131  CA        18.3760    9.5150    0.7160 C.3   107  GLY107      0.2014
    132  C         19.4260   10.5520    1.0390 C.2   107  GLY107      0.2639
    133  O         20.1560   11.0050    0.1550 O.2   107  GLY107     -0.2714
    134  N         19.5020   10.9320    2.3090 N.am  108  PHE108     -0.1959
    135  CA        20.4160   11.9890    2.7060 C.3   108  PHE108      0.1771
    136  C         21.3580   11.4700    3.7800 C.2   108  PHE108      0.2619
    137  O         20.9240   11.1110    4.8690 O.2   108  PHE108     -0.2715
    138  CB        19.6380   13.2400    3.1530 C.3   108  PHE108      0.0574
    139  CG        18.6700   13.7530    2.1110 C.ar  108  PHE108     -0.0200
    140  CD1       19.1330   14.4080    0.9760 C.ar  108  PHE108     -0.0042
    141  CD2       17.2970   13.5510    2.2560 C.ar  108  PHE108     -0.0042
    142  CE1       18.2460   14.8700   -0.0040 C.ar  108  PHE108     -0.0003
    143  CE2       16.3970   14.0180    1.2840 C.ar  108  PHE108     -0.0003
    144  CZ        16.8800   14.6740    0.1540 C.ar  108  PHE108     -0.0000
    145  N         22.6420   11.4030    3.4390 N.am  109  LYS109     -0.1977
    146  CA        23.6780   10.8870    4.3380 C.3   109  LYS109      0.1596
    147  C         23.8440   11.7790    5.5660 C.2   109  LYS109      0.2287
    148  O         24.1520   11.3000    6.6670 O.2   109  LYS109     -0.2864
    149  CB        25.0030   10.7380    3.5840 C.3   109  LYS109      0.0298
    150  CG        26.0620    9.9350    4.3290 C.3   109  LYS109      0.0038
    151  CD        27.2260    9.5130    3.4330 C.3   109  LYS109      0.0206
    152  CE        28.1340   10.6700    3.1020 C.3   109  LYS109      0.1093
    153  NZ        29.2760   10.2490    2.2260 N.3   109  LYS109     -0.1314
@<TRIPOS>BOND
     1    85    86    2
     2    85    84    1
     3    84    83    1
     4    84    87    1
     5    77    76    2
     6    76    75    1
     7    87    88    1
     8    89    91   ar
     9    89    88   ar
    10   127   129   ar
    11   127   125   ar
    12    91    93   ar
    13    88    90   ar
    14   105   106    1
    15   105   104    1
    16   129   128   ar
    17   106   107    1
    18    93    94    1
    19    93    92   ar
    20    90    92   ar
    21   124   125   ar
    22   124   122   ar
    23   125   123   ar
    24    78    75    1
    25    78    79    1
    26    75    74    1
    27   128   126   ar
    28   103   104    1
    29   103   100    1
    30   122   121   ar
    31   123   126   ar
    32   123   121   ar
    33    79    80    1
    34    74    70   am
    35    81    80    2
    36   121   120    1
    37    71    70    2
    38    73    72    1
    39    70    69    1
    40    95    96    1
    41    80    82   am
    42    99   100    1
    43    99    97   am
    44   100   101    1
    45    72    69    1
    46    96    97    1
    47    97    98    2
    48    69    68    1
    49    40    41    1
    50   102   101    2
    51   120   117    1
    52   101   108   am
    53    49    47   ar
    54    49    50   ar
    55   111   110    2
    56    47    45   ar
    57   108   109    1
    58    50    48   ar
    59   110   116   am
    60   110   109    1
    61    68    61   am
    62   117   116    1
    63   117   118    1
    64    67    65   ar
    65    41    44    1
    66    41    42    1
    67   109   112    1
    68    45    44    1
    69    45    46   ar
    70    62    61    2
    71    61    60    1
    72    65    64    1
    73    65    66   ar
    74    43    42    2
    75    48    46   ar
    76    64    63    1
    77   118   130   am
    78   118   119    2
    79    63    60    1
    80   114   113   ar
    81   130   131    1
    82   112   113    1
    83    60    59    1
    84   142   144   ar
    85   142   140   ar
    86   113   115   ar
    87   144   143   ar
    88   133   132    2
    89   131   132    1
    90    59    53   am
    91   140   139   ar
    92   132   134   am
    93   143   141   ar
    94    10     9    1
    95    34    36   ar
    96    34    33   ar
    97    36    38   ar
    98    53    54    2
    99    53    52    1
   100   139   141   ar
   101   139   138    1
   102   153   152    1
   103   134   135    1
   104    11     9    1
   105     9     8    2
   106    32    33    1
   107    32    29    1
   108   135   138    1
   109   135   136    1
   110    30    29    1
   111    30    31    2
   112    33    35   ar
   113    29    28    1
   114   152   151    1
   115    52    55    1
   116    52    51    1
   117    38    39    1
   118    38    37   ar
   119    27    25    1
   120   151   150    1
   121   145   136   am
   122   145   146    1
   123    55    56    1
   124     8     7    1
   125   149   150    1
   126   149   146    1
   127     7     6    1
   128   136   137    2
   129    35    37   ar
   130    57    56    1
   131    57    58    1
   132   146   147    1
   133    25    26    1
   134    25    24    1
   135     6     5    1
   136     5     2    1
   137   147   148    2
   138     1     2    1
   139    24    21    1
   140     2     3    1
   141     4     3    2
   142    18    17    2
   143    21    22    1
   144    21    20    1
   145    22    23    2
   146    17    19   am
   147    17    16    1
   148    16    13    1
   149    12    13    1
   150    13    14    1
   151    15    14    2
