@<TRIPOS>MOLECULE
tmp/4o1wE00.pdb
 204 196 0 0 0
SMALL
GASTEIGER

@<TRIPOS>ATOM
      1  N         43.9680   21.4670   24.6470 N.3    12  MET12      -0.1230
      2  CA        45.1300   20.7100   24.1800 C.3    12  MET12       0.1702
      3  C         45.0640   19.2130   24.5340 C.2    12  MET12       0.2592
      4  O         45.9010   18.4420   24.0650 O.2    12  MET12      -0.2718
      5  CB        46.4590   21.3060   24.6470 C.3    12  MET12       0.0401
      6  CG        46.5170   21.7550   26.0720 C.3    12  MET12       0.0596
      7  SD        48.1190   22.4960   26.5060 S.3    12  MET12      -0.1393
      8  CE        49.2290   21.1680   26.0030 C.3    12  MET12       0.0692
      9  N         44.0590   18.8010   25.3030 N.am   13  CYS13      -0.1970
     10  CA        43.9570   17.3940   25.7680 C.3    13  CYS13       0.1712
     11  C         42.8220   16.6120   25.0680 C.2    13  CYS13       0.2296
     12  O         42.8380   15.3780   24.9890 O.2    13  CYS13      -0.2864
     13  CB        43.6700   17.3850   27.2820 C.3    13  CYS13       0.0983
     14  SG        44.4220   18.7410   28.2600 S.3    13  CYS13      -0.0798
     15  N         41.5740   16.1490   22.1540 N.3    15  ALA15      -0.1231
     16  CA        41.7200   15.3600   20.9590 C.3    15  ALA15       0.1694
     17  C         42.1200   13.8980   21.2660 C.2    15  ALA15       0.2592
     18  O         41.8590   13.0050   20.4750 O.2    15  ALA15      -0.2718
     19  CB        42.7280   16.0280   19.9850 C.3    15  ALA15       0.0304
     20  N         42.7440   13.6670   22.4170 N.am   16  CYS16      -0.1956
     21  CA        43.1330   12.3280   22.8310 C.3    16  CYS16       0.1843
     22  C         42.3160   11.8020   23.9930 C.2    16  CYS16       0.2625
     23  O         41.9120   10.6630   23.9780 O.2    16  CYS16      -0.2714
     24  CB        44.5920   12.2910   23.2630 C.3    16  CYS16       0.0997
     25  SG        45.6420   12.7500   21.8940 S.3    16  CYS16      -0.0797
     26  N         42.1210   12.6170   25.0140 N.am   17  HIS17      -0.1973
     27  CA        41.4170   12.1570   26.2070 C.3    17  HIS17       0.1656
     28  C         39.9010   12.3420   26.1160 C.2    17  HIS17       0.2291
     29  O         39.1890   11.9060   27.0100 O.2    17  HIS17      -0.2864
     30  CB        41.9970   12.8120   27.4760 C.3    17  HIS17       0.0771
     31  CG        43.4030   12.3840   27.7830 C.ar   17  HIS17       0.0820
     32  ND1       43.7220   11.1000   28.1660 N.ar   17  HIS17      -0.2267
     33  CD2       44.5810   13.0610   27.7380 C.ar   17  HIS17       0.1154
     34  CE1       45.0280   11.0120   28.3750 C.ar   17  HIS17       0.1986
     35  NE2       45.5750   12.1880   28.1170 N.ar   17  HIS17      -0.2212
     36  N         44.6310    3.0870   23.8180 N.3    27  THR27      -0.1203
     37  CA        45.8820    3.4090   24.4390 C.3    27  THR27       0.1994
     38  C         45.8600    4.7580   25.1480 C.2    27  THR27       0.2618
     39  O         46.7510    5.0320   25.9160 O.2    27  THR27      -0.2717
     40  CB        47.0150    3.3300   23.4450 C.3    27  THR27       0.1784
     41  OG1       46.7120    4.1700   22.3280 O.3    27  THR27      -0.2211
     42  CG2       47.1940    1.8550   22.9850 C.3    27  THR27       0.0376
     43  N         44.8450    5.5860   24.9110 N.am   28  TYR28      -0.1962
     44  CA        44.6570    6.7700   25.7500 C.3    28  TYR28       0.1756
     45  C         43.7390    6.5160   26.9440 C.2    28  TYR28       0.2461
     46  O         42.5890    6.0930   26.7570 O.2    28  TYR28      -0.2730
     47  CB        44.0820    7.9420   24.9490 C.3    28  TYR28       0.0574
     48  CG        44.8280    8.2620   23.6800 C.ar   28  TYR28      -0.0198
     49  CD1       46.1980    8.1550   23.6090 C.ar   28  TYR28      -0.0009
     50  CD2       44.1460    8.6890   22.5510 C.ar   28  TYR28      -0.0009
     51  CE1       46.8810    8.4470   22.4380 C.ar   28  TYR28       0.0417
     52  CE2       44.8050    8.9720   21.3770 C.ar   28  TYR28       0.0417
     53  CZ        46.1720    8.8590   21.3290 C.ar   28  TYR28       0.1957
     54  OH        46.8240    9.1280   20.1640 O.3    28  TYR28      -0.2866
     55  N         44.2050    6.8170   28.1730 N.am   29  PRO29      -0.2716
     56  CA        43.2980    6.6600   29.3190 C.3    29  PRO29       0.1536
     57  C         42.2000    7.6950   29.4510 C.2    29  PRO29       0.2599
     58  O         42.2960    8.8450   28.9950 O.2    29  PRO29      -0.2715
     59  CB        44.2310    6.7350   30.5300 C.3    29  PRO29       0.0310
     60  CG        45.3830    7.6090   30.0200 C.3    29  PRO29       0.0237
     61  CD        45.5730    7.1720   28.6030 C.3    29  PRO29       0.0939
     62  N         41.1090    7.2510   30.0710 N.am   30  ASN30      -0.1959
     63  CA        40.0570    8.1520   30.5200 C.3    30  ASN30       0.1819
     64  C         40.5040    8.9440   31.7240 C.2    30  ASN30       0.2621
     65  O         41.1000    8.3910   32.6470 O.2    30  ASN30      -0.2715
     66  CB        38.7570    7.3990   30.8660 C.3    30  ASN30       0.1195
     67  CG        38.2480    6.5060   29.7200 C.2    30  ASN30       0.2630
     68  OD1       38.3810    6.8130   28.5120 O.2    30  ASN30      -0.2716
     69  ND2       37.6510    5.3920   30.0990 N.am   30  ASN30      -0.0877
     70  N         40.1640   10.2370   31.7210 N.am   31  LEU31      -0.1977
     71  CA        40.4630   11.1450   32.8020 C.3    31  LEU31       0.1596
     72  C         39.1950   11.5050   33.5880 C.2    31  LEU31       0.2287
     73  O         39.2530   11.8640   34.7490 O.2    31  LEU31      -0.2864
     74  CB        41.1250   12.4280   32.2310 C.3    31  LEU31       0.0297
     75  CG        42.4050   12.2170   31.4310 C.3    31  LEU31       0.0022
     76  CD1       43.1040   13.5760   31.2050 C.3    31  LEU31       0.0001
     77  CD2       43.3980   11.2380   32.0760 C.3    31  LEU31       0.0001
     78  N         38.2420   11.1800   37.5620 N.3    34  GLN34      -0.1245
     79  CA        39.3970   10.6850   38.2920 C.3    34  GLN34       0.1566
     80  C         39.6670   11.5950   39.4910 C.2    34  GLN34       0.2260
     81  O         39.3040   12.7740   39.4750 O.2    34  GLN34      -0.2867
     82  CB        40.5850   10.6200   37.3410 C.3    34  GLN34       0.0367
     83  CG        41.8510    9.9420   37.8550 C.3    34  GLN34       0.0905
     84  CD        41.5630    8.5810   38.4220 C.2    34  GLN34       0.2608
     85  OE1       41.2100    8.4490   39.5960 O.2    34  GLN34      -0.2717
     86  NE2       41.6640    7.5620   37.5790 N.am   34  GLN34      -0.0878
     87  N         45.3150   12.6320   42.3870 N.3    38  TYR38      -0.1227
     88  CA        46.0090   11.6180   41.6080 C.3    38  TYR38       0.1736
     89  C         46.4230   12.2100   40.2630 C.2    38  TYR38       0.2595
     90  O         47.5590   12.0530   39.8340 O.2    38  TYR38      -0.2718
     91  CB        45.1040   10.3690   41.4050 C.3    38  TYR38       0.0548
     92  CG        45.7190    9.3850   40.4460 C.ar   38  TYR38      -0.0200
     93  CD1       46.7630    8.5550   40.8520 C.ar   38  TYR38      -0.0009
     94  CD2       45.2900    9.3080   39.1310 C.ar   38  TYR38      -0.0009
     95  CE1       47.3730    7.6750   39.9560 C.ar   38  TYR38       0.0417
     96  CE2       45.8870    8.4430   38.2290 C.ar   38  TYR38       0.0417
     97  CZ        46.9350    7.6260   38.6590 C.ar   38  TYR38       0.1957
     98  OH        47.5230    6.7720   37.7850 O.3    38  TYR38      -0.2866
     99  N         45.4900   12.8550   39.5670 N.am   39  LEU39      -0.1980
    100  CA        45.8160   13.4290   38.2590 C.3    39  LEU39       0.1596
    101  C         46.9660   14.4220   38.3960 C.2    39  LEU39       0.2287
    102  O         47.8770   14.4340   37.5930 O.2    39  LEU39      -0.2864
    103  CB        44.5870   14.0990   37.6330 C.3    39  LEU39       0.0297
    104  CG        43.4290   13.1800   37.1760 C.3    39  LEU39       0.0022
    105  CD1       42.2730   14.0170   36.7480 C.3    39  LEU39       0.0001
    106  CD2       43.8360   12.2240   36.0470 C.3    39  LEU39       0.0001
    107  N         50.2250   12.6410   38.8030 N.3    42  GLN42      -0.1231
    108  CA        50.6560   12.0610   37.5470 C.3    42  GLN42       0.1698
    109  C         51.2560   13.1390   36.6720 C.2    42  GLN42       0.2592
    110  O         52.3530   12.9530   36.1080 O.2    42  GLN42      -0.2718
    111  CB        49.5060   11.3490   36.8020 C.3    42  GLN42       0.0381
    112  CG        48.9630   10.1000   37.5460 C.3    42  GLN42       0.0905
    113  CD        50.0580    9.3330   38.2460 C.2    42  GLN42       0.2608
    114  OE1       50.9780    8.7950   37.6030 O.2    42  GLN42      -0.2717
    115  NE2       50.0040    9.3110   39.5690 N.am   42  GLN42      -0.0878
    116  N         50.5520   14.2600   36.5440 N.am   43  LEU43      -0.1980
    117  CA        51.1100   15.3470   35.7530 C.3    43  LEU43       0.1596
    118  C         52.4930   15.8120   36.3090 C.2    43  LEU43       0.2287
    119  O         53.4460   15.9950   35.5410 O.2    43  LEU43      -0.2864
    120  CB        50.1030   16.4750   35.6140 C.3    43  LEU43       0.0297
    121  CG        48.8180   16.1050   34.8360 C.3    43  LEU43       0.0022
    122  CD1       47.7290   17.1460   34.9220 C.3    43  LEU43       0.0001
    123  CD2       49.1780   15.7950   33.3910 C.3    43  LEU43       0.0001
    124  N         55.1400   13.1250   35.3490 N.3    46  PHE46      -0.1241
    125  CA        55.5380   13.2470   33.9640 C.3    46  PHE46       0.1605
    126  C         56.5780   14.3550   33.8360 C.2    46  PHE46       0.2264
    127  O         57.5330   14.2360   33.0900 O.2    46  PHE46      -0.2867
    128  CB        54.3290   13.5710   33.0660 C.3    46  PHE46       0.0534
    129  CG        53.4240   12.3880   32.8010 C.ar   46  PHE46      -0.0203
    130  CD1       53.9500   11.1780   32.3910 C.ar   46  PHE46      -0.0042
    131  CD2       52.0540   12.5110   32.9300 C.ar   46  PHE46      -0.0042
    132  CE1       53.1310   10.0990   32.1340 C.ar   46  PHE46      -0.0003
    133  CE2       51.2220   11.4430   32.6620 C.ar   46  PHE46      -0.0003
    134  CZ        51.7650   10.2310   32.2700 C.ar   46  PHE46      -0.0000
    135  N         57.6770    9.5420   36.0780 N.3    51  ARG51      -0.1245
    136  CA        56.9160    8.6650   35.1880 C.3    51  ARG51       0.1563
    137  C         57.3440    8.9340   33.7300 C.2    51  ARG51       0.2260
    138  O         57.2880   10.0690   33.2700 O.2    51  ARG51      -0.2867
    139  CB        55.4040    8.8850   35.3860 C.3    51  ARG51       0.0307
    140  CG        54.5550    7.9580   34.5570 C.3    51  ARG51       0.0489
    141  CD        53.0740    7.9480   34.9830 C.3    51  ARG51       0.2205
    142  NE        52.2750    7.2720   33.9900 N.pl3  51  ARG51      -0.0865
    143  CZ        50.9440    7.1580   34.0090 C.cat  51  ARG51       0.5346
    144  NH1       50.2220    7.6560   35.0010 N.pl3  51  ARG51       0.1354
    145  NH2       50.3360    6.5310   33.0170 N.pl3  51  ARG51       0.1354
    146  N         56.5960    8.2190   30.1500 N.3    53  ASP53      -0.1239
    147  CA        55.9340    7.9750   28.8740 C.3    53  ASP53       0.1674
    148  C         56.2550    9.1580   27.9500 C.2    53  ASP53       0.2266
    149  O         56.0300   10.3210   28.3320 O.2    53  ASP53      -0.2867
    150  CB        54.4180    7.8390   29.0400 C.3    53  ASP53       0.1410
    151  CG        53.6860    7.8610   27.6990 C.2    53  ASP53       0.3668
    152  OD1       53.6020    6.8020   27.0480 O.co2  53  ASP53      -0.2456
    153  OD2       53.1950    8.9440   27.2810 O.co2  53  ASP53      -0.2456
    154  N         54.8850   10.5580   25.2870 N.3    55  THR55      -0.1203
    155  CA        53.8510   11.5030   24.8860 C.3    55  THR55       0.1994
    156  C         53.5800   12.5060   25.9900 C.2    55  THR55       0.2617
    157  O         53.6250   13.7360   25.7660 O.2    55  THR55      -0.2717
    158  CB        52.5520   10.7530   24.4920 C.3    55  THR55       0.1784
    159  OG1       52.8500    9.8330   23.4410 O.3    55  THR55      -0.2211
    160  CG2       51.4810   11.7210   24.0290 C.3    55  THR55       0.0376
    161  N         53.3490   11.9980   27.2010 N.am   56  MET56      -0.1979
    162  CA        52.9930   12.8710   28.3130 C.3    56  MET56       0.1605
    163  C         54.1720   13.6620   28.8750 C.2    56  MET56       0.2287
    164  O         53.9880   14.7750   29.4090 O.2    56  MET56      -0.2864
    165  CB        52.2630   12.0800   29.4040 C.3    56  MET56       0.0413
    166  CG        50.7940   11.7200   28.9890 C.3    56  MET56       0.0598
    167  SD        49.7730   13.1470   28.4590 S.3    56  MET56      -0.1393
    168  CE        49.9180   14.2550   29.8600 C.3    56  MET56       0.0692
    169  N         53.9510   16.5000   26.5260 N.3    59  MET59      -0.1245
    170  CA        52.7640   17.2900   26.7830 C.3    59  MET59       0.1570
    171  C         52.8870   18.2510   27.9750 C.2    59  MET59       0.2261
    172  O         52.3910   19.3800   27.9190 O.2    59  MET59      -0.2867
    173  CB        51.5910   16.3510   27.0380 C.3    59  MET59       0.0387
    174  CG        50.2720   17.0490   27.0530 C.3    59  MET59       0.0595
    175  SD        49.8770   17.8230   25.4500 S.3    59  MET59      -0.1393
    176  CE        50.4970   16.6130   24.3270 C.3    59  MET59       0.0692
    177  N         53.0240   23.0240   30.4060 N.3    63  LEU63      -0.1245
    178  CA        52.2060   23.2790   31.5780 C.3    63  LEU63       0.1561
    179  C         52.9780   23.8660   32.7590 C.2    63  LEU63       0.2260
    180  O         54.0780   23.4310   33.1020 O.2    63  LEU63      -0.2867
    181  CB        51.5140   21.9830   32.0230 C.3    63  LEU63       0.0270
    182  CG        50.6700   21.2730   30.9470 C.3    63  LEU63       0.0019
    183  CD1       49.9470   20.0990   31.5650 C.3    63  LEU63       0.0001
    184  CD2       49.6740   22.2100   30.2920 C.3    63  LEU63       0.0001
    185  N         43.6800   21.6510   35.4780 N.3    71  LEU71      -0.1245
    186  CA        43.2710   20.5390   34.6200 C.3    71  LEU71       0.1561
    187  C         42.7690   19.3580   35.4390 C.2    71  LEU71       0.2260
    188  O         41.7570   18.7510   35.1040 O.2    71  LEU71      -0.2867
    189  CB        44.4560   20.1150   33.7530 C.3    71  LEU71       0.0270
    190  CG        44.6690   21.0930   32.6150 C.3    71  LEU71       0.0019
    191  CD1       46.1040   20.9970   32.0310 C.3    71  LEU71       0.0001
    192  CD2       43.5860   20.9040   31.5440 C.3    71  LEU71       0.0001
    193  N         38.9320   17.7650   35.1270 N.3    75  TYR75      -0.1241
    194  CA        38.5400   16.3850   34.7770 C.3    75  TYR75       0.1605
    195  C         37.8850   15.6720   35.9480 C.2    75  TYR75       0.2264
    196  O         36.8940   14.9490   35.7880 O.2    75  TYR75      -0.2867
    197  CB        39.7340   15.5950   34.2380 C.3    75  TYR75       0.0534
    198  CG        40.0680   16.0040   32.8400 C.ar   75  TYR75      -0.0201
    199  CD1       39.1870   15.7510   31.7950 C.ar   75  TYR75      -0.0009
    200  CD2       41.2320   16.6840   32.5670 C.ar   75  TYR75      -0.0009
    201  CE1       39.4900   16.1560   30.4990 C.ar   75  TYR75       0.0417
    202  CE2       41.5340   17.1020   31.3080 C.ar   75  TYR75       0.0417
    203  CZ        40.6710   16.8290   30.2760 C.ar   75  TYR75       0.1957
    204  OH        41.0110   17.2580   29.0300 O.3    75  TYR75      -0.2866
@<TRIPOS>BOND
     1    19    16    1
     2    54    53    1
     3    18    17    2
     4    16    17    1
     5    16    15    1
     6    17    20   am
     7    53    52   ar
     8    53    51   ar
     9    52    50   ar
    10    25    24    1
    11    41    40    1
    12    20    21    1
    13    51    49   ar
    14    50    48   ar
    15    21    24    1
    16    21    22    1
    17    42    40    1
    18   159   158    1
    19    40    37    1
    20    49    48   ar
    21    48    47    1
    22    36    37    1
    23    23    22    2
    24    22    26   am
    25   160   158    1
    26     4     3    2
    27     2     3    1
    28     2     5    1
    29     2     1    1
    30   176   175    1
    31    37    38    1
    32   158   155    1
    33     3     9   am
    34     5     6    1
    35   155   154    1
    36   155   156    1
    37    43    38   am
    38    43    44    1
    39    47    44    1
    40    12    11    2
    41    26    27    1
    42    11    10    1
    43    38    39    2
    44     9    10    1
    45   175   174    1
    46    44    45    1
    47   157   156    2
    48    10    13    1
    49   156   161   am
    50     8     7    1
    51     6     7    1
    52    28    27    1
    53    28    29    2
    54    27    30    1
    55   169   170    1
    56    46    45    2
    57   170   173    1
    58   170   171    1
    59    45    55   am
    60   173   174    1
    61   152   151   ar
    62   161   162    1
    63   153   151   ar
    64    13    14    1
    65    30    31    1
    66   151   150    1
    67    33    31   ar
    68    33    35   ar
    69    31    32   ar
    70   172   171    2
    71   148   149    2
    72   148   147    1
    73    35    34   ar
    74    32    34   ar
    75    55    61    1
    76    55    56    1
    77   162   163    1
    78   162   165    1
    79   167   166    1
    80   167   168    1
    81    68    67    2
    82    61    60    1
    83   147   150    1
    84   147   146    1
    85   163   164    2
    86   166   165    1
    87    58    57    2
    88   204   203    1
    89    56    57    1
    90    56    59    1
    91    57    62   am
    92    67    69   am
    93    67    66    1
    94    60    59    1
    95    62    63    1
    96   203   201   ar
    97   203   202   ar
    98   184   182    1
    99   177   178    1
   100   201   199   ar
   101    63    66    1
   102    63    64    1
   103   182   183    1
   104   182   181    1
   105    76    75    1
   106   202   200   ar
   107    75    77    1
   108    75    74    1
   109   192   190    1
   110   178   181    1
   111   178   179    1
   112    70    64   am
   113    70    71    1
   114    64    65    2
   115   199   198   ar
   116   191   190    1
   117   132   134   ar
   118   132   130   ar
   119    74    71    1
   120   134   133   ar
   121   130   129   ar
   122   200   198   ar
   123   190   189    1
   124   133   131   ar
   125   179   180    2
   126   129   131   ar
   127   129   128    1
   128    71    72    1
   129   198   197    1
   130   145   143    1
   131   128   125    1
   132   127   126    2
   133   138   137    2
   134   123   121    1
   135    72    73    2
   136   137   136    1
   137   189   186    1
   138   126   125    1
   139   125   124    1
   140   142   143    2
   141   142   141    1
   142   143   144    1
   143   197   194    1
   144   140   141    1
   145   140   139    1
   146   186   187    1
   147   186   185    1
   148   194   193    1
   149   194   195    1
   150   121   122    1
   151   121   120    1
   152   188   187    2
   153   136   139    1
   154   136   135    1
   155   119   118    2
   156   120   117    1
   157   117   118    1
   158   117   116    1
   159   196   195    2
   160   106   104    1
   161   110   109    2
   162   116   109   am
   163   109   108    1
   164   105   104    1
   165   111   112    1
   166   111   108    1
   167   104   103    1
   168    82    83    1
   169    82    79    1
   170   112   113    1
   171   108   107    1
   172    78    79    1
   173    86    84   am
   174   102   101    2
   175   114   113    2
   176   103   100    1
   177    98    97    1
   178    83    84    1
   179    96    97   ar
   180    96    94   ar
   181   113   115   am
   182   100   101    1
   183   100    99    1
   184    79    80    1
   185    84    85    2
   186    97    95   ar
   187    94    92   ar
   188    81    80    2
   189    99    89   am
   190    90    89    2
   191    95    93   ar
   192    89    88    1
   193    92    93   ar
   194    92    91    1
   195    91    88    1
   196    88    87    1
