@<TRIPOS>MOLECULE
tmp/4o1yA00.pdb
 137 134 0 0 0
SMALL
GASTEIGER

@<TRIPOS>ATOM
      1  N        -34.6860   10.1380  -10.8140 N.3     2  LEU2       -0.1245
      2  CA       -35.3680   11.4310  -10.7090 C.3     2  LEU2        0.1561
      3  C        -36.8860   11.3750  -10.9750 C.2     2  LEU2        0.2260
      4  O        -37.6570   11.8410  -10.1330 O.2     2  LEU2       -0.2867
      5  CB       -34.7060   12.4610  -11.6000 C.3     2  LEU2        0.0270
      6  CG       -35.0190   13.9400  -11.3650 C.3     2  LEU2        0.0019
      7  CD1      -34.6570   14.4320   -9.9710 C.3     2  LEU2        0.0001
      8  CD2      -34.2590   14.7460  -12.4150 C.3     2  LEU2        0.0001
      9  N        -38.8260    9.8800   -8.1120 N.3     5  PHE5       -0.1227
     10  CA       -38.8760   10.7430   -6.9390 C.3     5  PHE5        0.1736
     11  C        -39.9860   11.8020   -7.0990 C.2     5  PHE5        0.2595
     12  O        -40.7760   12.0410   -6.1730 O.2     5  PHE5       -0.2718
     13  CB       -37.4970   11.3830   -6.7590 C.3     5  PHE5        0.0547
     14  CG       -37.3650   12.2600   -5.5350 C.ar    5  PHE5       -0.0202
     15  CD1      -37.9480   11.9060   -4.3190 C.ar    5  PHE5       -0.0042
     16  CD2      -36.6080   13.4330   -5.5920 C.ar    5  PHE5       -0.0042
     17  CE1      -37.7940   12.7050   -3.1970 C.ar    5  PHE5       -0.0003
     18  CE2      -36.4710   14.2450   -4.4700 C.ar    5  PHE5       -0.0003
     19  CZ       -37.0560   13.8690   -3.2720 C.ar    5  PHE5       -0.0000
     20  N        -40.0790   12.4120   -8.2800 N.am    6  ARG6       -0.1980
     21  CA       -41.2170   13.2930   -8.5700 C.3     6  ARG6        0.1597
     22  C        -42.5360   12.6020   -8.2740 C.2     6  ARG6        0.2287
     23  O        -43.3880   13.2110   -7.6800 O.2     6  ARG6       -0.2864
     24  CB       -41.2220   13.8150  -10.0050 C.3     6  ARG6        0.0334
     25  CG       -40.1910   14.8950  -10.2920 C.3     6  ARG6        0.0492
     26  CD       -40.3170   15.4160  -11.7220 C.3     6  ARG6        0.2205
     27  NE       -39.1420   15.0510  -12.5180 N.pl3   6  ARG6       -0.0865
     28  CZ       -39.1630   14.2260  -13.5650 C.cat   6  ARG6        0.5346
     29  NH1      -40.3240   13.6810  -13.9610 N.pl3   6  ARG6        0.1354
     30  NH2      -38.0220   13.9380  -14.2170 N.pl3   6  ARG6        0.1354
     31  N        -43.3100   12.1750   -4.4150 N.3     9  ILE9       -0.1245
     32  CA       -43.8410   13.4070   -3.8570 C.3     9  ILE9        0.1561
     33  C        -45.3220   13.5170   -4.1750 C.2     9  ILE9        0.2260
     34  O        -46.1390   13.7300   -3.2780 O.2     9  ILE9       -0.2867
     35  CB       -43.1100   14.6430   -4.4140 C.3     9  ILE9        0.0252
     36  CG1      -41.6250   14.5940   -4.0490 C.3     9  ILE9        0.0019
     37  CG2      -43.7500   15.9200   -3.8930 C.3     9  ILE9        0.0019
     38  CD1      -40.7200   15.2250   -5.0840 C.3     9  ILE9        0.0001
     39  N        -44.2830   18.8190   -8.0280 N.3    18  PRO18      -0.2102
     40  CA       -42.9100   18.8110   -7.4790 C.3    18  PRO18       0.1504
     41  C        -41.8740   19.7200   -8.1610 C.2    18  PRO18       0.2575
     42  O        -41.2460   20.5390   -7.4780 O.2    18  PRO18      -0.2718
     43  CB       -42.4980   17.3320   -7.5990 C.3    18  PRO18       0.0282
     44  CG       -43.7750   16.5860   -7.7330 C.3    18  PRO18       0.0208
     45  CD       -44.6330   17.4920   -8.5630 C.3    18  PRO18       0.0893
     46  N        -41.6840   19.5770   -9.4680 N.am   19  LEU19      -0.1980
     47  CA       -40.7080   20.4010  -10.1790 C.3    19  LEU19       0.1596
     48  C        -40.8720   21.8720   -9.8040 C.2    19  LEU19       0.2287
     49  O        -39.8950   22.5810   -9.5610 O.2    19  LEU19      -0.2864
     50  CB       -40.8540   20.2220  -11.6910 C.3    19  LEU19       0.0297
     51  CG       -41.4060   18.8760  -12.1640 C.3    19  LEU19       0.0022
     52  CD1      -42.6500   18.4970  -11.3750 C.3    19  LEU19       0.0001
     53  CD2      -41.7040   18.9110  -13.6560 C.3    19  LEU19       0.0001
     54  N        -40.8610   22.1570   -5.1580 N.3    22  PHE22      -0.1227
     55  CA       -39.6520   21.8150   -4.3960 C.3    22  PHE22       0.1736
     56  C        -38.3420   21.9940   -5.1190 C.2    22  PHE22       0.2595
     57  O        -37.3320   21.6730   -4.5830 O.2    22  PHE22      -0.2718
     58  CB       -39.7470   20.3920   -3.8220 C.3    22  PHE22       0.0547
     59  CG       -41.0060   20.1650   -3.0630 C.ar   22  PHE22      -0.0202
     60  CD1      -41.1610   20.6930   -1.7800 C.ar   22  PHE22      -0.0042
     61  CD2      -42.0830   19.5050   -3.6500 C.ar   22  PHE22      -0.0042
     62  CE1      -42.3680   20.5320   -1.0820 C.ar   22  PHE22      -0.0003
     63  CE2      -43.2960   19.3490   -2.9570 C.ar   22  PHE22      -0.0003
     64  CZ       -43.4390   19.8530   -1.6700 C.ar   22  PHE22      -0.0000
     65  N        -38.3370   22.5140   -6.3270 N.am   23  ASN23      -0.1974
     66  CA       -37.0800   22.7530   -6.9770 C.3    23  ASN23       0.1688
     67  C        -36.8080   24.2250   -6.7760 C.2    23  ASN23       0.2292
     68  O        -37.7120   25.0510   -6.8590 O.2    23  ASN23      -0.2864
     69  CB       -37.1610   22.3470   -8.4450 C.3    23  ASN23       0.1181
     70  CG       -35.8370   22.4610   -9.1650 C.2    23  ASN23       0.2629
     71  OD1      -34.8490   21.8000   -8.8140 O.2    23  ASN23      -0.2716
     72  ND2      -35.8030   23.3170  -10.1820 N.am   23  ASN23      -0.0877
     73  N        -32.8620   22.3930   -1.6420 N.3    29  CYS29      -0.1221
     74  CA       -33.8080   21.8860   -2.6460 C.3    29  CYS29       0.1808
     75  C        -33.5050   22.3460   -4.0720 C.2    29  CYS29       0.2602
     76  O        -33.9980   23.3700   -4.5010 O.2    29  CYS29      -0.2717
     77  CB       -35.2300   22.3010   -2.2820 C.3    29  CYS29       0.0970
     78  SG       -35.8590   21.7710   -0.6740 S.3    29  CYS29      -0.0800
     79  N        -32.7100   21.5890   -4.8110 N.am   30  GLY30      -0.1942
     80  CA       -32.2340   22.0410   -6.1260 C.3    30  GLY30       0.2014
     81  C        -30.8330   21.5130   -6.3590 C.2    30  GLY30       0.2638
     82  O        -30.2550   20.8320   -5.4820 O.2    30  GLY30      -0.2714
     83  N        -30.2550   21.7920   -7.5260 N.am   31  LEU31      -0.1977
     84  CA       -28.8960   21.2980   -7.7700 C.3    31  LEU31       0.1596
     85  C        -27.9520   21.8090   -6.6820 C.2    31  LEU31       0.2287
     86  O        -28.0680   22.9780   -6.2780 O.2    31  LEU31      -0.2864
     87  CB       -28.3490   21.6690   -9.1480 C.3    31  LEU31       0.0297
     88  CG       -27.0040   20.9650   -9.4400 C.3    31  LEU31       0.0022
     89  CD1      -27.1580   19.4550   -9.6310 C.3    31  LEU31       0.0001
     90  CD2      -26.2300   21.6250  -10.5890 C.3    31  LEU31       0.0001
     91  N        -34.3830   18.4240    2.2090 N.3    45  CYS45      -0.1235
     92  CA       -33.5590   18.4180    0.9770 C.3    45  CYS45       0.1677
     93  C        -32.0700   18.2090    1.2250 C.2    45  CYS45       0.2270
     94  O        -31.4110   17.5250    0.4380 O.2    45  CYS45      -0.2867
     95  CB       -33.7540   19.7000    0.1760 C.3    45  CYS45       0.0956
     96  SG       -35.4220   19.7920   -0.5070 S.3    45  CYS45      -0.0801
     97  N        -31.5700   14.6200    1.9180 N.3    48  HIS48      -0.1226
     98  CA       -31.6080   13.9630    0.6090 C.3    48  HIS48       0.1752
     99  C        -30.2770   14.0990   -0.0970 C.2    48  HIS48       0.2596
    100  O        -29.6420   13.0820   -0.4710 O.2    48  HIS48      -0.2718
    101  CB       -32.7350   14.5490   -0.2030 C.3    48  HIS48       0.0759
    102  CG       -33.1040   13.7570   -1.4260 C.ar   48  HIS48       0.0818
    103  ND1      -33.1110   14.3070   -2.6770 N.ar   48  HIS48      -0.2268
    104  CD2      -33.5510   12.4420   -1.5700 C.ar   48  HIS48       0.1154
    105  CE1      -33.5200   13.3860   -3.5650 C.ar   48  HIS48       0.1986
    106  NE2      -33.7770   12.2380   -2.8940 N.ar   48  HIS48      -0.2212
    107  N        -29.8070   15.3360   -0.2570 N.am   49  ASP49      -0.1974
    108  CA       -28.4910   15.5480   -0.8100 C.3    49  ASP49       0.1709
    109  C        -27.4730   14.6430   -0.1010 C.2    49  ASP49       0.2293
    110  O        -26.6780   13.9760   -0.7700 O.2    49  ASP49      -0.2864
    111  CB       -28.0550   17.0070   -0.7000 C.3    49  ASP49       0.1436
    112  CG       -28.7930   17.9340   -1.6610 C.2    49  ASP49       0.3671
    113  OD1      -29.7690   17.5340   -2.3050 O.co2  49  ASP49      -0.2456
    114  OD2      -28.3830   19.1240   -1.7680 O.co2  49  ASP49      -0.2456
    115  N        -29.3910    9.4800   -9.3400 N.3    69  TYR69      -0.1241
    116  CA       -30.7000    9.8220   -9.9350 C.3    69  TYR69       0.1605
    117  C        -31.0140    9.0390  -11.1580 C.2    69  TYR69       0.2264
    118  O        -32.1650    9.0430  -11.6690 O.2    69  TYR69      -0.2867
    119  CB       -30.7170   11.2580  -10.3940 C.3    69  TYR69       0.0534
    120  CG       -31.2440   12.1570   -9.3670 C.ar   69  TYR69      -0.0201
    121  CD1      -30.4860   13.2350   -8.9290 C.ar   69  TYR69      -0.0009
    122  CD2      -32.4920   11.9100   -8.7680 C.ar   69  TYR69      -0.0009
    123  CE1      -30.9720   14.0930   -7.9510 C.ar   69  TYR69       0.0417
    124  CE2      -32.9950   12.7640   -7.7870 C.ar   69  TYR69       0.0417
    125  CZ       -32.2260   13.8660   -7.3850 C.ar   69  TYR69       0.1957
    126  OH       -32.6720   14.7340   -6.3970 O.3    69  TYR69      -0.2866
    127  N        -40.9520   15.8110    3.1560 N.3   106  PHE106     -0.1241
    128  CA       -41.5550   16.9730    2.5130 C.3   106  PHE106      0.1605
    129  C        -43.0100   17.0460    2.9640 C.2   106  PHE106      0.2264
    130  O        -43.5380   18.1330    3.1500 O.2   106  PHE106     -0.2867
    131  CB       -41.5300   16.8640    0.9930 C.3   106  PHE106      0.0534
    132  CG       -40.1570   17.0150    0.3400 C.ar  106  PHE106     -0.0203
    133  CD1      -38.9890   17.1430    1.0700 C.ar  106  PHE106     -0.0042
    134  CD2      -40.0560   16.9670   -1.0750 C.ar  106  PHE106     -0.0042
    135  CE1      -37.7620   17.2750    0.4220 C.ar  106  PHE106     -0.0003
    136  CE2      -38.8330   17.0980   -1.7210 C.ar  106  PHE106     -0.0003
    137  CZ       -37.6820   17.2470   -0.9710 C.ar  106  PHE106     -0.0000
@<TRIPOS>BOND
     1    30    28    1
     2    29    28    1
     3    53    51    1
     4    28    27    2
     5    27    26    1
     6     8     6    1
     7    51    50    1
     8    51    52    1
     9    26    25    1
    10    50    47    1
    11   118   117    2
    12     5     6    1
    13     5     2    1
    14     6     7    1
    15   117   116    1
    16     3     2    1
    17     3     4    2
    18     1     2    1
    19    90    88    1
    20   119   116    1
    21   119   120    1
    22    25    24    1
    23    72    70   am
    24    47    48    1
    25    47    46    1
    26    24    21    1
    27   116   115    1
    28    48    49    2
    29    89    88    1
    30    46    41   am
    31    88    87    1
    32   120   121   ar
    33   120   122   ar
    34    70    71    2
    35    70    69    1
    36    87    84    1
    37   121   123   ar
    38   122   124   ar
    39    21    20    1
    40    21    22    1
    41    45    39    1
    42    45    44    1
    43    69    66    1
    44    20    11   am
    45    22    23    2
    46    41    40    1
    47    41    42    2
    48     9    10    1
    49    39    40    1
    50   123   125   ar
    51   124   125   ar
    52    84    83    1
    53    84    85    1
    54    44    43    1
    55    43    40    1
    56    83    81   am
    57   125   126    1
    58    11    10    1
    59    11    12    2
    60    66    67    1
    61    66    65    1
    62    10    13    1
    63    68    67    2
    64    13    14    1
    65    85    86    2
    66    81    80    1
    67    81    82    2
    68    65    56   am
    69    80    79    1
    70    16    14   ar
    71    16    18   ar
    72    14    15   ar
    73    54    55    1
    74    56    57    2
    75    56    55    1
    76    38    36    1
    77    79    75   am
    78    76    75    2
    79    18    19   ar
    80    31    32    1
    81    35    36    1
    82    35    37    1
    83    35    32    1
    84    55    58    1
    85    15    17   ar
    86    33    32    1
    87    33    34    2
    88    75    74    1
    89    58    59    1
    90    61    59   ar
    91    61    63   ar
    92   105   106   ar
    93   105   103   ar
    94    19    17   ar
    95    59    60   ar
    96    63    64   ar
    97   106   104   ar
    98   103   102   ar
    99    74    77    1
   100    74    73    1
   101   113   112   ar
   102    77    78    1
   103    60    62   ar
   104   114   112   ar
   105   136   134   ar
   106   136   137   ar
   107    64    62   ar
   108   112   111    1
   109   104   102   ar
   110   102   101    1
   111   134   132   ar
   112   137   135   ar
   113   108   111    1
   114   108   107    1
   115   108   109    1
   116   110   109    2
   117    78    96    1
   118    96    95    1
   119   100    99    2
   120   107    99   am
   121   101    98    1
   122    99    98    1
   123    95    92    1
   124   132   131    1
   125   132   133   ar
   126   135   133   ar
   127    94    93    2
   128    98    97    1
   129    92    93    1
   130    92    91    1
   131   131   128    1
   132   128   129    1
   133   128   127    1
   134   129   130    2
