@<TRIPOS>MOLECULE
tmp/4o1zA04.pdb
 215 206 0 0 0
SMALL
GASTEIGER

@<TRIPOS>ATOM
      1  N        259.4040  115.2400    9.0780 N.3    82  MET82      -0.1245
      2  CA       258.7450  113.9960    9.4190 C.3    82  MET82       0.1570
      3  C        257.6790  114.2410   10.4750 C.2    82  MET82       0.2261
      4  O        256.5860  113.6910   10.4070 O.2    82  MET82      -0.2867
      5  CB       259.7690  112.9750    9.9110 C.3    82  MET82       0.0387
      6  CG       259.2400  111.5720    9.9450 C.3    82  MET82       0.0595
      7  SD       258.4340  111.2040    8.3830 S.3    82  MET82      -0.1393
      8  CE       258.0200  109.4810    8.6410 C.3    82  MET82       0.0692
      9  N        254.7360  116.1870    8.8780 N.3    85  VAL85      -0.1231
     10  CA       253.9470  115.2490    8.1240 C.3    85  VAL85       0.1692
     11  C        253.0970  114.3910    9.0410 C.2    85  VAL85       0.2591
     12  O        251.9140  114.1910    8.7920 O.2    85  VAL85      -0.2718
     13  CB       254.8350  114.3510    7.2830 C.3    85  VAL85       0.0266
     14  CG1      253.9800  113.3880    6.5470 C.3    85  VAL85       0.0020
     15  CG2      255.6370  115.1820    6.3010 C.3    85  VAL85       0.0020
     16  N        253.7100  113.8930   10.1060 N.am   86  LEU86      -0.1980
     17  CA       253.0060  113.0470   11.0580 C.3    86  LEU86       0.1596
     18  C        251.8040  113.7630   11.6490 C.2    86  LEU86       0.2287
     19  O        250.6770  113.2790   11.5590 O.2    86  LEU86      -0.2864
     20  CB       253.9430  112.6010   12.1750 C.3    86  LEU86       0.0297
     21  CG       254.4700  111.1700   12.0830 C.3    86  LEU86       0.0022
     22  CD1      255.1510  110.9300   10.7580 C.3    86  LEU86       0.0001
     23  CD2      255.4250  110.8900   13.2260 C.3    86  LEU86       0.0001
     24  N        249.0960  114.7230    8.8980 N.3    89  ARG89      -0.1245
     25  CA       248.3940  113.5340    8.4280 C.3    89  ARG89       0.1563
     26  C        247.4580  112.9490    9.4950 C.2    89  ARG89       0.2260
     27  O        246.2960  112.6510    9.2180 O.2    89  ARG89      -0.2867
     28  CB       249.3970  112.4700    7.9850 C.3    89  ARG89       0.0307
     29  CG       249.4770  112.2570    6.4850 C.3    89  ARG89       0.0489
     30  CD       250.2120  113.3740    5.7750 C.3    89  ARG89       0.2205
     31  NE       250.7350  112.9100    4.4930 N.pl3  89  ARG89      -0.0865
     32  CZ       250.0530  112.9330    3.3570 C.cat  89  ARG89       0.5346
     33  NH1      248.8160  113.4080    3.3370 N.pl3  89  ARG89       0.1354
     34  NH2      250.6090  112.4840    2.2390 N.pl3  89  ARG89       0.1354
     35  N        257.2320  101.2340    7.9090 N.3   314  ILE314     -0.1245
     36  CA       257.4450  102.6680    7.7470 C.3   314  ILE314      0.1561
     37  C        258.6760  102.9860    6.9080 C.2   314  ILE314      0.2260
     38  O        258.6100  103.7760    5.9730 O.2   314  ILE314     -0.2867
     39  CB       257.5830  103.3670    9.1000 C.3   314  ILE314      0.0252
     40  CG1      256.2360  103.4070    9.8180 C.3   314  ILE314      0.0019
     41  CG2      258.1140  104.7770    8.9200 C.3   314  ILE314      0.0019
     42  CD1      256.2890  104.1400   11.1370 C.3   314  ILE314      0.0001
     43  N        258.5470   99.7100    3.3790 N.3   317  TYR317     -0.1227
     44  CA       257.3010   99.4870    2.6570 C.3   317  TYR317      0.1736
     45  C        256.7190  100.8110    2.1820 C.2   317  TYR317      0.2595
     46  O        256.5560  101.0480    0.9800 O.2   317  TYR317     -0.2718
     47  CB       256.3270   98.7350    3.5590 C.3   317  TYR317      0.0548
     48  CG       254.9270   98.5160    3.0390 C.ar  317  TYR317     -0.0200
     49  CD1      253.9340   99.4690    3.2360 C.ar  317  TYR317     -0.0009
     50  CD2      254.5760   97.3240    2.4200 C.ar  317  TYR317     -0.0009
     51  CE1      252.6410   99.2600    2.7910 C.ar  317  TYR317      0.0417
     52  CE2      253.2800   97.1040    1.9730 C.ar  317  TYR317      0.0417
     53  CZ       252.3190   98.0760    2.1610 C.ar  317  TYR317      0.1957
     54  OH       251.0350   97.8660    1.7190 O.3   317  TYR317     -0.2866
     55  N        256.4250  101.6920    3.1240 N.am  318  VAL318     -0.1980
     56  CA       255.8170  102.9630    2.7720 C.3   318  VAL318      0.1595
     57  C        256.7740  103.7980    1.9310 C.2   318  VAL318      0.2287
     58  O        256.3520  104.5940    1.1000 O.2   318  VAL318     -0.2864
     59  CB       255.3970  103.7390    4.0190 C.3   318  VAL318      0.0276
     60  CG1      254.7850  105.0170    3.6190 C.3   318  VAL318      0.0022
     61  CG2      254.3860  102.9380    4.8140 C.3   318  VAL318      0.0022
     62  N        256.5320  102.6220   -1.5020 N.3   321  LEU321     -0.1231
     63  CA       255.1810  103.0030   -1.8860 C.3   321  LEU321      0.1693
     64  C        255.1070  104.4460   -2.3610 C.2   321  LEU321      0.2592
     65  O        254.5200  104.7480   -3.3950 O.2   321  LEU321     -0.2718
     66  CB       254.2360  102.7980   -0.7040 C.3   321  LEU321      0.0284
     67  CG       252.7410  102.9290   -0.9520 C.3   321  LEU321      0.0019
     68  CD1      252.2700  101.8270   -1.8820 C.3   321  LEU321      0.0001
     69  CD2      252.0000  102.8710    0.3620 C.3   321  LEU321      0.0001
     70  N        255.7230  105.3350   -1.6020 N.am  322  SER322     -0.1952
     71  CA       255.5770  106.7580   -1.8460 C.3   322  SER322      0.1924
     72  C        256.5480  107.2760   -2.8990 C.2   322  SER322      0.2314
     73  O        256.2260  108.2030   -3.6330 O.2   322  SER322     -0.2863
     74  CB       255.7670  107.5220   -0.5420 C.3   322  SER322      0.2116
     75  OG       257.0550  107.2780   -0.0150 O.3   322  SER322     -0.2180
     76  N        259.2160  108.8430   -2.2840 N.3   324  TYR324     -0.1241
     77  CA       259.7420  110.1140   -1.8000 C.3   324  TYR324      0.1605
     78  C        261.2540  110.1080   -1.7280 C.2   324  TYR324      0.2264
     79  O        261.8580  109.0740   -1.4460 O.2   324  TYR324     -0.2867
     80  CB       259.1770  110.4330   -0.4180 C.3   324  TYR324      0.0534
     81  CG       257.7000  110.7230   -0.3980 C.ar  324  TYR324     -0.0201
     82  CD1      257.0110  111.0150   -1.5670 C.ar  324  TYR324     -0.0009
     83  CD2      256.9950  110.7210    0.7960 C.ar  324  TYR324     -0.0009
     84  CE1      255.6570  111.2860   -1.5470 C.ar  324  TYR324      0.0417
     85  CE2      255.6440  110.9910    0.8260 C.ar  324  TYR324      0.0417
     86  CZ       254.9780  111.2710   -0.3450 C.ar  324  TYR324      0.1957
     87  OH       253.6290  111.5410   -0.3080 O.3   324  TYR324     -0.2866
     88  N        261.9710  108.3500    5.0100 N.3   328  LEU328     -0.1231
     89  CA       261.0490  108.2320    6.1350 C.3   328  LEU328      0.1693
     90  C        261.7120  107.5340    7.3140 C.2   328  LEU328      0.2591
     91  O        262.6180  106.7280    7.1410 O.2   328  LEU328     -0.2718
     92  CB       259.7870  107.4800    5.7190 C.3   328  LEU328      0.0284
     93  CG       259.0210  108.1110    4.5630 C.3   328  LEU328      0.0019
     94  CD1      257.7660  107.3210    4.2730 C.3   328  LEU328      0.0001
     95  CD2      258.6910  109.5540    4.8920 C.3   328  LEU328      0.0001
     96  N        261.2490  107.8500    8.5140 N.am  329  LYS329     -0.1980
     97  CA       261.8760  107.3410    9.7210 C.3   329  LYS329      0.1596
     98  C        260.8430  106.9540   10.7620 C.2   329  LYS329      0.2287
     99  O        259.8500  107.6550   10.9780 O.2   329  LYS329     -0.2864
    100  CB       262.8290  108.3810   10.3040 C.3   329  LYS329      0.0298
    101  CG       263.5900  107.9300   11.5340 C.3   329  LYS329      0.0038
    102  CD       264.2690  109.1240   12.1950 C.3   329  LYS329      0.0206
    103  CE       264.9400  108.7470   13.5060 C.3   329  LYS329      0.1093
    104  NZ       265.5220  109.9390   14.1950 N.3   329  LYS329     -0.1314
    105  N        239.2000  102.5590    4.6860 N.3   350  PHE350     -0.1241
    106  CA       240.5790  102.1150    4.6190 C.3   350  PHE350      0.1605
    107  C        240.6310  100.7140    4.0290 C.2   350  PHE350      0.2264
    108  O        241.4950  100.3920    3.2160 O.2   350  PHE350     -0.2867
    109  CB       241.2170  102.1430    6.0030 C.3   350  PHE350      0.0534
    110  CG       242.6950  101.9590    5.9850 C.ar  350  PHE350     -0.0203
    111  CD1      243.4410  102.3980    4.9080 C.ar  350  PHE350     -0.0042
    112  CD2      243.3400  101.3300    7.0350 C.ar  350  PHE350     -0.0042
    113  CE1      244.8060  102.2360    4.8880 C.ar  350  PHE350     -0.0003
    114  CE2      244.7090  101.1620    7.0140 C.ar  350  PHE350     -0.0003
    115  CZ       245.4400  101.6170    5.9380 C.ar  350  PHE350     -0.0000
    116  N        239.9020  101.0510    0.2560 N.3   353  LEU353     -0.1231
    117  CA       241.0450  101.6950   -0.3600 C.3   353  LEU353      0.1693
    118  C        242.1860  100.7210   -0.6190 C.2   353  LEU353      0.2592
    119  O        242.8710  100.8140   -1.6350 O.2   353  LEU353     -0.2718
    120  CB       241.5130  102.8380    0.5410 C.3   353  LEU353      0.0284
    121  CG       242.6930  103.7220    0.1750 C.3   353  LEU353      0.0019
    122  CD1      242.4280  105.1180    0.7080 C.3   353  LEU353      0.0001
    123  CD2      243.9820  103.1670    0.7650 C.3   353  LEU353      0.0001
    124  N        242.3760   99.7810    0.2980 N.am  354  TYR354     -0.1976
    125  CA       243.5680   98.9380    0.2970 C.3   354  TYR354      0.1639
    126  C        243.3860   97.6670   -0.5080 C.2   354  TYR354      0.2290
    127  O        244.0570   96.6640   -0.2640 O.2   354  TYR354     -0.2864
    128  CB       243.9670   98.5900    1.7320 C.3   354  TYR354      0.0560
    129  CG       245.4420   98.7720    2.0230 C.ar  354  TYR354     -0.0198
    130  CD1      246.4060   98.1940    1.2160 C.ar  354  TYR354     -0.0009
    131  CD2      245.8660   99.5390    3.0990 C.ar  354  TYR354     -0.0009
    132  CE1      247.7490   98.3580    1.4840 C.ar  354  TYR354      0.0417
    133  CE2      247.2040   99.7160    3.3710 C.ar  354  TYR354      0.0417
    134  CZ       248.1450   99.1250    2.5600 C.ar  354  TYR354      0.1957
    135  OH       249.4860   99.2990    2.8310 O.3   354  TYR354     -0.2866
    136  N        244.4360   96.2600   -3.4590 N.3   356  TRP356     -0.1241
    137  CA       245.4620   96.5110   -4.4620 C.3   356  TRP356      0.1605
    138  C        245.7240   95.3080   -5.3560 C.2   356  TRP356      0.2264
    139  O        246.8710   94.9900   -5.6670 O.2   356  TRP356     -0.2867
    140  CB       246.7560   96.9400   -3.7760 C.3   356  TRP356      0.0550
    141  CG       246.6420   98.2360   -3.0340 C.ar  356  TRP356      0.0003
    142  CD1      245.5620   99.0710   -2.9940 C.ar  356  TRP356      0.0946
    143  CD2      247.6480   98.8430   -2.2230 C.ar  356  TRP356      0.0152
    144  NE1      245.8390  100.1650   -2.2140 N.ar  356  TRP356     -0.2442
    145  CE2      247.1140  100.0450   -1.7280 C.ar  356  TRP356      0.0810
    146  CE3      248.9530   98.4900   -1.8720 C.ar  356  TRP356      0.0012
    147  CZ2      247.8300  100.8840   -0.9020 C.ar  356  TRP356      0.0191
    148  CZ3      249.6670   99.3350   -1.0520 C.ar  356  TRP356      0.0001
    149  CH2      249.1060  100.5190   -0.5780 C.ar  356  TRP356      0.0015
    150  N        249.9860  105.0130   -8.1600 N.3   487  PHE487     -0.1241
    151  CA       248.5860  105.4330   -8.1480 C.3   487  PHE487      0.1605
    152  C        248.4590  106.9420   -8.0410 C.2   487  PHE487      0.2264
    153  O        249.4560  107.6600   -8.0240 O.2   487  PHE487     -0.2867
    154  CB       247.7970  104.7670   -7.0120 C.3   487  PHE487      0.0534
    155  CG       248.5880  104.5380   -5.7580 C.ar  487  PHE487     -0.0203
    156  CD1      249.2980  105.5640   -5.1700 C.ar  487  PHE487     -0.0042
    157  CD2      248.5970  103.2940   -5.1530 C.ar  487  PHE487     -0.0042
    158  CE1      250.0160  105.3480   -4.0230 C.ar  487  PHE487     -0.0003
    159  CE2      249.3070  103.0800   -4.0030 C.ar  487  PHE487     -0.0003
    160  CZ       250.0220  104.1070   -3.4410 C.ar  487  PHE487     -0.0000
    161  N        244.5750  108.0680   -3.6050 N.3   491  MET491     -0.1230
    162  CA       245.0950  106.8730   -2.9420 C.3   491  MET491      0.1702
    163  C        246.1500  107.2360   -1.8930 C.2   491  MET491      0.2592
    164  O        246.1710  106.6610   -0.7940 O.2   491  MET491     -0.2718
    165  CB       245.6770  105.9010   -3.9590 C.3   491  MET491      0.0401
    166  CG       245.9870  104.5460   -3.3740 C.3   491  MET491      0.0596
    167  SD       244.4930  103.6210   -3.0000 S.3   491  MET491     -0.1393
    168  CE       243.7820  103.5030   -4.6320 C.3   491  MET491      0.0692
    169  N        246.9290  108.2730   -2.1660 N.am  492  ILE492     -0.1980
    170  CA       247.8900  108.7820   -1.1930 C.3   492  ILE492      0.1595
    171  C        247.2780  109.6220   -0.0720 C.2   492  ILE492      0.2287
    172  O        247.5590  109.3910    1.0950 O.2   492  ILE492     -0.2864
    173  CB       248.9580  109.6330   -1.8800 C.3   492  ILE492      0.0276
    174  CG1      249.8730  108.7420   -2.7140 C.3   492  ILE492      0.0022
    175  CG2      249.7840  110.3810   -0.8470 C.3   492  ILE492      0.0022
    176  CD1      250.7980  107.8950   -1.8780 C.3   492  ILE492      0.0001
    177  N        244.9480  107.3320    1.8950 N.3   495  GLY495     -0.1210
    178  CA       245.6560  106.1570    2.3810 C.3   495  GLY495      0.1956
    179  C        246.6590  106.4560    3.4790 C.2   495  GLY495      0.2611
    180  O        246.7580  105.7200    4.4630 O.2   495  GLY495     -0.2717
    181  N        247.4010  107.5440    3.3040 N.am  496  ALA496     -0.1979
    182  CA       248.4290  107.9580    4.2550 C.3   496  ALA496      0.1597
    183  C        247.9230  108.1380    5.6820 C.2   496  ALA496      0.2287
    184  O        248.5040  107.5690    6.5980 O.2   496  ALA496     -0.2864
    185  CB       249.1070  109.2440    3.7800 C.3   496  ALA496      0.0319
    186  N        247.0290  104.7580    7.3900 N.3   499  SER499     -0.1202
    187  CA       248.2260  103.9480    7.5550 C.3   499  SER499      0.2020
    188  C        249.0620  104.4720    8.7200 C.2   499  SER499      0.2618
    189  O        249.4590  103.7280    9.6170 O.2   499  SER499     -0.2717
    190  CB       249.0210  103.9560    6.2440 C.3   499  SER499      0.2103
    191  OG       250.2510  103.2810    6.3650 O.3   499  SER499     -0.2182
    192  N        249.3010  105.7730    8.6840 N.am  500  LEU500     -0.1979
    193  CA       250.0040  106.5040    9.7220 C.3   500  LEU500      0.1596
    194  C        249.4360  106.1840   11.0920 C.2   500  LEU500      0.2287
    195  O        250.1540  105.7510   11.9990 O.2   500  LEU500     -0.2864
    196  CB       249.9000  108.0070    9.4240 C.3   500  LEU500      0.0297
    197  CG       250.4710  109.1570   10.2620 C.3   500  LEU500      0.0022
    198  CD1      249.8580  109.2610   11.6440 C.3   500  LEU500      0.0001
    199  CD2      251.9640  109.0630   10.3670 C.3   500  LEU500      0.0001
    200  N        250.0340  102.6800   12.2850 N.3   503  LEU503     -0.1231
    201  CA       251.3900  102.3610   12.7120 C.3   503  LEU503      0.1693
    202  C        251.7260  103.0090   14.0460 C.2   503  LEU503      0.2591
    203  O        252.1080  102.3330   15.0020 O.2   503  LEU503     -0.2718
    204  CB       252.4070  102.8020   11.6610 C.3   503  LEU503      0.0284
    205  CG       252.7430  101.9000   10.4710 C.3   503  LEU503      0.0019
    206  CD1      252.1360  100.5160   10.6000 C.3   503  LEU503      0.0001
    207  CD2      252.3300  102.5560    9.1800 C.3   503  LEU503      0.0001
    208  N        251.5780  104.3280   14.1060 N.am  504  LEU504     -0.1980
    209  CA       252.0350  105.0950   15.2620 C.3   504  LEU504      0.1596
    210  C        251.0450  105.0830   16.4110 C.2   504  LEU504      0.2287
    211  O        251.3990  105.3980   17.5390 O.2   504  LEU504     -0.2864
    212  CB       252.3230  106.5430   14.8630 C.3   504  LEU504      0.0297
    213  CG       253.6900  106.8660   14.2600 C.3   504  LEU504      0.0022
    214  CD1      254.8010  106.4130   15.1880 C.3   504  LEU504      0.0001
    215  CD2      253.8430  106.2480   12.8860 C.3   504  LEU504      0.0001
@<TRIPOS>BOND
     1   150   151    1
     2   151   152    1
     3   151   154    1
     4   152   153    2
     5   154   155    1
     6   155   156   ar
     7   155   157   ar
     8   139   138    2
     9   138   137    1
    10   156   158   ar
    11   157   159   ar
    12   168   167    1
    13   137   140    1
    14   137   136    1
    15   158   160   ar
    16   159   160   ar
    17   165   166    1
    18   165   162    1
    19   140   141    1
    20    73    72    2
    21   161   162    1
    22    65    64    2
    23   166   167    1
    24   141   142   ar
    25   141   143   ar
    26   142   144   ar
    27   162   163    1
    28    72    71    1
    29   174   173    1
    30   174   176    1
    31    64    63    1
    32    64    70   am
    33    76    77    1
    34   143   146   ar
    35   143   145   ar
    36   144   145   ar
    37   169   163   am
    38   169   170    1
    39   163   164    2
    40    63    62    1
    41    63    66    1
    42    68    67    1
    43   173   170    1
    44   173   175    1
    45   146   148   ar
    46    71    70    1
    47    71    74    1
    48    77    78    1
    49    77    80    1
    50    78    79    2
    51   145   147   ar
    52   119   118    2
    53    82    84   ar
    54    82    81   ar
    55    84    86   ar
    56   170   171    1
    57   148   149   ar
    58    67    66    1
    59    67    69    1
    60   147   149   ar
    61   118   117    1
    62   118   124   am
    63    74    75    1
    64   126   127    2
    65   126   125    1
    66    80    81    1
    67    81    83   ar
    68   117   116    1
    69   117   120    1
    70    86    87    1
    71    86    85   ar
    72   171   172    2
    73   121   120    1
    74   121   122    1
    75   121   123    1
    76   125   124    1
    77   125   128    1
    78    83    85   ar
    79    46    45    2
    80    58    57    2
    81   130   132   ar
    82   130   129   ar
    83   132   134   ar
    84    54    53    1
    85   128   129    1
    86   177   178    1
    87    57    56    1
    88    52    53   ar
    89    52    50   ar
    90   129   131   ar
    91    53    51   ar
    92    45    44    1
    93    45    55   am
    94    34    32    1
    95   178   179    1
    96    50    48   ar
    97   134   135    1
    98   134   133   ar
    99    44    43    1
   100    44    47    1
   101    56    55    1
   102    56    59    1
   103    51    49   ar
   104    48    49   ar
   105    48    47    1
   106   131   133   ar
   107   108   107    2
   108   181   179   am
   109   181   182    1
   110    33    32    1
   111    32    31    2
   112   179   180    2
   113    60    59    1
   114   185   182    1
   115    59    61    1
   116   107   106    1
   117   182   183    1
   118    94    93    1
   119    31    30    1
   120    93    95    1
   121    93    92    1
   122   106   105    1
   123   106   109    1
   124   113   111   ar
   125   113   115   ar
   126   111   110   ar
   127    88    89    1
   128   183   184    2
   129    92    89    1
   130    30    29    1
   131   115   114   ar
   132    38    37    2
   133   110   109    1
   134   110   112   ar
   135    89    90    1
   136   190   191    1
   137   190   187    1
   138    15    13    1
   139    29    28    1
   140    14    13    1
   141    37    36    1
   142   114   112   ar
   143    91    90    2
   144    13    10    1
   145    90    96   am
   146   186   187    1
   147   187   188    1
   148    36    35    1
   149    36    39    1
   150    28    25    1
   151    10     9    1
   152    10    11    1
   153     7     8    1
   154     7     6    1
   155    25    24    1
   156    25    26    1
   157    96    97    1
   158   192   188   am
   159   192   193    1
   160   188   189    2
   161    12    11    2
   162    41    39    1
   163    11    16   am
   164     1     2    1
   165    39    40    1
   166   207   205    1
   167    27    26    2
   168     2     5    1
   169     2     3    1
   170   196   193    1
   171   196   197    1
   172    97   100    1
   173    97    98    1
   174   193   194    1
   175    40    42    1
   176     5     6    1
   177    16    17    1
   178   197   199    1
   179   197   198    1
   180   100   101    1
   181     4     3    2
   182   205   206    1
   183   205   204    1
   184    22    21    1
   185    98    99    2
   186    17    18    1
   187    17    20    1
   188   194   195    2
   189   101   102    1
   190    19    18    2
   191   204   201    1
   192    21    20    1
   193    21    23    1
   194   102   103    1
   195   200   201    1
   196   201   202    1
   197   215   213    1
   198   103   104    1
   199   202   208   am
   200   202   203    2
   201   208   209    1
   202   213   212    1
   203   213   214    1
   204   212   209    1
   205   209   210    1
   206   210   211    2
