@<TRIPOS>MOLECULE
tmp/4o29A00.pdb
 199 195 0 0 0
SMALL
GASTEIGER

@<TRIPOS>ATOM
      1  N         35.4230   30.5900   50.9570 N.3    53  ALA53      -0.1231
      2  CA        34.1110   31.0150   51.4720 C.3    53  ALA53       0.1694
      3  C         33.3160   32.0550   50.6610 C.2    53  ALA53       0.2593
      4  O         32.4940   32.7960   51.2200 O.2    53  ALA53      -0.2718
      5  CB        34.1880   31.3890   52.9490 C.3    53  ALA53       0.0304
      6  N         33.5210   32.0620   49.3470 N.am   54  GLY54      -0.1942
      7  CA        32.8230   32.9780   48.4450 C.3    54  GLY54       0.2014
      8  C         33.5170   34.3110   48.2450 C.2    54  GLY54       0.2639
      9  O         33.1790   35.0690   47.3330 O.2    54  GLY54      -0.2714
     10  N         34.5090   34.5930   49.1000 N.am   55  ALA55      -0.1963
     11  CA        35.3170   35.8000   49.0220 C.3    55  ALA55       0.1728
     12  C         36.1770   35.7460   47.7640 C.2    55  ALA55       0.2617
     13  O         36.4480   34.6640   47.2360 O.2    55  ALA55      -0.2715
     14  CB        36.2100   35.9010   50.2440 C.3    55  ALA55       0.0334
     15  N         36.5640   36.9180   47.2710 N.am   56  THR56      -0.1937
     16  CA        37.4550   37.1150   46.1360 C.3    56  THR56       0.2028
     17  C         38.2110   38.3960   46.4180 C.2    56  THR56       0.2642
     18  O         37.5870   39.4090   46.7500 O.2    56  THR56      -0.2714
     19  CB        36.7170   37.1890   44.7860 C.3    56  THR56       0.1808
     20  OG1       35.4340   37.7880   44.9560 O.3    56  THR56      -0.2208
     21  CG2       36.5830   35.8400   44.1180 C.3    56  THR56       0.0379
     22  N         39.5520   38.3450   46.3400 N.am   57  ILE57      -0.1963
     23  CA        40.3970   39.5190   46.5570 C.3    57  ILE57       0.1727
     24  C         40.0660   40.4750   45.4140 C.2    57  ILE57       0.2616
     25  O         40.2900   40.1460   44.2440 O.2    57  ILE57      -0.2715
     26  CB        41.9120   39.1930   46.6240 C.3    57  ILE57       0.0290
     27  CG1       42.2140   37.9440   47.4840 C.3    57  ILE57       0.0022
     28  CG2       42.7160   40.3990   47.1130 C.3    57  ILE57       0.0023
     29  CD1       42.5550   36.6970   46.6950 C.3    57  ILE57       0.0001
     30  N         39.4230   41.5930   45.7580 N.am   58  SER58      -0.1950
     31  CA        38.9720   42.5920   44.8010 C.3    58  SER58       0.1924
     32  C         40.1120   43.0710   43.9220 C.2    58  SER58       0.2314
     33  O         41.1730   43.4170   44.4420 O.2    58  SER58      -0.2863
     34  CB        38.3210   43.7610   45.5290 C.3    58  SER58       0.2116
     35  OG        37.0600   43.3910   46.0630 O.3    58  SER58      -0.2180
     36  N         35.6100   49.6050   56.4260 N.3    80  GLU80      -0.1231
     37  CA        35.5650   48.7290   55.2700 C.3    80  GLU80       0.1699
     38  C         34.5890   47.5930   55.5290 C.2    80  GLU80       0.2592
     39  O         34.7750   46.7950   56.4480 O.2    80  GLU80      -0.2718
     40  CB        36.9450   48.2040   54.8660 C.3    80  GLU80       0.0402
     41  CG        36.9070   47.5000   53.5170 C.3    80  GLU80       0.1161
     42  CD        37.7810   46.2780   53.3030 C.2    80  GLU80       0.3649
     43  OE1       38.4110   45.7870   54.2680 O.co2  80  GLU80      -0.2457
     44  OE2       37.7970   45.7810   52.1560 O.co2  80  GLU80      -0.2457
     45  N         33.5290   47.5430   54.7320 N.am   81  VAL81      -0.1966
     46  CA        32.5120   46.5050   54.8530 C.3    81  VAL81       0.1727
     47  C         32.9180   45.3070   53.9950 C.2    81  VAL81       0.2617
     48  O         33.0930   45.4320   52.7780 O.2    81  VAL81      -0.2715
     49  CB        31.0890   47.0340   54.5250 C.3    81  VAL81       0.0290
     50  CG1       30.0810   45.8980   54.3470 C.3    81  VAL81       0.0023
     51  CG2       30.6100   48.0210   55.5860 C.3    81  VAL81       0.0023
     52  N         33.0600   44.1580   54.6450 N.am   82  GLY82      -0.1940
     53  CA        33.4300   42.9280   53.9650 C.3    82  GLY82       0.2014
     54  C         34.9150   42.8510   53.7370 C.2    82  GLY82       0.2640
     55  O         35.3800   42.9400   52.5990 O.2    82  GLY82      -0.2714
     56  N         35.6540   42.6560   54.8310 N.am   83  THR83      -0.1936
     57  CA        37.1140   42.5650   54.8900 C.3    83  THR83       0.2028
     58  C         37.6970   41.5980   53.8600 C.2    83  THR83       0.2643
     59  O         38.5360   42.0050   53.0600 O.2    83  THR83      -0.2714
     60  CB        37.5680   42.2140   56.3200 C.3    83  THR83       0.1808
     61  OG1       36.8150   42.9670   57.2730 O.3    83  THR83      -0.2208
     62  CG2       39.0410   42.4640   56.5480 C.3    83  THR83       0.0379
     63  N         37.2430   40.3460   53.8950 N.am   84  GLY84      -0.1939
     64  CA        37.7350   39.2840   53.0260 C.3    84  GLY84       0.2014
     65  C         39.1930   39.0210   53.3240 C.2    84  GLY84       0.2640
     66  O         39.5360   38.6140   54.4350 O.2    84  GLY84      -0.2714
     67  N         40.0640   39.3020   52.3600 N.am   85  SER85      -0.1935
     68  CA        41.4960   39.1310   52.5630 C.3    85  SER85       0.2055
     69  C         42.0800   40.2590   53.4130 C.2    85  SER85       0.2644
     70  O         43.1180   40.0610   54.0350 O.2    85  SER85      -0.2714
     71  CB        42.2300   39.0650   51.2230 C.3    85  SER85       0.2130
     72  OG        42.1760   40.3050   50.5350 O.3    85  SER85      -0.2179
     73  N         41.4500   41.4300   53.3920 N.am   86  GLY86      -0.1939
     74  CA        41.9520   42.6130   54.0790 C.3    86  GLY86       0.2014
     75  C         42.9370   43.3820   53.2240 C.2    86  GLY86       0.2639
     76  O         43.5640   44.3210   53.7250 O.2    86  GLY86      -0.2714
     77  N         43.0850   42.9990   51.9210 N.am   87  TYR87      -0.1959
     78  CA        43.9840   43.6810   50.9890 C.3    87  TYR87       0.1771
     79  C         43.5700   45.1240   50.8270 C.2    87  TYR87       0.2619
     80  O         44.4330   45.9950   50.8980 O.2    87  TYR87      -0.2715
     81  CB        44.0620   42.9710   49.6210 C.3    87  TYR87       0.0574
     82  CG        44.6710   43.8040   48.5120 C.ar   87  TYR87      -0.0198
     83  CD1       46.0310   44.1090   48.5060 C.ar   87  TYR87      -0.0009
     84  CD2       43.8930   44.2710   47.4570 C.ar   87  TYR87      -0.0009
     85  CE1       46.5970   44.8730   47.4850 C.ar   87  TYR87       0.0417
     86  CE2       44.4490   45.0310   46.4270 C.ar   87  TYR87       0.0417
     87  CZ        45.8030   45.3290   46.4450 C.ar   87  TYR87       0.1957
     88  OH        46.3580   46.0630   45.4230 O.3    87  TYR87      -0.2866
     89  N         42.2610   45.3880   50.6350 N.am   88  HIS88      -0.1973
     90  CA        41.7490   46.7440   50.4830 C.3    88  HIS88       0.1656
     91  C         42.0860   47.5690   51.7080 C.2    88  HIS88       0.2291
     92  O         42.4560   48.7340   51.5670 O.2    88  HIS88      -0.2864
     93  CB        40.2330   46.7230   50.2640 C.3    88  HIS88       0.0771
     94  CG        39.6810   47.9250   49.5510 C.ar   88  HIS88       0.0820
     95  ND1       39.9900   49.2190   49.9490 N.ar   88  HIS88      -0.2267
     96  CD2       38.8070   47.9860   48.5200 C.ar   88  HIS88       0.1154
     97  CE1       39.3260   50.0150   49.1270 C.ar   88  HIS88       0.1986
     98  NE2       38.5930   49.3200   48.2580 N.ar   88  HIS88      -0.2212
     99  N         34.7970   45.2190   59.0860 N.3   105  ILE105     -0.1231
    100  CA        33.8490   44.1650   59.4720 C.3   105  ILE105      0.1692
    101  C         33.7110   43.0340   58.4220 C.2   105  ILE105      0.2592
    102  O         33.6700   43.3100   57.2210 O.2   105  ILE105     -0.2718
    103  CB        32.4960   44.7660   59.9710 C.3   105  ILE105      0.0266
    104  CG1       31.6250   43.7340   60.7020 C.3   105  ILE105      0.0019
    105  CG2       31.7220   45.5160   58.8700 C.3   105  ILE105      0.0020
    106  CD1       30.7300   44.3060   61.8180 C.3   105  ILE105      0.0001
    107  N         33.6210   41.7630   58.8930 N.am  106  GLU106     -0.1966
    108  CA        33.5150   40.5410   58.0730 C.3   106  GLU106      0.1733
    109  C         32.5300   39.5020   58.6680 C.2   106  GLU106      0.2616
    110  O         32.6810   39.0770   59.8170 O.2   106  GLU106     -0.2715
    111  CB        34.9290   39.9440   57.8520 C.3   106  GLU106      0.0429
    112  CG        34.9980   38.5590   57.2300 C.3   106  GLU106      0.1163
    113  CD        34.3600   38.4320   55.8620 C.2   106  GLU106      0.3649
    114  OE1       34.9210   38.9930   54.8940 O.co2 106  GLU106     -0.2457
    115  OE2       33.3100   37.7560   55.7560 O.co2 106  GLU106     -0.2457
    116  N         31.5350   39.0910   57.8630 N.am  107  ILE107     -0.1963
    117  CA        30.5230   38.1260   58.2870 C.3   107  ILE107      0.1727
    118  C         31.1160   36.7650   58.6330 C.2   107  ILE107      0.2616
    119  O         30.6830   36.1370   59.5960 O.2   107  ILE107     -0.2715
    120  CB        29.3130   38.0720   57.3130 C.3   107  ILE107      0.0290
    121  CG1       28.0280   37.5600   58.0240 C.3   107  ILE107      0.0022
    122  CG2       29.6080   37.3160   55.9930 C.3   107  ILE107      0.0023
    123  CD1       26.7040   38.1640   57.5170 C.3   107  ILE107      0.0001
    124  N         32.1230   36.3330   57.8730 N.am  108  VAL108     -0.1977
    125  CA        32.7640   35.0520   58.1170 C.3   108  VAL108      0.1596
    126  C         33.8750   35.1510   59.1340 C.2   108  VAL108      0.2287
    127  O         34.8740   35.8510   58.9400 O.2   108  VAL108     -0.2864
    128  CB        33.1820   34.2830   56.8470 C.3   108  VAL108      0.0276
    129  CG1       33.6960   32.8840   57.1880 C.3   108  VAL108      0.0022
    130  CG2       32.0280   34.1930   55.8550 C.3   108  VAL108      0.0022
    131  N         37.1290   34.0180   57.5750 N.3   111  LEU111     -0.1245
    132  CA        37.7000   35.0690   56.7470 C.3   111  LEU111      0.1561
    133  C         38.3580   36.1620   57.5820 C.2   111  LEU111      0.2260
    134  O         39.4930   36.5580   57.2900 O.2   111  LEU111     -0.2867
    135  CB        36.6780   35.6040   55.7570 C.3   111  LEU111      0.0270
    136  CG        36.5290   34.7070   54.5110 C.3   111  LEU111      0.0019
    137  CD1       35.2230   34.9540   53.8000 C.3   111  LEU111      0.0001
    138  CD2       37.7200   34.8440   53.5580 C.3   111  LEU111      0.0001
    139  N         31.3440   40.2750   62.1450 N.3   133  GLY133     -0.1210
    140  CA        29.9540   40.7030   62.2520 C.3   133  GLY133      0.1956
    141  C         29.2470   41.1190   60.9730 C.2   133  GLY133      0.2612
    142  O         29.7450   40.8640   59.8740 O.2   133  GLY133     -0.2717
    143  N         28.0780   41.7900   61.1170 N.am  134  ASP134     -0.1959
    144  CA        27.2590   42.2350   59.9920 C.3   134  ASP134      0.1840
    145  C         27.6170   43.5780   59.3820 C.2   134  ASP134      0.2622
    146  O         27.6720   44.6130   60.0540 O.2   134  ASP134     -0.2715
    147  CB        25.7610   42.1270   60.2900 C.3   134  ASP134      0.1450
    148  CG        24.9050   41.7170   59.1120 C.2   134  ASP134      0.3671
    149  OD1       25.0680   42.3040   58.0240 O.co2 134  ASP134     -0.2456
    150  OD2       24.0300   40.8540   59.2940 O.co2 134  ASP134     -0.2456
    151  N         27.8280   43.5300   58.0780 N.am  135  GLY135     -0.1954
    152  CA        28.1330   44.6950   57.2650 C.3   135  GLY135      0.1869
    153  C         27.0000   45.7020   57.2550 C.2   135  GLY135      0.2309
    154  O         27.2510   46.9050   57.3290 O.2   135  GLY135     -0.2863
    155  N         32.7930   46.6970   50.1830 N.3   151  THR151     -0.1203
    156  CA        33.3960   45.7710   49.2290 C.3   151  THR151      0.1994
    157  C         32.5160   44.5380   48.9620 C.2   151  THR151      0.2617
    158  O         33.0170   43.4130   48.8730 O.2   151  THR151     -0.2717
    159  CB        34.8480   45.4610   49.5860 C.3   151  THR151      0.1784
    160  OG1       34.8870   44.7210   50.8050 O.3   151  THR151     -0.2211
    161  CG2       35.7030   46.7060   49.6840 C.3   151  THR151      0.0376
    162  N         31.1990   44.7570   48.8330 N.am  152  ALA152     -0.1979
    163  CA        30.1620   43.7600   48.5540 C.3   152  ALA152      0.1597
    164  C         28.9480   44.4970   47.9890 C.2   152  ALA152      0.2287
    165  O         28.7550   45.6650   48.3080 O.2   152  ALA152     -0.2864
    166  CB        29.7810   43.0050   49.8250 C.3   152  ALA152      0.0319
    167  N         30.7160   40.6380   44.5640 N.3   204  VAL204     -0.1231
    168  CA        30.0300   39.5650   45.2930 C.3   204  VAL204      0.1678
    169  C         28.9120   40.1900   46.1240 C.2   204  VAL204      0.2434
    170  O         29.1100   41.2850   46.6490 O.2   204  VAL204     -0.2733
    171  CB        30.9800   38.7360   46.1880 C.3   204  VAL204      0.0265
    172  CG1       31.5900   37.5720   45.4190 C.3   204  VAL204      0.0020
    173  CG2       32.0660   39.5990   46.8310 C.3   204  VAL204      0.0020
    174  N         27.7220   39.5720   46.2190 N.am  205  PRO205     -0.2718
    175  CA        26.6330   40.2170   46.9650 C.3   205  PRO205      0.1535
    176  C         26.8490   40.3300   48.4730 C.2   205  PRO205      0.2598
    177  O         27.5790   39.5390   49.0630 O.2   205  PRO205     -0.2715
    178  CB        25.4330   39.3270   46.6440 C.3   205  PRO205      0.0310
    179  CG        26.0270   37.9860   46.4680 C.3   205  PRO205      0.0237
    180  CD        27.2750   38.2750   45.6670 C.3   205  PRO205      0.0939
    181  N         26.1780   41.3060   49.0960 N.am  206  LEU206     -0.1964
    182  CA        26.2270   41.5290   50.5380 C.3   206  LEU206      0.1728
    183  C         25.1780   40.6500   51.2130 C.2   206  LEU206      0.2616
    184  O         24.0610   40.5290   50.6990 O.2   206  LEU206     -0.2715
    185  CB        25.9610   43.0100   50.8380 C.3   206  LEU206      0.0311
    186  CG        26.0360   43.4720   52.2930 C.3   206  LEU206      0.0022
    187  CD1       27.4760   43.6690   52.7370 C.3   206  LEU206      0.0001
    188  CD2       25.2540   44.7510   52.4880 C.3   206  LEU206      0.0001
    189  N         25.5530   40.0140   52.3440 N.am  207  ARG207     -0.1977
    190  CA        24.6670   39.1480   53.1150 C.3   207  ARG207      0.1597
    191  C         23.8240   39.9850   54.0490 C.2   207  ARG207      0.2287
    192  O         22.7470   39.5070   54.4420 O.2   207  ARG207     -0.2864
    193  CB        25.4660   38.1030   53.9050 C.3   207  ARG207      0.0334
    194  CG        25.9300   36.9100   53.0780 C.3   207  ARG207      0.0492
    195  CD        26.7400   35.9590   53.9200 C.3   207  ARG207      0.2205
    196  NE        27.5910   35.1020   53.0960 N.pl3 207  ARG207     -0.0865
    197  CZ        28.4840   34.2450   53.5790 C.cat 207  ARG207      0.5346
    198  NH1       28.6540   34.1200   54.8890 N.pl3 207  ARG207      0.1354
    199  NH2       29.2160   33.5070   52.7550 N.pl3 207  ARG207      0.1354
@<TRIPOS>BOND
     1    32    33    2
     2    32    31    1
     3    21    19    1
     4    25    24    2
     5   167   168    1
     6    19    20    1
     7    19    16    1
     8    31    34    1
     9    31    30    1
    10   168   169    1
    11   168   171    1
    12    24    30   am
    13    24    23    1
    14   172   171    1
    15    88    87    1
    16    34    35    1
    17   180   174    1
    18   180   179    1
    19   169   174   am
    20   169   170    2
    21    16    17    1
    22    16    15    1
    23   171   173    1
    24   174   175    1
    25    22    17   am
    26    22    23    1
    27    17    18    2
    28    86    87   ar
    29    86    84   ar
    30    87    85   ar
    31   179   178    1
    32    23    26    1
    33    26    28    1
    34    26    27    1
    35   178   175    1
    36    29    27    1
    37   175   176    1
    38    13    12    2
    39    15    12   am
    40     9     8    2
    41    84    82   ar
    42    85    83   ar
    43    12    11    1
    44   164   165    2
    45   164   163    1
    46     8     7    1
    47     8    10   am
    48    98    96   ar
    49    98    97   ar
    50     7     6    1
    51   176   177    2
    52   176   181   am
    53    83    82   ar
    54    82    81    1
    55    96    94   ar
    56   163   162    1
    57   163   166    1
    58   162   157   am
    59   158   157    2
    60   157   156    1
    61    11    10    1
    62    11    14    1
    63   181   182    1
    64    97    95   ar
    65   156   159    1
    66   156   155    1
    67     6     3   am
    68    94    95   ar
    69    94    93    1
    70   159   161    1
    71   159   160    1
    72    81    78    1
    73    93    90    1
    74    90    89    1
    75    90    91    1
    76    72    71    1
    77   182   185    1
    78   182   183    1
    79    89    79   am
    80     3     4    2
    81     3     2    1
    82   184   183    2
    83    79    80    2
    84    79    78    1
    85   185   186    1
    86     1     2    1
    87    78    77    1
    88   183   189   am
    89    71    68    1
    90     2     5    1
    91    92    91    2
    92    77    75   am
    93    44    42   ar
    94   186   188    1
    95   186   187    1
    96   189   190    1
    97    67    68    1
    98    67    65   am
    99    68    69    1
   100    55    54    2
   101   199   197    1
   102    48    47    2
   103    64    65    1
   104    64    63    1
   105    59    58    2
   106   194   193    1
   107   194   195    1
   108   196   197    2
   109   196   195    1
   110   190   193    1
   111   190   191    1
   112    75    76    2
   113    75    74    1
   114    42    41    1
   115    42    43   ar
   116    65    66    2
   117    73    69   am
   118    73    74    1
   119    69    70    2
   120    41    40    1
   121   138   136    1
   122   197   198    1
   123    54    53    1
   124    54    56   am
   125   137   136    1
   126    58    63   am
   127    58    57    1
   128    53    52    1
   129    47    52   am
   130    47    46    1
   131   191   192    2
   132    50    49    1
   133   136   135    1
   134    49    46    1
   135    49    51    1
   136    45    46    1
   137    45    38   am
   138    56    57    1
   139    40    37    1
   140    57    60    1
   141   114   113   ar
   142    37    38    1
   143    37    36    1
   144    38    39    2
   145   115   113   ar
   146   135   132    1
   147   130   128    1
   148   113   112    1
   149   122   120    1
   150    60    62    1
   151    60    61    1
   152   132   131    1
   153   132   133    1
   154   128   129    1
   155   128   125    1
   156   102   101    2
   157   112   111    1
   158   153   152    1
   159   153   154    2
   160   152   151    1
   161   134   133    2
   162   120   121    1
   163   120   117    1
   164   123   121    1
   165   111   108    1
   166   116   117    1
   167   116   109   am
   168   124   125    1
   169   124   118   am
   170   149   148   ar
   171   108   109    1
   172   108   107    1
   173   151   145   am
   174   125   126    1
   175   117   118    1
   176   101   107   am
   177   101   100    1
   178   118   119    2
   179   109   110    2
   180   105   103    1
   181   127   126    2
   182    99   100    1
   183   148   150   ar
   184   148   147    1
   185   145   144    1
   186   145   146    2
   187   100   103    1
   188   142   141    2
   189   103   104    1
   190   144   147    1
   191   144   143    1
   192   104   106    1
   193   141   143   am
   194   141   140    1
   195   139   140    1
