@<TRIPOS>MOLECULE
tmp/4o2aB01.pdb
 167 156 0 0 0
SMALL
GASTEIGER

@<TRIPOS>ATOM
      1  N         23.8770   57.2320   35.4930 N.3   198  GLU198     -0.1245
      2  CA        22.4310   57.1700   35.6410 C.3   198  GLU198      0.1567
      3  C         21.8120   56.5130   34.4190 C.2   198  GLU198      0.2260
      4  O         22.0700   56.9230   33.2870 O.2   198  GLU198     -0.2867
      5  CB        21.8470   58.5750   35.7990 C.3   198  GLU198      0.0388
      6  CG        22.3470   59.3470   37.0050 C.3   198  GLU198      0.1160
      7  CD        21.9990   60.8190   36.9300 C.2   198  GLU198      0.3649
      8  OE1       22.8070   61.5940   36.3720 O.co2 198  GLU198     -0.2457
      9  OE2       20.9170   61.1980   37.4250 O.co2 198  GLU198     -0.2457
     10  N         17.9580   55.3960   33.0850 N.3   200  TYR200     -0.1241
     11  CA        16.5150   55.2810   33.2190 C.3   200  TYR200      0.1605
     12  C         16.0370   54.0570   32.4540 C.2   200  TYR200      0.2264
     13  O         15.9490   54.0760   31.2270 O.2   200  TYR200     -0.2867
     14  CB        15.8210   56.5390   32.6990 C.3   200  TYR200      0.0534
     15  CG        16.0980   57.7710   33.5290 C.ar  200  TYR200     -0.0201
     16  CD1       15.2850   58.1050   34.6060 C.ar  200  TYR200     -0.0009
     17  CD2       17.1730   58.6010   33.2370 C.ar  200  TYR200     -0.0009
     18  CE1       15.5360   59.2320   35.3680 C.ar  200  TYR200      0.0417
     19  CE2       17.4320   59.7270   33.9920 C.ar  200  TYR200      0.0417
     20  CZ        16.6120   60.0380   35.0550 C.ar  200  TYR200      0.1957
     21  OH        16.8720   61.1620   35.8050 O.3   200  TYR200     -0.2866
     22  N         11.3640   63.8880   33.7800 N.3   236  VAL236     -0.1245
     23  CA        12.5810   63.5910   34.5310 C.3   236  VAL236      0.1561
     24  C         13.6770   64.6360   34.3210 C.2   236  VAL236      0.2260
     25  O         14.5690   64.7820   35.1560 O.2   236  VAL236     -0.2867
     26  CB        13.1440   62.1920   34.1880 C.3   236  VAL236      0.0252
     27  CG1       12.1330   61.1110   34.5320 C.3   236  VAL236      0.0019
     28  CG2       13.5360   62.1180   32.7220 C.3   236  VAL236      0.0019
     29  N         13.8170   69.3390   36.0130 N.3   239  CYS239     -0.1235
     30  CA        14.6710   69.9940   36.9990 C.3   239  CYS239      0.1677
     31  C         16.0080   70.4470   36.4120 C.2   239  CYS239      0.2270
     32  O         16.7900   71.1220   37.0810 O.2   239  CYS239     -0.2867
     33  CB        14.9090   69.0720   38.1970 C.3   239  CYS239      0.0956
     34  SG        15.7330   67.5140   37.7890 S.3   239  CYS239     -0.0801
     35  N         12.7430   74.5520   42.5920 N.3   245  GLN245     -0.1231
     36  CA        13.2320   74.2070   43.9220 C.3   245  GLN245      0.1698
     37  C         14.5680   73.4790   43.8540 C.2   245  GLN245      0.2592
     38  O         15.5360   73.8760   44.5030 O.2   245  GLN245     -0.2718
     39  CB        12.2110   73.3340   44.6510 C.3   245  GLN245      0.0381
     40  CG        12.7350   72.7130   45.9360 C.3   245  GLN245      0.0905
     41  CD        11.8490   71.5940   46.4430 C.2   245  GLN245      0.2608
     42  OE1       10.7180   71.4270   45.9880 O.2   245  GLN245     -0.2717
     43  NE2       12.3640   70.8120   47.3860 N.am  245  GLN245     -0.0878
     44  N         14.6100   72.4100   43.0660 N.am  246  LEU246     -0.1980
     45  CA        15.8300   71.6300   42.9010 C.3   246  LEU246      0.1596
     46  C         16.9250   72.4500   42.2300 C.2   246  LEU246      0.2287
     47  O         17.9950   72.6490   42.8070 O.2   246  LEU246     -0.2864
     48  CB        15.5550   70.3600   42.0940 C.3   246  LEU246      0.0297
     49  CG        14.7660   69.2600   42.8070 C.3   246  LEU246      0.0022
     50  CD1       14.4800   68.1060   41.8610 C.3   246  LEU246      0.0001
     51  CD2       15.5200   68.7740   44.0330 C.3   246  LEU246      0.0001
     52  N         18.7940   71.6520   39.6050 N.3   248  ALA248     -0.1245
     53  CA        19.8950   70.7020   39.6650 C.3   248  ALA248      0.1562
     54  C         20.6010   70.4830   38.3330 C.2   248  ALA248      0.2260
     55  O         20.2160   71.0370   37.3010 O.2   248  ALA248     -0.2867
     56  CB        19.4030   69.3730   40.2220 C.3   248  ALA248      0.0290
     57  N         24.5390   66.3620   40.4130 N.3   252  LYS252     -0.1231
     58  CA        23.7630   66.4560   41.6470 C.3   252  LYS252      0.1693
     59  C         22.6460   65.4160   41.6870 C.2   252  LYS252      0.2591
     60  O         22.2680   64.9390   42.7570 O.2   252  LYS252     -0.2718
     61  CB        23.1930   67.8630   41.8340 C.3   252  LYS252      0.0285
     62  CG        24.1410   68.8210   42.5360 C.3   252  LYS252      0.0035
     63  CD        23.5130   70.1910   42.7320 C.3   252  LYS252      0.0206
     64  CE        24.4180   71.0980   43.5510 C.3   252  LYS252      0.1093
     65  NZ        23.8180   72.4450   43.7660 N.3   252  LYS252     -0.1314
     66  N         22.1230   65.0700   40.5150 N.am  253  LEU253     -0.1980
     67  CA        21.1160   64.0220   40.4100 C.3   253  LEU253      0.1596
     68  C         21.7210   62.6700   40.7690 C.2   253  LEU253      0.2287
     69  O         21.1470   61.9060   41.5450 O.2   253  LEU253     -0.2864
     70  CB        20.5400   63.9710   38.9940 C.3   253  LEU253      0.0297
     71  CG        19.1060   64.4670   38.8010 C.3   253  LEU253      0.0022
     72  CD1       18.9880   65.9400   39.1520 C.3   253  LEU253      0.0001
     73  CD2       18.6370   64.2090   37.3760 C.3   253  LEU253      0.0001
     74  N         22.6900   62.2060   44.6290 N.3   256  ASN256     -0.1225
     75  CA        21.5920   61.9840   45.5640 C.3   256  ASN256      0.1785
     76  C         20.7980   60.7020   45.3370 C.2   256  ASN256      0.2597
     77  O         20.0460   60.2720   46.2110 O.2   256  ASN256     -0.2718
     78  CB        20.6420   63.1810   45.5550 C.3   256  ASN256      0.1169
     79  CG        21.2390   64.4020   46.2200 C.2   256  ASN256      0.2627
     80  OD1       21.2060   64.5300   47.4420 O.2   256  ASN256     -0.2716
     81  ND2       21.7850   65.3090   45.4170 N.am  256  ASN256     -0.0877
     82  N         20.9600   60.0930   44.1670 N.am  257  MET257     -0.1979
     83  CA        20.1780   58.9100   43.8210 C.3   257  MET257      0.1605
     84  C         20.9810   57.6150   43.8800 C.2   257  MET257      0.2287
     85  O         20.4080   56.5310   43.9740 O.2   257  MET257     -0.2864
     86  CB        19.5600   59.0670   42.4300 C.3   257  MET257      0.0413
     87  CG        18.5010   60.1510   42.3350 C.3   257  MET257      0.0598
     88  SD        17.0300   59.7730   43.3090 S.3   257  MET257     -0.1393
     89  CE        16.4330   58.3070   42.4710 C.3   257  MET257      0.0692
     90  N         17.3360   53.2030   37.3050 N.3   266  PHE266     -0.1241
     91  CA        16.1420   53.8030   37.8920 C.3   266  PHE266      0.1605
     92  C         14.8450   53.3120   37.2630 C.2   266  PHE266      0.2264
     93  O         14.8000   52.9750   36.0800 O.2   266  PHE266     -0.2867
     94  CB        16.2070   55.3310   37.7900 C.3   266  PHE266      0.0534
     95  CG        17.4360   55.9340   38.4140 C.ar  266  PHE266     -0.0203
     96  CD1       18.0930   55.2920   39.4520 C.ar  266  PHE266     -0.0042
     97  CD2       17.9320   57.1450   37.9610 C.ar  266  PHE266     -0.0042
     98  CE1       19.2240   55.8450   40.0220 C.ar  266  PHE266     -0.0003
     99  CE2       19.0610   57.7040   38.5290 C.ar  266  PHE266     -0.0003
    100  CZ        19.7080   57.0520   39.5590 C.ar  266  PHE266     -0.0000
    101  N         16.4390   55.3180   47.1350 N.3   302  THR302     -0.1203
    102  CA        16.1400   56.7410   47.0240 C.3   302  THR302      0.1994
    103  C         14.9450   56.9310   46.0970 C.2   302  THR302      0.2618
    104  O         14.7430   56.1490   45.1680 O.2   302  THR302     -0.2717
    105  CB        17.3330   57.5420   46.4550 C.3   302  THR302      0.1784
    106  OG1       17.7680   56.9480   45.2240 O.3   302  THR302     -0.2211
    107  CG2       18.4970   57.5710   47.4400 C.3   302  THR302      0.0376
    108  N         14.1520   57.9660   46.3540 N.am  303  VAL303     -0.1965
    109  CA        12.9840   58.2640   45.5320 C.3   303  VAL303      0.1727
    110  C         12.8810   59.7630   45.2600 C.2   303  VAL303      0.2616
    111  O         13.0830   60.5800   46.1590 O.2   303  VAL303     -0.2715
    112  CB        11.6760   57.7730   46.2020 C.3   303  VAL303      0.0290
    113  CG1       10.4550   58.2890   45.4550 C.3   303  VAL303      0.0023
    114  CG2       11.6480   56.2560   46.2770 C.3   303  VAL303      0.0023
    115  N         12.5770   60.1170   44.0150 N.am  304  ALA304     -0.1977
    116  CA        12.3600   61.5110   43.6430 C.3   304  ALA304      0.1597
    117  C         10.9970   61.6940   42.9860 C.2   304  ALA304      0.2287
    118  O         10.7150   61.1010   41.9450 O.2   304  ALA304     -0.2864
    119  CB        13.4590   61.9890   42.7150 C.3   304  ALA304      0.0319
    120  N          8.5150   64.4940   41.3350 N.3   306  ILE306     -0.1245
    121  CA         8.4480   65.8450   40.7830 C.3   306  ILE306      0.1561
    122  C          7.0350   66.1980   40.3180 C.2   306  ILE306      0.2260
    123  O          6.4600   65.5150   39.4710 O.2   306  ILE306     -0.2867
    124  CB         9.4500   66.0410   39.6210 C.3   306  ILE306      0.0252
    125  CG1       10.8600   66.2690   40.1630 C.3   306  ILE306      0.0019
    126  CG2        9.0590   67.2310   38.7660 C.3   306  ILE306      0.0019
    127  CD1       11.5470   65.0210   40.6590 C.3   306  ILE306      0.0001
    128  N         15.5580   60.4470   55.1200 N.3   337  ASN337     -0.1225
    129  CA        14.9600   61.3860   54.1770 C.3   337  ASN337      0.1785
    130  C         15.3040   61.0560   52.7300 C.2   337  ASN337      0.2597
    131  O         15.7030   61.9300   51.9610 O.2   337  ASN337     -0.2718
    132  CB        15.3820   62.8170   54.5130 C.3   337  ASN337      0.1169
    133  CG        15.2520   63.1270   55.9910 C.2   337  ASN337      0.2627
    134  OD1       16.2510   63.2580   56.6980 O.2   337  ASN337     -0.2716
    135  ND2       14.0180   63.2450   56.4660 N.am  337  ASN337     -0.0877
    136  N         15.1480   59.7850   52.3700 N.am  338  ASN338     -0.1960
    137  CA        15.4840   59.3090   51.0320 C.3   338  ASN338      0.1819
    138  C         14.3930   59.5770   49.9980 C.2   338  ASN338      0.2621
    139  O         14.5000   59.1490   48.8480 O.2   338  ASN338     -0.2715
    140  CB        15.8250   57.8170   51.0650 C.3   338  ASN338      0.1195
    141  CG        14.7750   56.9940   51.7880 C.2   338  ASN338      0.2630
    142  OD1       13.7400   57.5150   52.2050 O.2   338  ASN338     -0.2716
    143  ND2       15.0360   55.7000   51.9350 N.am  338  ASN338     -0.0877
    144  N         13.3460   60.2860   50.4100 N.am  339  VAL339     -0.1963
    145  CA        12.2600   60.6440   49.5040 C.3   339  VAL339      0.1727
    146  C         12.2280   62.1480   49.2580 C.2   339  VAL339      0.2616
    147  O         12.0190   62.9340   50.1820 O.2   339  VAL339     -0.2715
    148  CB        10.8950   60.2020   50.0510 C.3   339  VAL339      0.0290
    149  CG1        9.8350   60.2970   48.9630 C.3   339  VAL339      0.0023
    150  CG2       10.9800   58.7880   50.5850 C.3   339  VAL339      0.0023
    151  N         12.4340   62.5400   48.0060 N.am  340  LYS340     -0.1977
    152  CA        12.4520   63.9490   47.6400 C.3   340  LYS340      0.1596
    153  C         11.1560   64.3710   46.9590 C.2   340  LYS340      0.2287
    154  O         10.7050   63.7290   46.0100 O.2   340  LYS340     -0.2864
    155  CB        13.6370   64.2450   46.7180 C.3   340  LYS340      0.0298
    156  CG        13.6200   65.6400   46.1100 C.3   340  LYS340      0.0038
    157  CD        13.7330   66.7170   47.1800 C.3   340  LYS340      0.0206
    158  CE        15.0340   66.5910   47.9580 C.3   340  LYS340      0.1093
    159  NZ        15.1440   67.6230   49.0260 N.3   340  LYS340     -0.1314
    160  N         10.7750   58.9790   39.9370 N.3   358  ILE358     -0.1245
    161  CA        12.1040   58.4500   39.6510 C.3   358  ILE358      0.1561
    162  C         12.6110   57.6880   40.8660 C.2   358  ILE358      0.2260
    163  O         13.0980   58.2890   41.8230 O.2   358  ILE358     -0.2867
    164  CB        13.1250   59.5560   39.3060 C.3   358  ILE358      0.0252
    165  CG1       12.5900   60.4880   38.2150 C.3   358  ILE358      0.0019
    166  CG2       14.4490   58.9390   38.8800 C.3   358  ILE358      0.0019
    167  CD1       11.9380   61.7480   38.7530 C.3   358  ILE358      0.0001
@<TRIPOS>BOND
     1    13    12    2
     2    12    11    1
     3    14    11    1
     4    14    15    1
     5    28    26    1
     6    10    11    1
     7    17    15   ar
     8    17    19   ar
     9     4     3    2
    10    15    16   ar
    11    22    23    1
    12    19    20   ar
    13    26    23    1
    14    26    27    1
    15    24    23    1
    16    24    25    2
    17     3     2    1
    18    16    18   ar
    19    20    18   ar
    20    20    21    1
    21     1     2    1
    22     2     5    1
    23     5     6    1
    24    29    30    1
    25    93    92    2
    26     8     7   ar
    27    31    30    1
    28    31    32    2
    29     7     6    1
    30     7     9   ar
    31    30    33    1
    32    92    91    1
    33    55    54    2
    34    90    91    1
    35    73    71    1
    36    34    33    1
    37    94    91    1
    38    94    95    1
    39    97    95   ar
    40    97    99   ar
    41   165   167    1
    42   165   164    1
    43    54    53    1
    44    95    96   ar
    45    99   100   ar
    46   126   124    1
    47    71    70    1
    48    71    72    1
    49   166   164    1
    50    70    67    1
    51   164   161    1
    52    96    98   ar
    53   123   122    2
    54   100    98   ar
    55    52    53    1
    56   124   125    1
    57   124   121    1
    58   161   160    1
    59   161   162    1
    60    53    56    1
    61   125   127    1
    62   122   121    1
    63    67    66    1
    64    67    68    1
    65    57    58    1
    66    66    59   am
    67    68    69    2
    68   121   120    1
    69   162   163    2
    70    58    59    1
    71    58    61    1
    72    59    60    2
    73    61    62    1
    74    50    49    1
    75   118   117    2
    76    48    49    1
    77    48    45    1
    78    46    47    2
    79    46    45    1
    80    87    86    1
    81    87    88    1
    82    86    83    1
    83    89    88    1
    84    62    63    1
    85    35    36    1
    86   119   116    1
    87    63    64    1
    88    49    51    1
    89    45    44    1
    90   117   116    1
    91    44    37   am
    92    64    65    1
    93   116   115    1
    94    83    84    1
    95    83    82    1
    96    37    36    1
    97    37    38    2
    98    84    85    2
    99    36    39    1
   100   115   110   am
   101    82    76   am
   102    74    75    1
   103    39    40    1
   104   104   103    2
   105   106   105    1
   106   110   109    1
   107   110   111    2
   108    76    75    1
   109    76    77    2
   110    81    79   am
   111   113   112    1
   112   109   112    1
   113   109   108    1
   114    78    75    1
   115    78    79    1
   116    40    41    1
   117    42    41    2
   118   154   153    2
   119   103   108   am
   120   103   102    1
   121   156   155    1
   122   156   157    1
   123   112   114    1
   124    79    80    2
   125    41    43   am
   126   105   102    1
   127   105   107    1
   128   155   152    1
   129   153   152    1
   130   102   101    1
   131   157   158    1
   132   152   151    1
   133   158   159    1
   134   151   146   am
   135   139   138    2
   136   149   148    1
   137   146   145    1
   138   146   147    2
   139   145   148    1
   140   145   144    1
   141   138   144   am
   142   138   137    1
   143   148   150    1
   144   137   140    1
   145   137   136    1
   146   140   141    1
   147   141   143   am
   148   141   142    2
   149   131   130    2
   150   136   130   am
   151   130   129    1
   152   129   132    1
   153   129   128    1
   154   132   133    1
   155   133   135   am
   156   133   134    2
