@<TRIPOS>MOLECULE
tmp/4o2aF00.pdb
 160 152 0 0 0
SMALL
GASTEIGER

@<TRIPOS>ATOM
      1  N         14.6550   58.2150   94.2220 N.3    74  LYS74      -0.1245
      2  CA        14.6610   58.3980   95.6720 C.3    74  LYS74       0.1561
      3  C         15.4080   59.6550   96.1080 C.2    74  LYS74       0.2260
      4  O         14.8480   60.5150   96.7860 O.2    74  LYS74      -0.2867
      5  CB        15.2720   57.1760   96.3620 C.3    74  LYS74       0.0271
      6  CG        14.5120   55.8800   96.1400 C.3    74  LYS74       0.0035
      7  CD        13.0910   55.9690   96.6700 C.3    74  LYS74       0.0206
      8  CE        12.4390   54.5980   96.7170 C.3    74  LYS74       0.1093
      9  NZ        12.5090   53.9010   95.4030 N.3    74  LYS74      -0.1314
     10  N          7.8170   61.6900  104.8630 N.3    95  PRO95      -0.2116
     11  CA         8.6370   61.2900  106.0120 C.3    95  PRO95       0.1372
     12  C          9.9840   62.0020  106.0340 C.2    95  PRO95       0.2244
     13  O         10.5300   62.3170  104.9760 O.2    95  PRO95      -0.2868
     14  CB         8.8430   59.7900  105.7850 C.3    95  PRO95       0.0268
     15  CG         7.6780   59.3700  104.9630 C.3    95  PRO95       0.0207
     16  CD         7.3940   60.5310  104.0590 C.3    95  PRO95       0.0892
     17  N         14.6340   53.6980  107.9930 N.3   125  ILE125     -0.1245
     18  CA        14.8060   52.7510  106.8960 C.3   125  ILE125      0.1561
     19  C         15.6920   53.3660  105.8110 C.2   125  ILE125      0.2260
     20  O         15.6640   54.5780  105.5910 O.2   125  ILE125     -0.2867
     21  CB        13.4440   52.3080  106.3040 C.3   125  ILE125      0.0252
     22  CG1       13.6280   51.1720  105.2930 C.3   125  ILE125      0.0019
     23  CG2       12.7080   53.4870  105.6780 C.3   125  ILE125      0.0019
     24  CD1       12.3360   50.6890  104.6700 C.3   125  ILE125      0.0001
     25  N         17.1950   52.6050  101.7510 N.3   127  LYS127     -0.1231
     26  CA        17.3420   51.8660  100.4990 C.3   127  LYS127      0.1693
     27  C         17.7220   52.7970   99.3490 C.2   127  LYS127      0.2592
     28  O         18.1810   53.9170   99.5700 O.2   127  LYS127     -0.2718
     29  CB        16.0590   51.1020  100.1590 C.3   127  LYS127      0.0285
     30  CG        15.8830   49.8060  100.9360 C.3   127  LYS127      0.0035
     31  CD        14.6170   49.0730  100.5260 C.3   127  LYS127      0.0206
     32  CE        14.4660   47.7630  101.2860 C.3   127  LYS127      0.1093
     33  NZ        13.2220   47.0330  100.9110 N.3   127  LYS127     -0.1314
     34  N         17.5300   52.3240   98.1210 N.am  128  SER128     -0.1952
     35  CA        17.8560   53.1120   96.9370 C.3   128  SER128      0.1924
     36  C         16.9850   52.7180   95.7480 C.2   128  SER128      0.2314
     37  O         17.4050   52.8230   94.5960 O.2   128  SER128     -0.2863
     38  CB        19.3360   52.9570   96.5790 C.3   128  SER128      0.2116
     39  OG        19.6570   53.6810   95.4040 O.3   128  SER128     -0.2180
     40  N         15.1530   57.0880  105.5300 N.3   143  GLN143     -0.1231
     41  CA        13.8000   57.5870  105.7380 C.3   143  GLN143      0.1698
     42  C         13.2390   57.1170  107.0790 C.2   143  GLN143      0.2592
     43  O         13.5240   56.0060  107.5230 O.2   143  GLN143     -0.2718
     44  CB        12.8990   57.1310  104.5880 C.3   143  GLN143      0.0381
     45  CG        11.5450   57.8120  104.5330 C.3   143  GLN143      0.0905
     46  CD        10.7820   57.4820  103.2650 C.2   143  GLN143      0.2608
     47  OE1        9.9900   56.5400  103.2290 O.2   143  GLN143     -0.2717
     48  NE2       11.0180   58.2590  102.2140 N.am  143  GLN143     -0.0878
     49  N         12.4480   57.9700  107.7240 N.am  144  LYS144     -0.1966
     50  CA        11.8390   57.6280  109.0060 C.3   144  LYS144      0.1728
     51  C         10.8060   56.5170  108.8500 C.2   144  LYS144      0.2616
     52  O          9.9800   56.5490  107.9390 O.2   144  LYS144     -0.2715
     53  CB        11.1970   58.8610  109.6440 C.3   144  LYS144      0.0311
     54  CG        10.5430   58.5890  110.9880 C.3   144  LYS144      0.0038
     55  CD        11.5600   58.0830  111.9980 C.3   144  LYS144      0.0206
     56  CE        10.8870   57.6330  113.2850 C.3   144  LYS144      0.1093
     57  NZ         9.9740   56.4760  113.0660 N.3   144  LYS144     -0.1314
     58  N         10.8530   55.5350  109.7450 N.am  145  TYR145     -0.1960
     59  CA         9.9440   54.3980  109.6750 C.3   145  TYR145      0.1771
     60  C          8.6990   54.6230  110.5290 C.2   145  TYR145      0.2619
     61  O          8.7960   54.8250  111.7400 O.2   145  TYR145     -0.2715
     62  CB        10.6590   53.1160  110.1090 C.3   145  TYR145      0.0574
     63  CG         9.9170   51.8450  109.7580 C.ar  145  TYR145     -0.0198
     64  CD1       10.1030   51.2280  108.5270 C.ar  145  TYR145     -0.0009
     65  CD2        9.0360   51.2590  110.6590 C.ar  145  TYR145     -0.0009
     66  CE1        9.4310   50.0650  108.2020 C.ar  145  TYR145      0.0417
     67  CE2        8.3590   50.0960  110.3410 C.ar  145  TYR145      0.0417
     68  CZ         8.5600   49.5040  109.1120 C.ar  145  TYR145      0.1957
     69  OH         7.8870   48.3480  108.7920 O.3   145  TYR145     -0.2866
     70  N          7.5350   54.5930  109.8870 N.am  146  LEU146     -0.1977
     71  CA         6.2590   54.6940  110.5870 C.3   146  LEU146      0.1596
     72  C          6.0800   53.5150  111.5340 C.2   146  LEU146      0.2287
     73  O          5.7000   52.4210  111.1160 O.2   146  LEU146     -0.2864
     74  CB         5.0920   54.7450  109.5950 C.3   146  LEU146      0.0297
     75  CG         4.6210   56.1150  109.0960 C.3   146  LEU146      0.0022
     76  CD1        4.1060   56.9560  110.2540 C.3   146  LEU146      0.0001
     77  CD2        5.7220   56.8480  108.3400 C.3   146  LEU146      0.0001
     78  N         -0.0740   45.1680  108.1710 N.3   158  LYS158     -0.1245
     79  CA         0.1240   46.4690  107.5440 C.3   158  LYS158      0.1561
     80  C          0.0190   46.3600  106.0260 C.2   158  LYS158      0.2260
     81  O          0.0480   45.2630  105.4690 O.2   158  LYS158     -0.2867
     82  CB         1.4740   47.0670  107.9450 C.3   158  LYS158      0.0271
     83  CG         2.6800   46.3170  107.4060 C.3   158  LYS158      0.0035
     84  CD         3.9750   46.9860  107.8370 C.3   158  LYS158      0.0206
     85  CE         4.0400   48.4260  107.3540 C.3   158  LYS158      0.1093
     86  NZ         5.2830   49.1110  107.8050 N.3   158  LYS158     -0.1314
     87  N          0.1160   48.9520  102.0030 N.3   160  ASP160     -0.1239
     88  CA         0.4110   50.2020  101.3140 C.3   160  ASP160      0.1674
     89  C         -0.5400   50.3610  100.1350 C.2   160  ASP160      0.2266
     90  O         -1.0890   49.3780   99.6360 O.2   160  ASP160     -0.2867
     91  CB         1.8690   50.2550  100.8460 C.3   160  ASP160      0.1410
     92  CG         2.1300   49.3710   99.6430 C.2   160  ASP160      0.3668
     93  OD1        1.5660   48.2580   99.5850 O.co2 160  ASP160     -0.2456
     94  OD2        2.9020   49.7880   98.7540 O.co2 160  ASP160     -0.2456
     95  N          6.7970   43.3880  107.6540 N.3   199  HIS199     -0.1226
     96  CA         7.0310   44.8110  107.5000 C.3   199  HIS199      0.1752
     97  C          7.1720   45.2750  106.0690 C.2   199  HIS199      0.2596
     98  O          7.1050   46.4910  105.7920 O.2   199  HIS199     -0.2718
     99  CB         8.2290   45.2380  108.3350 C.3   199  HIS199      0.0759
    100  CG         8.2090   44.6960  109.7470 C.ar  199  HIS199      0.0818
    101  ND1        7.2870   43.8110  110.1720 N.ar  199  HIS199     -0.2268
    102  CD2        9.0400   44.9470  110.8320 C.ar  199  HIS199      0.1154
    103  CE1        7.5140   43.5100  111.4600 C.ar  199  HIS199      0.1986
    104  NE2        8.5880   44.2060  111.8640 N.ar  199  HIS199     -0.2212
    105  N          7.3650   44.3380  105.1440 N.am  200  LEU200     -0.1966
    106  CA         7.3260   44.6380  103.7150 C.3   200  LEU200      0.1728
    107  C          6.0200   44.2130  103.0550 C.2   200  LEU200      0.2617
    108  O          5.6150   43.0540  103.1370 O.2   200  LEU200     -0.2715
    109  CB         8.5180   44.0060  102.9940 C.3   200  LEU200      0.0311
    110  CG         9.7040   44.9500  102.7920 C.3   200  LEU200      0.0022
    111  CD1       11.0140   44.1860  102.7670 C.3   200  LEU200      0.0001
    112  CD2        9.5290   45.7480  101.5090 C.3   200  LEU200      0.0001
    113  N          5.3750   45.1680  102.3940 N.am  201  THR201     -0.1937
    114  CA         4.1070   44.9300  101.7200 C.3   201  THR201      0.2028
    115  C          4.3370   44.6240  100.2460 C.2   201  THR201      0.2642
    116  O          3.4430   44.1290   99.5580 O.2   201  THR201     -0.2714
    117  CB         3.1970   46.1630  101.8180 C.3   201  THR201      0.1808
    118  OG1        3.7360   47.2170  101.0110 O.3   201  THR201     -0.2208
    119  CG2        3.0960   46.6360  103.2600 C.3   201  THR201      0.0379
    120  N          5.5430   44.9270   99.7720 N.am  202  ASN202     -0.1971
    121  CA         5.9010   44.7450   98.3690 C.3   202  ASN202      0.1688
    122  C          5.7080   43.3060   97.9030 C.2   202  ASN202      0.2292
    123  O          6.2320   42.3740   98.5120 O.2   202  ASN202     -0.2864
    124  CB         7.3440   45.1890   98.1270 C.3   202  ASN202      0.1181
    125  CG         7.6520   45.3880   96.6580 C.2   202  ASN202      0.2629
    126  OD1        6.8170   45.8800   95.8980 O.2   202  ASN202     -0.2716
    127  ND2        8.8530   45.0000   96.2460 N.am  202  ASN202     -0.0877
    128  N          2.9460   55.4770   95.5270 N.3   278  ASP278     -0.1239
    129  CA         2.8260   54.5450   96.6440 C.3   278  ASP278      0.1674
    130  C          2.6620   55.2960   97.9600 C.2   278  ASP278      0.2266
    131  O          3.4690   56.1640   98.2940 O.2   278  ASP278     -0.2867
    132  CB         4.0430   53.6200   96.7070 C.3   278  ASP278      0.1410
    133  CG         4.1800   52.7550   95.4690 C.2   278  ASP278      0.3668
    134  OD1        3.1490   52.4670   94.8260 O.co2 278  ASP278     -0.2456
    135  OD2        5.3190   52.3620   95.1390 O.co2 278  ASP278     -0.2456
    136  N          1.4060   55.3730  102.3400 N.3   280  MET280     -0.1245
    137  CA         1.2950   54.6740  103.6140 C.3   280  MET280      0.1570
    138  C          0.3080   55.4110  104.5110 C.2   280  MET280      0.2261
    139  O          0.1640   56.6300  104.4160 O.2   280  MET280     -0.2867
    140  CB         2.6590   54.5850  104.3010 C.3   280  MET280      0.0387
    141  CG         3.3710   53.2530  104.1180 C.3   280  MET280      0.0595
    142  SD         2.6410   51.9290  105.0990 S.3   280  MET280     -0.1393
    143  CE         2.8210   52.5920  106.7530 C.3   280  MET280      0.0692
    144  N          5.3550   57.4840   99.9610 N.3   290  ILE290     -0.1231
    145  CA         6.5220   56.6130  100.0240 C.3   290  ILE290      0.1692
    146  C          7.4810   56.8910   98.8710 C.2   290  ILE290      0.2591
    147  O          8.6220   57.3000   99.0870 O.2   290  ILE290     -0.2718
    148  CB         6.1200   55.1270  100.0180 C.3   290  ILE290      0.0266
    149  CG1        5.2630   54.8110  101.2430 C.3   290  ILE290      0.0019
    150  CG2        7.3550   54.2440   99.9960 C.3   290  ILE290      0.0020
    151  CD1        5.9190   55.2030  102.5500 C.3   290  ILE290      0.0001
    152  N          7.0100   56.6690   97.6470 N.am  291  GLU291     -0.1979
    153  CA         7.8130   56.9310   96.4590 C.3   291  GLU291      0.1602
    154  C          6.9330   57.0820   95.2240 C.2   291  GLU291      0.2287
    155  O          5.7410   56.7760   95.2560 O.2   291  GLU291     -0.2864
    156  CB         8.8240   55.8070   96.2290 C.3   291  GLU291      0.0415
    157  CG         8.2110   54.5230   95.6980 C.3   291  GLU291      0.1163
    158  CD         9.2520   53.5580   95.1670 C.2   291  GLU291      0.3649
    159  OE1        9.5020   53.5630   93.9430 O.co2 291  GLU291     -0.2457
    160  OE2        9.8220   52.7950   95.9730 O.co2 291  GLU291     -0.2457
@<TRIPOS>BOND
     1   159   158   ar
     2     1     2    1
     3    37    36    2
     4   134   133   ar
     5   135   133   ar
     6   158   157    1
     7   158   160   ar
     8   154   155    2
     9   154   153    1
    10     9     8    1
    11    39    38    1
    12   133   132    1
    13   128   129    1
    14     2     3    1
    15     2     5    1
    16   157   156    1
    17    36    35    1
    18   126   125    2
    19     3     4    2
    20     6     5    1
    21     6     7    1
    22   156   153    1
    23   127   125   am
    24   153   152    1
    25    38    35    1
    26   129   132    1
    27   129   130    1
    28   125   124    1
    29     7     8    1
    30    35    34    1
    31   152   146   am
    32   122   121    1
    33   122   123    2
    34   130   131    2
    35    34    27   am
    36   124   121    1
    37   121   120    1
    38    94    92   ar
    39   146   147    2
    40   146   145    1
    41    27    28    2
    42    27    26    1
    43   116   115    2
    44    93    92   ar
    45    90    89    2
    46    92    91    1
    47   120   115   am
    48   144   145    1
    49   150   148    1
    50   148   145    1
    51   148   149    1
    52    89    88    1
    53    29    26    1
    54    29    30    1
    55   115   114    1
    56    26    25    1
    57    31    30    1
    58    31    32    1
    59    91    88    1
    60    33    32    1
    61   118   117    1
    62   149   151    1
    63    88    87    1
    64   112   110    1
    65   114   117    1
    66   114   113    1
    67   117   119    1
    68    48    46   am
    69   136   137    1
    70   113   107   am
    71   111   110    1
    72   110   109    1
    73   109   106    1
    74   107   108    2
    75   107   106    1
    76    47    46    2
    77    46    45    1
    78   137   140    1
    79   137   138    1
    80   106   105    1
    81    16    10    1
    82    16    15    1
    83   141   140    1
    84   141   142    1
    85   139   138    2
    86    45    44    1
    87    44    41    1
    88    24    22    1
    89    10    11    1
    90    15    14    1
    91    13    12    2
    92   142   143    1
    93   105    97   am
    94    22    21    1
    95    81    80    2
    96    40    41    1
    97    20    19    2
    98    23    21    1
    99    41    42    1
   100    14    11    1
   101    98    97    2
   102    19    18    1
   103    11    12    1
   104    80    79    1
   105    97    96    1
   106    21    18    1
   107    18    17    1
   108    42    43    2
   109    42    49   am
   110    85    86    1
   111    85    84    1
   112    83    84    1
   113    83    82    1
   114    96    95    1
   115    96    99    1
   116    79    82    1
   117    79    78    1
   118    49    50    1
   119    52    51    2
   120    66    64   ar
   121    66    68   ar
   122    99   100    1
   123    77    75    1
   124    64    63   ar
   125    69    68    1
   126    51    50    1
   127    51    58   am
   128    50    53    1
   129    75    74    1
   130    75    76    1
   131    68    67   ar
   132    74    71    1
   133    53    54    1
   134    59    58    1
   135    59    62    1
   136    59    60    1
   137   100   101   ar
   138   100   102   ar
   139    63    62    1
   140    63    65   ar
   141    70    60   am
   142    70    71    1
   143   101   103   ar
   144    67    65   ar
   145    60    61    2
   146    71    72    1
   147   102   104   ar
   148    54    55    1
   149    73    72    2
   150   103   104   ar
   151    55    56    1
   152    57    56    1
