@<TRIPOS>MOLECULE
tmp/4o2bC01.pdb
 83 78 0 0 0
SMALL
GASTEIGER

@<TRIPOS>ATOM
      1  N         15.2380   33.7200  -25.0080 N.3    79  ARG79      -0.1245
      2  CA        15.8520   34.6000  -25.9980 C.3    79  ARG79       0.1563
      3  C         14.8770   35.0180  -27.0960 C.2    79  ARG79       0.2260
      4  O         15.0510   36.0620  -27.7230 O.2    79  ARG79      -0.2867
      5  CB        17.0720   33.9230  -26.6320 C.3    79  ARG79       0.0307
      6  CG        18.2290   33.6800  -25.6770 C.3    79  ARG79       0.0489
      7  CD        19.3870   32.9860  -26.3800 C.3    79  ARG79       0.2205
      8  NE        20.5860   32.9410  -25.5470 N.pl3  79  ARG79      -0.0865
      9  CZ        21.3620   31.8710  -25.4080 C.cat  79  ARG79       0.5346
     10  NH1       21.0660   30.7460  -26.0450 N.pl3  79  ARG79       0.1354
     11  NH2       22.4350   31.9240  -24.6300 N.pl3  79  ARG79       0.1354
     12  N         22.1250   35.7080  -20.5280 N.3    92  LEU92      -0.1231
     13  CA        21.6150   34.3900  -20.8860 C.3    92  LEU92       0.1693
     14  C         22.7390   33.5120  -21.4340 C.2    92  LEU92       0.2592
     15  O         23.1350   33.6460  -22.5910 O.2    92  LEU92      -0.2718
     16  CB        20.4940   34.5300  -21.9170 C.3    92  LEU92       0.0284
     17  CG        19.4240   35.5680  -21.5620 C.3    92  LEU92       0.0019
     18  CD1       18.3820   35.6860  -22.6630 C.3    92  LEU92       0.0001
     19  CD2       18.7670   35.2270  -20.2350 C.3    92  LEU92       0.0001
     20  N         23.2450   32.6120  -20.5950 N.am   93  ILE93      -0.1966
     21  CA        24.4230   31.8220  -20.9330 C.3    93  ILE93       0.1727
     22  C         24.0710   30.3580  -21.1680 C.2    93  ILE93       0.2617
     23  O         23.3730   29.7430  -20.3620 O.2    93  ILE93      -0.2715
     24  CB        25.4730   31.9040  -19.8110 C.3    93  ILE93       0.0290
     25  CG1       25.6780   33.3570  -19.3790 C.3    93  ILE93       0.0022
     26  CG2       26.7890   31.2840  -20.2550 C.3    93  ILE93       0.0023
     27  CD1       26.5900   33.5090  -18.1890 C.3    93  ILE93       0.0001
     28  N         24.5590   29.8010  -22.2740 N.am   94  THR94      -0.1937
     29  CA        24.2630   28.4150  -22.6290 C.3    94  THR94       0.2028
     30  C         25.4760   27.6620  -23.1610 C.2    94  THR94       0.2643
     31  O         26.3420   28.2380  -23.8200 O.2    94  THR94      -0.2714
     32  CB        23.1480   28.3240  -23.6920 C.3    94  THR94       0.1808
     33  OG1       23.4770   29.1610  -24.8090 O.3    94  THR94      -0.2208
     34  CG2       21.8200   28.7620  -23.1160 C.3    94  THR94       0.0379
     35  N         25.5270   26.3670  -22.8680 N.am   95  GLY95      -0.1939
     36  CA        26.5050   25.4790  -23.4680 C.3    95  GLY95       0.2014
     37  C         25.8620   24.7480  -24.6310 C.2    95  GLY95       0.2638
     38  O         24.8190   25.1700  -25.1270 O.2    95  GLY95      -0.2714
     39  N         26.4710   23.6480  -25.0630 N.am   96  LYS96      -0.1977
     40  CA        25.9490   22.8900  -26.1970 C.3    96  LYS96       0.1596
     41  C         25.4910   21.4850  -25.8110 C.2    96  LYS96       0.2287
     42  O         24.7330   20.8500  -26.5430 O.2    96  LYS96      -0.2864
     43  CB        26.9930   22.8030  -27.3130 C.3    96  LYS96       0.0298
     44  CG        27.1890   24.0920  -28.0960 C.3    96  LYS96       0.0038
     45  CD        28.1780   23.8900  -29.2350 C.3    96  LYS96       0.0206
     46  CE        28.2680   25.1200  -30.1250 C.3    96  LYS96       0.1093
     47  NZ        26.9740   25.4120  -30.8050 N.3    96  LYS96      -0.1314
     48  N         33.8150   23.9640  -18.0760 N.3   113  GLU113     -0.1231
     49  CA        34.0490   24.6320  -19.3520 C.3   113  GLU113      0.1699
     50  C         33.3530   25.9860  -19.4430 C.2   113  GLU113      0.2592
     51  O         33.6670   26.7910  -20.3180 O.2   113  GLU113     -0.2718
     52  CB        33.5930   23.7410  -20.5110 C.3   113  GLU113      0.0402
     53  CG        34.3460   22.4280  -20.6120 C.3   113  GLU113      0.1161
     54  CD        35.8260   22.6290  -20.8680 C.2   113  GLU113      0.3649
     55  OE1       36.1790   23.5670  -21.6130 O.co2 113  GLU113     -0.2457
     56  OE2       36.6370   21.8540  -20.3170 O.co2 113  GLU113     -0.2457
     57  N         32.4130   26.2390  -18.5380 N.am  114  ILE114     -0.1980
     58  CA        31.5960   27.4430  -18.6290 C.3   114  ILE114      0.1595
     59  C         31.5400   28.2360  -17.3180 C.2   114  ILE114      0.2287
     60  O         31.0000   29.3420  -17.2780 O.2   114  ILE114     -0.2864
     61  CB        30.1640   27.0970  -19.1040 C.3   114  ILE114      0.0276
     62  CG1       29.5380   28.2710  -19.8590 C.3   114  ILE114      0.0022
     63  CG2       29.2960   26.6480  -17.9320 C.3   114  ILE114      0.0022
     64  CD1       28.1890   27.9520  -20.4560 C.3   114  ILE114      0.0001
     65  N         33.1410   31.8670  -17.4370 N.3   117  LEU117     -0.1245
     66  CA        32.2970   32.8190  -18.1460 C.3   117  LEU117      0.1561
     67  C         31.1350   33.2630  -17.2610 C.2   117  LEU117      0.2260
     68  O         30.8150   34.4480  -17.1920 O.2   117  LEU117     -0.2867
     69  CB        31.7720   32.2080  -19.4460 C.3   117  LEU117      0.0270
     70  CG        30.8150   33.0810  -20.2620 C.3   117  LEU117      0.0019
     71  CD1       31.4720   34.4000  -20.6360 C.3   117  LEU117      0.0001
     72  CD2       30.3450   32.3440  -21.5050 C.3   117  LEU117      0.0001
     73  N         30.2530   37.0450  -15.7400 N.3   121  ARG121     -0.1245
     74  CA        28.9840   37.7190  -15.9880 C.3   121  ARG121      0.1563
     75  C         28.3320   38.1530  -14.6780 C.2   121  ARG121      0.2260
     76  O         27.7000   39.2080  -14.6060 O.2   121  ARG121     -0.2867
     77  CB        28.0420   36.8170  -16.7840 C.3   121  ARG121      0.0307
     78  CG        28.5640   36.4640  -18.1680 C.3   121  ARG121      0.0489
     79  CD        28.5330   37.6590  -19.1050 C.3   121  ARG121      0.2205
     80  NE        29.2630   37.3990  -20.3430 N.pl3 121  ARG121     -0.0865
     81  CZ        28.7710   36.7210  -21.3750 C.cat 121  ARG121      0.5346
     82  NH1       27.5430   36.2230  -21.3230 N.pl3 121  ARG121      0.1354
     83  NH2       29.5100   36.5350  -22.4600 N.pl3 121  ARG121      0.1354
@<TRIPOS>BOND
     1    47    46    1
     2    46    45    1
     3    45    44    1
     4    44    43    1
     5     4     3    2
     6    43    40    1
     7     3     2    1
     8     5     2    1
     9     5     6    1
    10    42    41    2
    11     7     6    1
    12     7     8    1
    13    40    41    1
    14    40    39    1
    15    10     9    1
    16     2     1    1
    17     8     9    2
    18     9    11    1
    19    38    37    2
    20    39    37   am
    21    33    32    1
    22    37    36    1
    23    31    30    2
    24    32    34    1
    25    32    29    1
    26    36    35    1
    27    30    35   am
    28    30    29    1
    29    18    17    1
    30    29    28    1
    31    15    14    2
    32    83    81    1
    33    28    22   am
    34    16    17    1
    35    16    13    1
    36    55    54   ar
    37    17    19    1
    38    72    70    1
    39    14    13    1
    40    14    20   am
    41    81    82    1
    42    81    80    2
    43    22    21    1
    44    22    23    2
    45    21    20    1
    46    21    24    1
    47    13    12    1
    48    54    53    1
    49    54    56   ar
    50    71    70    1
    51    53    52    1
    52    52    49    1
    53    64    62    1
    54    80    79    1
    55    51    50    2
    56    70    69    1
    57    26    24    1
    58    62    61    1
    59    24    25    1
    60    69    66    1
    61    50    49    1
    62    50    57   am
    63    25    27    1
    64    49    48    1
    65    79    78    1
    66    61    58    1
    67    61    63    1
    68    58    57    1
    69    58    59    1
    70    78    77    1
    71    66    65    1
    72    66    67    1
    73    59    60    2
    74    67    68    2
    75    77    74    1
    76    74    73    1
    77    74    75    1
    78    75    76    2
