@<TRIPOS>MOLECULE
tmp/4o2dB00.pdb
 113 104 0 0 0
SMALL
GASTEIGER

@<TRIPOS>ATOM
      1  N        107.5930  -14.7540   28.7270 N.3   170  GLU170     -0.1245
      2  CA       106.6620  -15.4710   27.8330 C.3   170  GLU170      0.1567
      3  C        107.4520  -16.3010   26.7690 C.2   170  GLU170      0.2260
      4  O        106.9070  -16.6530   25.7210 O.2   170  GLU170     -0.2867
      5  CB       105.6660  -14.4860   27.1470 C.3   170  GLU170      0.0388
      6  CG       104.5770  -13.8560   28.0410 C.3   170  GLU170      0.1160
      7  CD       103.5210  -14.8430   28.5950 C.2   170  GLU170      0.3649
      8  OE1      103.5170  -16.0330   28.2130 O.co2 170  GLU170     -0.2457
      9  OE2      102.6910  -14.4530   29.4490 O.co2 170  GLU170     -0.2457
     10  N        103.7420   -9.6770   27.8670 N.3   192  SER192     -0.1217
     11  CA       102.2750   -9.7520   27.9660 C.3   192  SER192      0.1889
     12  C        101.9260   -9.0590   29.2650 C.2   192  SER192      0.2288
     13  O        102.8190   -8.7740   30.0330 O.2   192  SER192     -0.2866
     14  CB       101.7750  -11.1780   28.0380 C.3   192  SER192      0.2089
     15  OG       102.1900  -11.7510   29.2460 O.3   192  SER192     -0.2183
     16  N        100.6780  -10.4030   31.7910 N.3   194  GLN194     -0.1245
     17  CA       100.5040  -11.4960   32.7450 C.3   194  GLN194      0.1566
     18  C        100.6240  -11.0550   34.2130 C.2   194  GLN194      0.2260
     19  O         99.7550  -11.3020   35.0140 O.2   194  GLN194     -0.2867
     20  CB       101.5450  -12.5810   32.4660 C.3   194  GLN194      0.0367
     21  CG       101.4100  -13.8550   33.2810 C.3   194  GLN194      0.0905
     22  CD       100.0440  -14.5100   33.1550 C.2   194  GLN194      0.2608
     23  OE1       99.4630  -14.5600   32.0740 O.2   194  GLN194     -0.2717
     24  NE2       99.5490  -15.0590   34.2550 N.am  194  GLN194     -0.0878
     25  N         97.8950   -8.6370   35.2730 N.3   197  LYS197     -0.1245
     26  CA        96.5210   -9.1170   35.3330 C.3   197  LYS197      0.1561
     27  C         96.3010   -9.9780   36.5710 C.2   197  LYS197      0.2260
     28  O         95.2230   -9.9670   37.1700 O.2   197  LYS197     -0.2867
     29  CB        96.0690   -9.7720   34.0400 C.3   197  LYS197      0.0271
     30  CG        96.7090  -11.0740   33.6670 C.3   197  LYS197      0.0035
     31  CD        96.0980  -11.5260   32.3380 C.3   197  LYS197      0.0206
     32  CE        96.5810  -12.8690   31.8780 C.3   197  LYS197      0.1093
     33  NZ        95.6320  -13.4420   30.8730 N.3   197  LYS197     -0.1314
     34  N        107.7490   -8.7340   21.9240 N.3   216  ARG216     -0.1245
     35  CA       108.6480   -9.8710   22.0380 C.3   216  ARG216      0.1563
     36  C        109.6710   -9.8370   20.9480 C.2   216  ARG216      0.2260
     37  O        109.3200   -9.8020   19.7850 O.2   216  ARG216     -0.2867
     38  CB       107.8770  -11.1790   21.9300 C.3   216  ARG216      0.0307
     39  CG       106.8770  -11.3330   23.0590 C.3   216  ARG216      0.0489
     40  CD       106.1910  -12.7100   23.1730 C.3   216  ARG216      0.2205
     41  NE       105.0900  -12.5500   24.1340 N.pl3 216  ARG216     -0.0865
     42  CZ       104.1160  -13.4220   24.3640 C.cat 216  ARG216      0.5346
     43  NH1      104.0870  -14.5770   23.7310 N.pl3 216  ARG216      0.1354
     44  NH2      103.1460  -13.0980   25.2250 N.pl3 216  ARG216      0.1354
     45  N         97.0020   -8.7070   21.8270 N.3   228  GLN228     -0.1245
     46  CA        96.2970   -9.7800   22.5110 C.3   228  GLN228      0.1566
     47  C         94.9630   -9.2920   23.0530 C.2   228  GLN228      0.2260
     48  O         94.8820   -8.1360   23.5330 O.2   228  GLN228     -0.2867
     49  CB        97.1180  -10.2730   23.7080 C.3   228  GLN228      0.0367
     50  CG        98.2680  -11.2460   23.4250 C.3   228  GLN228      0.0905
     51  CD        98.9130  -11.6750   24.7400 C.2   228  GLN228      0.2608
     52  OE1       98.5870  -11.1100   25.8060 O.2   228  GLN228     -0.2717
     53  NE2       99.7930  -12.6610   24.6930 N.am  228  GLN228     -0.0878
     54  N         93.2360  -10.0520   26.1570 N.3   230  ASP230     -0.1239
     55  CA        93.8010  -10.6310   27.3870 C.3   230  ASP230      0.1674
     56  C         92.6870  -10.6300   28.4170 C.2   230  ASP230      0.2266
     57  O         91.9700   -9.6580   28.5190 O.2   230  ASP230     -0.2867
     58  CB        94.9540   -9.7580   27.8650 C.3   230  ASP230      0.1410
     59  CG        95.8250  -10.4320   28.8890 C.2   230  ASP230      0.3668
     60  OD1       96.1710  -11.6590   28.6980 O.co2 230  ASP230     -0.2456
     61  OD2       96.2040   -9.6950   29.8570 O.co2 230  ASP230     -0.2456
     62  N        103.8790  -23.6810   29.4070 N.3   381  HIS381     -0.1226
     63  CA       103.0540  -22.5000   29.0940 C.3   381  HIS381      0.1752
     64  C        103.6740  -21.1340   29.5830 C.2   381  HIS381      0.2596
     65  O        103.9830  -20.2140   28.7600 O.2   381  HIS381     -0.2718
     66  CB       101.5900  -22.6960   29.5700 C.3   381  HIS381      0.0759
     67  CG       100.6840  -21.5310   29.2390 C.ar  381  HIS381      0.0818
     68  ND1      100.0780  -21.3690   28.0060 N.ar  381  HIS381     -0.2268
     69  CD2      100.3370  -20.4350   29.9640 C.ar  381  HIS381      0.1154
     70  CE1       99.3930  -20.2390   27.9950 C.ar  381  HIS381      0.1986
     71  NE2       99.5280  -19.6590   29.1730 N.ar  381  HIS381     -0.2212
     72  N        103.7630  -20.9770   30.9030 N.am  382  HIS382     -0.1975
     73  CA       104.6220  -19.9860   31.5710 C.3   382  HIS382      0.1656
     74  C        104.7990  -20.3950   33.0460 C.2   382  HIS382      0.2291
     75  O        104.0870  -21.2690   33.5570 O.2   382  HIS382     -0.2864
     76  CB       104.1580  -18.5270   31.4110 C.3   382  HIS382      0.0771
     77  CG       102.7220  -18.2430   31.7750 C.ar  382  HIS382      0.0820
     78  ND1      102.1260  -18.7020   32.9260 N.ar  382  HIS382     -0.2267
     79  CD2      101.8010  -17.4330   31.1830 C.ar  382  HIS382      0.1154
     80  CE1      100.8890  -18.2490   33.0020 C.ar  382  HIS382      0.1986
     81  NE2      100.6670  -17.4680   31.9600 N.ar  382  HIS382     -0.2212
     82  N         95.5840  -19.1900   24.4380 N.3   418  GLY418     -0.1210
     83  CA        96.0300  -20.0660   25.5140 C.3   418  GLY418      0.1956
     84  C         96.0150  -19.3710   26.8670 C.2   418  GLY418      0.2612
     85  O         96.1920  -18.1860   26.9580 O.2   418  GLY418     -0.2717
     86  N         95.8040  -20.1540   27.9170 N.am  419  GLY419     -0.1956
     87  CA        95.7990  -19.6690   29.2640 C.3   419  GLY419      0.1869
     88  C         95.9880  -20.7850   30.2440 C.2   419  GLY419      0.2309
     89  O         96.2630  -21.9160   29.8810 O.2   419  GLY419     -0.2863
     90  N         96.1820  -19.9850   37.5290 N.3   422  ARG422     -0.1245
     91  CA        97.4660  -19.6150   38.0960 C.3   422  ARG422      0.1563
     92  C         97.7080  -20.1980   39.4730 C.2   422  ARG422      0.2260
     93  O         96.7900  -20.5600   40.1790 O.2   422  ARG422     -0.2867
     94  CB        97.5930  -18.1080   38.2340 C.3   422  ARG422      0.0307
     95  CG        96.9840  -17.3030   37.1160 C.3   422  ARG422      0.0489
     96  CD        97.4040  -17.7080   35.7090 C.3   422  ARG422      0.2205
     97  NE        96.6130  -16.9120   34.7600 N.pl3 422  ARG422     -0.0865
     98  CZ        96.7030  -16.9520   33.4360 C.cat 422  ARG422      0.5346
     99  NH1       97.5370  -17.8100   32.8160 N.pl3 422  ARG422      0.1354
    100  NH2       95.9250  -16.1550   32.7290 N.pl3 422  ARG422      0.1354
    101  N         93.4060  -16.2160   30.0950 N.3   464  ILE464     -0.1231
    102  CA        93.6660  -16.5850   28.7370 C.3   464  ILE464      0.1692
    103  C         93.9810  -15.3470   27.9370 C.2   464  ILE464      0.2591
    104  O         93.5110  -14.2510   28.2500 O.2   464  ILE464     -0.2718
    105  CB        92.4320  -17.2920   28.1310 C.3   464  ILE464      0.0266
    106  CG1       92.7410  -17.8980   26.7710 C.3   464  ILE464      0.0019
    107  CG2       91.2540  -16.3580   28.0400 C.3   464  ILE464      0.0020
    108  CD1       91.7080  -18.9100   26.3030 C.3   464  ILE464      0.0001
    109  N         94.7790  -15.5250   26.8890 N.am  465  ALA465     -0.1980
    110  CA        94.9500  -14.4930   25.8860 C.3   465  ALA465      0.1597
    111  C         94.8170  -15.0680   24.5130 C.2   465  ALA465      0.2287
    112  O         95.3140  -16.1790   24.2370 O.2   465  ALA465     -0.2864
    113  CB        96.2910  -13.8160   26.0220 C.3   465  ALA465      0.0319
@<TRIPOS>BOND
     1    37    36    2
     2    36    35    1
     3    45    46    1
     4    34    35    1
     5    38    35    1
     6    38    39    1
     7    46    47    1
     8    46    49    1
     9    47    48    2
    10    39    40    1
    11    40    41    1
    12    50    49    1
    13    50    51    1
    14    43    42    1
    15    41    42    2
    16   112   111    2
    17    42    44    1
    18    82    83    1
    19   111   110    1
    20    53    51   am
    21    51    52    2
    22    83    84    1
    23     4     3    2
    24   110   113    1
    25   110   109    1
    26    54    55    1
    27   108   106    1
    28     3     2    1
    29   106   105    1
    30    84    85    2
    31    84    86   am
    32   109   103   am
    33     5     2    1
    34     5     6    1
    35    55    58    1
    36    55    56    1
    37     2     1    1
    38    58    59    1
    39    10    11    1
    40    86    87    1
    41   103   104    2
    42   103   102    1
    43    11    14    1
    44    11    12    1
    45    70    68   ar
    46    70    71   ar
    47    68    67   ar
    48    14    15    1
    49   107   105    1
    50     6     7    1
    51   105   102    1
    52     8     7   ar
    53    56    57    2
    54     7     9   ar
    55    60    59   ar
    56   102   101    1
    57    65    64    2
    58    59    61   ar
    59    63    62    1
    60    63    66    1
    61    63    64    1
    62    71    69   ar
    63    67    66    1
    64    67    69   ar
    65    87    88    1
    66    12    13    2
    67    64    72   am
    68    89    88    2
    69    33    32    1
    70    72    73    1
    71    79    77   ar
    72    79    81   ar
    73    76    73    1
    74    76    77    1
    75    73    74    1
    76    77    78   ar
    77    16    17    1
    78    32    31    1
    79    81    80   ar
    80    23    22    2
    81    31    30    1
    82    20    17    1
    83    20    21    1
    84   100    98    1
    85    17    18    1
    86    99    98    1
    87    78    80   ar
    88    74    75    2
    89    22    21    1
    90    22    24   am
    91    98    97    2
    92    30    29    1
    93    29    26    1
    94    18    19    2
    95    97    96    1
    96    25    26    1
    97    26    27    1
    98    96    95    1
    99    27    28    2
   100    95    94    1
   101    90    91    1
   102    91    94    1
   103    91    92    1
   104    92    93    2
