@<TRIPOS>MOLECULE
tmp/4o2pB00.pdb
 185 176 0 0 0
SMALL
GASTEIGER

@<TRIPOS>ATOM
      1  N        -11.0290  -17.8900   -9.1780 N.3    18  LEU18      -0.1231
      2  CA       -11.0840  -18.3950   -7.8050 C.3    18  LEU18       0.1693
      3  C         -9.7590  -18.3150   -7.0500 C.2    18  LEU18       0.2592
      4  O         -9.7170  -18.5750   -5.8460 O.2    18  LEU18      -0.2718
      5  CB       -11.6170  -19.8350   -7.7850 C.3    18  LEU18       0.0284
      6  CG       -13.1200  -20.0420   -7.9990 C.3    18  LEU18       0.0019
      7  CD1      -13.4270  -21.4980   -8.2760 C.3    18  LEU18       0.0001
      8  CD2      -13.9300  -19.5480   -6.8080 C.3    18  LEU18       0.0001
      9  N         -8.6870  -17.9510   -7.7490 N.am   19  GLY19      -0.1957
     10  CA        -7.3630  -17.9300   -7.1380 C.3    19  GLY19       0.1869
     11  C         -6.3350  -17.0720   -7.8460 C.2    19  GLY19       0.2309
     12  O         -6.4970  -16.7260   -9.0200 O.2    19  GLY19      -0.2863
     13  N         -6.1000  -19.4730  -10.9340 N.3    25  VAL25      -0.1231
     14  CA        -6.9050  -20.6860  -10.8800 C.3    25  VAL25       0.1692
     15  C         -8.3360  -20.3070  -11.2250 C.2    25  VAL25       0.2592
     16  O         -8.9310  -19.4450  -10.5740 O.2    25  VAL25      -0.2718
     17  CB        -6.8670  -21.3530   -9.4860 C.3    25  VAL25       0.0266
     18  CG1       -7.9150  -22.4690   -9.3810 C.3    25  VAL25       0.0020
     19  CG2       -5.4760  -21.8980   -9.1890 C.3    25  VAL25       0.0020
     20  N         -8.8800  -20.9490  -12.2540 N.am   26  TRP26      -0.1976
     21  CA       -10.2410  -20.6860  -12.6910 C.3    26  TRP26       0.1640
     22  C        -11.1000  -21.9290  -12.6260 C.2    26  TRP26       0.2290
     23  O        -10.6100  -23.0450  -12.7960 O.2    26  TRP26      -0.2864
     24  CB       -10.2470  -20.1750  -14.1330 C.3    26  TRP26       0.0576
     25  CG        -9.8190  -18.7550  -14.2910 C.ar   26  TRP26       0.0006
     26  CD1       -8.5490  -18.2630  -14.1930 C.ar   26  TRP26       0.0946
     27  CD2      -10.6620  -17.6370  -14.6000 C.ar   26  TRP26       0.0152
     28  NE1       -8.5490  -16.9060  -14.4130 N.ar   26  TRP26      -0.2442
     29  CE2       -9.8320  -16.4950  -14.6680 C.ar   26  TRP26       0.0810
     30  CE3      -12.0400  -17.4890  -14.8270 C.ar   26  TRP26       0.0012
     31  CZ2      -10.3330  -15.2160  -14.9490 C.ar   26  TRP26       0.0191
     32  CZ3      -12.5390  -16.2170  -15.1060 C.ar   26  TRP26       0.0001
     33  CH2      -11.6840  -15.0980  -15.1630 C.ar   26  TRP26       0.0015
     34  N        -11.3380  -27.4740  -13.2980 N.3    37  ALA37      -0.1245
     35  CA       -10.4870  -26.4430  -12.7430 C.3    37  ALA37       0.1562
     36  C         -9.3280  -26.2000  -13.7000 C.2    37  ALA37       0.2260
     37  O         -8.7470  -27.1410  -14.2480 O.2    37  ALA37      -0.2867
     38  CB        -9.9870  -26.8420  -11.3670 C.3    37  ALA37       0.0290
     39  N         -5.6760  -24.2040  -14.1930 N.3    39  LYS39      -0.1245
     40  CA        -4.5620  -23.4970  -13.5830 C.3    39  LYS39       0.1561
     41  C         -3.7340  -22.7780  -14.6530 C.2    39  LYS39       0.2260
     42  O         -3.1670  -23.4100  -15.5500 O.2    39  LYS39      -0.2867
     43  CB        -3.7060  -24.4580  -12.7570 C.3    39  LYS39       0.0271
     44  CG        -2.6060  -23.7890  -11.9550 C.3    39  LYS39       0.0035
     45  CD        -1.8720  -24.7840  -11.0740 C.3    39  LYS39       0.0206
     46  CE        -0.6670  -24.1350  -10.4220 C.3    39  LYS39       0.1093
     47  NZ        -0.1610  -24.9480   -9.2850 N.3    39  LYS39      -0.1314
     48  N          4.6900  -30.0300  -13.2660 N.3    54  GLU54      -0.1245
     49  CA         3.6020  -30.4940  -12.3990 C.3    54  GLU54       0.1567
     50  C          2.6490  -31.4220  -13.1540 C.2    54  GLU54       0.2260
     51  O          2.2540  -32.4680  -12.6430 O.2    54  GLU54      -0.2867
     52  CB         2.8180  -29.3170  -11.8070 C.3    54  GLU54       0.0388
     53  CG         1.7850  -29.7660  -10.7780 C.3    54  GLU54       0.1160
     54  CD         0.8850  -28.6550  -10.2790 C.2    54  GLU54       0.3649
     55  OE1        0.1700  -28.8990   -9.2840 O.co2  54  GLU54      -0.2457
     56  OE2        0.8800  -27.5530  -10.8710 O.co2  54  GLU54      -0.2457
     57  N          1.7420  -35.5170  -12.9730 N.3    58  MET58      -0.1245
     58  CA         0.3250  -35.8620  -12.8710 C.3    58  MET58       0.1570
     59  C         -0.1470  -36.7990  -13.9890 C.2    58  MET58       0.2261
     60  O         -1.1840  -37.4590  -13.8540 O.2    58  MET58      -0.2867
     61  CB        -0.5410  -34.5980  -12.8810 C.3    58  MET58       0.0387
     62  CG        -0.5260  -33.7990  -11.5700 C.3    58  MET58       0.0595
     63  SD        -1.4290  -32.2460  -11.7200 S.3    58  MET58      -0.1393
     64  CE        -3.0940  -32.8120  -11.3640 C.3    58  MET58       0.0692
     65  N         -5.9690  -35.4450   -7.0760 N.3    67  VAL67      -0.1245
     66  CA        -6.6600  -34.5960   -8.0540 C.3    67  VAL67       0.1561
     67  C         -6.2330  -35.0350   -9.4580 C.2    67  VAL67       0.2260
     68  O         -5.0330  -35.0870   -9.7630 O.2    67  VAL67      -0.2867
     69  CB        -6.3450  -33.0960   -7.8030 C.3    67  VAL67       0.0252
     70  CG1       -6.7970  -32.2150   -8.9750 C.3    67  VAL67       0.0019
     71  CG2       -6.9820  -32.6370   -6.4780 C.3    67  VAL67       0.0019
     72  N         -3.1560  -25.8870  -17.2050 N.3    80  ILE80      -0.1245
     73  CA        -3.2550  -27.2690  -16.7270 C.3    80  ILE80       0.1561
     74  C         -4.6990  -27.4830  -16.2660 C.2    80  ILE80       0.2260
     75  O         -5.2220  -26.7250  -15.4450 O.2    80  ILE80      -0.2867
     76  CB        -2.2520  -27.5800  -15.5930 C.3    80  ILE80       0.0252
     77  CG1       -0.8150  -27.2880  -16.0440 C.3    80  ILE80       0.0019
     78  CG2       -2.3840  -29.0390  -15.1350 C.3    80  ILE80       0.0019
     79  CD1        0.2450  -27.4320  -14.9380 C.3    80  ILE80       0.0001
     80  N         -7.7680  -29.8730  -14.6860 N.3    82  THR82      -0.1203
     81  CA        -8.0080  -31.0040  -13.7950 C.3    82  THR82       0.1994
     82  C         -9.4740  -31.1110  -13.4180 C.2    82  THR82       0.2618
     83  O        -10.2650  -30.2220  -13.7340 O.2    82  THR82      -0.2717
     84  CB        -7.1800  -30.8930  -12.5010 C.3    82  THR82       0.1784
     85  OG1       -7.7390  -29.8780  -11.6490 O.3    82  THR82      -0.2211
     86  CG2       -5.7180  -30.5710  -12.8190 C.3    82  THR82       0.0376
     87  N         -9.8300  -32.1990  -12.7370 N.am   83  GLU83      -0.1965
     88  CA       -11.1220  -32.2870  -12.0720 C.3    83  GLU83       0.1733
     89  C        -11.2950  -31.1050  -11.1200 C.2    83  GLU83       0.2616
     90  O        -10.3120  -30.5200  -10.6380 O.2    83  GLU83      -0.2715
     91  CB       -11.2930  -33.6150  -11.3210 C.3    83  GLU83       0.0429
     92  CG       -10.3680  -33.8030  -10.1260 C.3    83  GLU83       0.1163
     93  CD       -10.6210  -35.1080   -9.4050 C.2    83  GLU83       0.3649
     94  OE1       -9.6810  -35.9220   -9.3170 O.co2  83  GLU83      -0.2457
     95  OE2      -11.7580  -35.3290   -8.9350 O.co2  83  GLU83      -0.2457
     96  N        -12.5520  -30.7610  -10.8780 N.am   84  TYR84      -0.1960
     97  CA       -12.9140  -29.5940  -10.0970 C.3    84  TYR84       0.1771
     98  C        -13.2970  -30.0330   -8.6960 C.2    84  TYR84       0.2619
     99  O        -14.1480  -30.9130   -8.5190 O.2    84  TYR84      -0.2715
    100  CB       -14.0830  -28.8560  -10.7760 C.3    84  TYR84       0.0574
    101  CG       -14.6730  -27.7280   -9.9560 C.ar   84  TYR84      -0.0198
    102  CD1      -13.9810  -26.5310   -9.7890 C.ar   84  TYR84      -0.0009
    103  CD2      -15.9260  -27.8610   -9.3570 C.ar   84  TYR84      -0.0009
    104  CE1      -14.5140  -25.4880   -9.0370 C.ar   84  TYR84       0.0417
    105  CE2      -16.4800  -26.8180   -8.6050 C.ar   84  TYR84       0.0417
    106  CZ       -15.7630  -25.6360   -8.4540 C.ar   84  TYR84       0.1957
    107  OH       -16.2860  -24.6000   -7.7090 O.3    84  TYR84      -0.2866
    108  N        -12.6630  -29.4200   -7.7010 N.am   85  MET85      -0.1963
    109  CA       -12.9470  -29.7390   -6.3000 C.3    85  MET85       0.1736
    110  C        -13.7720  -28.6130   -5.6680 C.2    85  MET85       0.2617
    111  O        -13.2760  -27.5050   -5.4420 O.2    85  MET85      -0.2715
    112  CB       -11.6410  -29.9990   -5.5450 C.3    85  MET85       0.0427
    113  CG       -10.7670  -31.1090   -6.2020 C.3    85  MET85       0.0599
    114  SD       -11.5880  -32.7260   -6.1780 S.3    85  MET85      -0.1393
    115  CE       -11.7320  -33.0030   -4.4090 C.3    85  MET85       0.0692
    116  N        -15.0330  -28.9110   -5.3790 N.am   86  SER86      -0.1936
    117  CA       -16.0250  -27.8570   -5.1670 C.3    86  SER86       0.2055
    118  C        -15.8870  -27.0690   -3.8650 C.2    86  SER86       0.2643
    119  O        -16.4130  -25.9620   -3.7690 O.2    86  SER86      -0.2714
    120  CB       -17.4440  -28.4180   -5.2940 C.3    86  SER86       0.2130
    121  OG       -17.6740  -29.3970   -4.3060 O.3    86  SER86      -0.2179
    122  N        -15.1870  -27.6280   -2.8740 N.am   87  LYS87      -0.1963
    123  CA       -15.1390  -27.0070   -1.5410 C.3    87  LYS87       0.1728
    124  C        -13.8190  -26.3250   -1.2160 C.2    87  LYS87       0.2617
    125  O        -13.6040  -25.9390   -0.0680 O.2    87  LYS87      -0.2715
    126  CB       -15.4730  -28.0250   -0.4360 C.3    87  LYS87       0.0311
    127  CG       -16.6900  -28.8730   -0.6930 C.3    87  LYS87       0.0038
    128  CD       -17.9140  -28.3690    0.0300 C.3    87  LYS87       0.0206
    129  CE       -18.7920  -27.5280   -0.8660 C.3    87  LYS87       0.1093
    130  NZ       -20.1560  -27.4170   -0.2890 N.3    87  LYS87      -0.1314
    131  N        -12.9370  -26.1860   -2.2110 N.am   88  GLY88      -0.1940
    132  CA       -11.6530  -25.4890   -2.0200 C.3    88  GLY88       0.2014
    133  C        -10.6240  -26.2630   -1.2040 C.2    88  GLY88       0.2639
    134  O        -10.7240  -27.4910   -1.0660 O.2    88  GLY88      -0.2714
    135  N         -9.6170  -25.5610   -0.6750 N.am   89  SER89      -0.1949
    136  CA        -8.5470  -26.2350    0.0770 C.3    89  SER89       0.1924
    137  C         -9.0300  -26.7370    1.4290 C.2    89  SER89       0.2314
    138  O         -9.9630  -26.1790    2.0140 O.2    89  SER89      -0.2863
    139  CB        -7.3010  -25.3520    0.2190 C.3    89  SER89       0.2116
    140  OG        -7.4990  -24.2900    1.1210 O.3    89  SER89      -0.2180
    141  N         -8.6130  -23.9400    4.1050 N.3    92  ASP92      -0.1239
    142  CA        -9.7470  -22.9830    4.1150 C.3    92  ASP92       0.1674
    143  C        -11.0380  -23.6130    4.6460 C.2    92  ASP92       0.2266
    144  O        -11.7980  -22.9740    5.3710 O.2    92  ASP92      -0.2867
    145  CB        -9.9860  -22.4040    2.7210 C.3    92  ASP92       0.1410
    146  CG        -8.8110  -21.5830    2.2180 C.2    92  ASP92       0.3668
    147  OD1       -7.9030  -21.2620    3.0100 O.co2  92  ASP92      -0.2456
    148  OD2       -8.7830  -21.2530    1.0210 O.co2  92  ASP92      -0.2456
    149  N         -3.0700  -27.0840    3.0920 N.3   134  ALA134     -0.1245
    150  CA        -3.2560  -26.1050    2.0180 C.3   134  ALA134      0.1562
    151  C         -3.1590  -26.7500    0.6330 C.2   134  ALA134      0.2260
    152  O         -3.6040  -26.1660   -0.3460 O.2   134  ALA134     -0.2867
    153  CB        -2.2560  -24.9310    2.1400 C.3   134  ALA134      0.0290
    154  N         -7.3390  -30.7920   -1.4680 N.3   137  LEU137     -0.1245
    155  CA        -8.5720  -30.1510   -1.9370 C.3   137  LEU137      0.1561
    156  C         -9.7860  -30.9530   -1.5010 C.2   137  LEU137      0.2260
    157  O         -9.7160  -32.1770   -1.3600 O.2   137  LEU137     -0.2867
    158  CB        -8.5470  -29.9330   -3.4550 C.3   137  LEU137      0.0270
    159  CG        -7.5480  -28.8840   -3.9700 C.3   137  LEU137      0.0019
    160  CD1       -7.4790  -28.8980   -5.4930 C.3   137  LEU137      0.0001
    161  CD2       -7.8740  -27.4640   -3.4830 C.3   137  LEU137      0.0001
    162  N         -3.3180  -32.6390   -3.8420 N.3   147  ALA147     -0.1231
    163  CA        -3.1380  -31.7680   -4.9960 C.3   147  ALA147      0.1694
    164  C         -1.7290  -31.1820   -4.9940 C.2   147  ALA147      0.2592
    165  O         -0.8630  -31.6370   -4.2330 O.2   147  ALA147     -0.2718
    166  CB        -4.1930  -30.6680   -5.0000 C.3   147  ALA147      0.0304
    167  N         -1.5200  -30.1790   -5.8470 N.am  148  ASP148     -0.1960
    168  CA        -0.2610  -29.4360   -5.9660 C.3   148  ASP148      0.1840
    169  C          0.9740  -30.3300   -5.9830 C.2   148  ASP148      0.2622
    170  O          1.7210  -30.4170   -5.0040 O.2   148  ASP148     -0.2715
    171  CB        -0.1460  -28.3270   -4.9090 C.3   148  ASP148      0.1450
    172  CG         0.9150  -27.2680   -5.2650 C.2   148  ASP148      0.3671
    173  OD1        1.8100  -27.5380   -6.1000 O.co2 148  ASP148     -0.2456
    174  OD2        0.8600  -26.1500   -4.7010 O.co2 148  ASP148     -0.2456
    175  N          1.1820  -30.9750   -7.1270 N.am  149  PHE149     -0.1974
    176  CA         2.3290  -31.8470   -7.3490 C.3   149  PHE149      0.1639
    177  C          3.5090  -31.0580   -7.9180 C.2   149  PHE149      0.2290
    178  O          4.4410  -31.6360   -8.4850 O.2   149  PHE149     -0.2864
    179  CB         1.9270  -33.0110   -8.2620 C.3   149  PHE149      0.0560
    180  CG         0.8680  -33.8920   -7.6650 C.ar  149  PHE149     -0.0200
    181  CD1        1.2220  -34.9790   -6.8630 C.ar  149  PHE149     -0.0042
    182  CD2       -0.4860  -33.6140   -7.8750 C.ar  149  PHE149     -0.0042
    183  CE1        0.2480  -35.7900   -6.2880 C.ar  149  PHE149     -0.0003
    184  CE2       -1.4780  -34.4180   -7.3040 C.ar  149  PHE149     -0.0003
    185  CZ        -1.1080  -35.5100   -6.5060 C.ar  149  PHE149     -0.0000
@<TRIPOS>BOND
     1    72    73    1
     2    73    74    1
     3    73    76    1
     4    74    75    2
     5    77    76    1
     6    77    79    1
     7    76    78    1
     8    42    41    2
     9    33    32   ar
    10    33    31   ar
    11    32    30   ar
    12    31    29   ar
    13    30    27   ar
    14    80    81    1
    15    29    27   ar
    16    29    28   ar
    17    41    40    1
    18    27    25   ar
    19    28    26   ar
    20    25    26   ar
    21    25    24    1
    22    37    36    2
    23    39    40    1
    24    24    21    1
    25    59    60    2
    26    59    58    1
    27    81    82    1
    28    81    84    1
    29    83    82    2
    30    36    35    1
    31    40    43    1
    32    82    87   am
    33    34    35    1
    34    48    49    1
    35    50    51    2
    36    50    49    1
    37    57    58    1
    38    61    58    1
    39    61    62    1
    40    86    84    1
    41    23    22    2
    42    43    44    1
    43    35    38    1
    44    87    88    1
    45    21    22    1
    46    21    20    1
    47    84    85    1
    48    49    52    1
    49    20    15   am
    50    88    91    1
    51    88    89    1
    52    44    45    1
    53    52    53    1
    54    63    62    1
    55    63    64    1
    56    91    92    1
    57    15    14    1
    58    15    16    2
    59    89    96   am
    60    89    90    2
    61    45    46    1
    62    13    14    1
    63    14    17    1
    64    96    97    1
    65    56    54   ar
    66    53    54    1
    67   100    97    1
    68   100   101    1
    69    46    47    1
    70    54    55   ar
    71    92    93    1
    72    97    98    1
    73   101   102   ar
    74   101   103   ar
    75   102   104   ar
    76    68    67    2
    77    17    18    1
    78    17    19    1
    79    67    66    1
    80    93    94   ar
    81    93    95   ar
    82   103   105   ar
    83     1     2    1
    84   104   106   ar
    85    12    11    2
    86    70    69    1
    87    98    99    2
    88    98   108   am
    89   105   106   ar
    90   178   177    2
    91   106   107    1
    92     7     6    1
    93   179   180    1
    94   179   176    1
    95    66    69    1
    96    66    65    1
    97     6     5    1
    98     6     8    1
    99   177   176    1
   100   182   180   ar
   101   182   184   ar
   102    11    10    1
   103     2     5    1
   104     2     3    1
   105    69    71    1
   106     9    10    1
   107     9     3   am
   108   108   109    1
   109   180   181   ar
   110   176   175    1
   111   184   185   ar
   112   175   169   am
   113     3     4    2
   114   181   183   ar
   115   185   183   ar
   116   109   110    1
   117   109   112    1
   118   113   114    1
   119   113   112    1
   120   114   115    1
   121   173   172   ar
   122   169   168    1
   123   169   170    2
   124   168   167    1
   125   168   171    1
   126   167   164   am
   127   110   111    2
   128   110   116   am
   129   160   159    1
   130   116   117    1
   131   120   117    1
   132   120   121    1
   133   172   171    1
   134   172   174   ar
   135   117   118    1
   136   166   163    1
   137   163   164    1
   138   163   162    1
   139   164   165    2
   140   159   161    1
   141   159   158    1
   142   118   119    2
   143   118   122   am
   144   158   155    1
   145   122   123    1
   146   131   132    1
   147   131   124   am
   148   132   133    1
   149   155   156    1
   150   155   154    1
   151   123   124    1
   152   123   126    1
   153   156   157    2
   154   124   125    2
   155   133   134    2
   156   133   135   am
   157   129   130    1
   158   129   128    1
   159   127   126    1
   160   127   128    1
   161   135   136    1
   162   152   151    2
   163   136   139    1
   164   136   137    1
   165   139   140    1
   166   151   150    1
   167   148   146   ar
   168   137   138    2
   169   150   153    1
   170   150   149    1
   171   146   145    1
   172   146   147   ar
   173   145   142    1
   174   141   142    1
   175   142   143    1
   176   143   144    2
