@<TRIPOS>MOLECULE
tmp/4o30A01.pdb
 180 179 0 0 0
SMALL
GASTEIGER

@<TRIPOS>ATOM
      1  N        -39.0890  -10.5370   11.4200 N.3    30  LEU30      -0.1245
      2  CA       -39.6150  -11.5480   10.5010 C.3    30  LEU30       0.1561
      3  C        -40.2420  -12.7280   11.2490 C.2    30  LEU30       0.2260
      4  O        -40.6110  -13.7060   10.6170 O.2    30  LEU30      -0.2867
      5  CB       -38.4960  -12.0390    9.5240 C.3    30  LEU30       0.0270
      6  CG       -37.8370  -10.9730    8.6160 C.3    30  LEU30       0.0019
      7  CD1      -37.0770  -11.6210    7.4990 C.3    30  LEU30       0.0001
      8  CD2      -38.8650  -10.0690    7.9820 C.3    30  LEU30       0.0001
      9  N        -31.5350   -1.7960    8.3870 N.3    89  PHE89      -0.1241
     10  CA       -32.7040   -1.5650    7.5500 C.3    89  PHE89       0.1605
     11  C        -32.4060   -0.3880    6.6090 C.2    89  PHE89       0.2264
     12  O        -31.8330    0.6120    7.0290 O.2    89  PHE89      -0.2867
     13  CB       -33.9850   -1.3300    8.3820 C.3    89  PHE89       0.0534
     14  CG       -35.2330   -1.2020    7.5270 C.ar   89  PHE89      -0.0203
     15  CD1      -35.9380   -2.3290    7.1250 C.ar   89  PHE89      -0.0042
     16  CD2      -35.6760    0.0470    7.0940 C.ar   89  PHE89      -0.0042
     17  CE1      -37.0570   -2.2120    6.2950 C.ar   89  PHE89      -0.0003
     18  CE2      -36.7900    0.1630    6.2590 C.ar   89  PHE89      -0.0003
     19  CZ       -37.4740   -0.9660    5.8690 C.ar   89  PHE89      -0.0000
     20  N        -34.9050    1.3900    0.6410 N.3    92  ARG92      -0.1231
     21  CA       -34.9760    0.9390   -0.7440 C.3    92  ARG92       0.1694
     22  C        -34.6520   -0.5330   -0.9090 C.2    92  ARG92       0.2592
     23  O        -34.9810   -1.1120   -1.9540 O.2    92  ARG92      -0.2718
     24  CB       -34.0380    1.7700   -1.6210 C.3    92  ARG92       0.0321
     25  CG       -34.2750    3.2760   -1.5850 C.3    92  ARG92       0.0489
     26  CD       -33.2080    3.9890   -2.3990 C.3    92  ARG92       0.2205
     27  NE       -31.8610    3.8210   -1.8450 N.pl3  92  ARG92      -0.0865
     28  CZ       -30.7410    4.0490   -2.5200 C.cat  92  ARG92       0.5346
     29  NH1      -30.7900    4.4590   -3.7810 N.pl3  92  ARG92       0.1354
     30  NH2      -29.5600    3.8600   -1.9420 N.pl3  92  ARG92       0.1354
     31  N        -33.9910   -1.1540    0.0950 N.am   93  GLU93      -0.1966
     32  CA       -33.6170   -2.5690   -0.0100 C.3    93  GLU93       0.1733
     33  C        -34.2580   -3.4630    1.0590 C.2    93  GLU93       0.2617
     34  O        -34.2470   -4.6880    0.8930 O.2    93  GLU93      -0.2715
     35  CB       -32.0830   -2.7640    0.0120 C.3    93  GLU93       0.0429
     36  CG       -31.2850   -2.1220   -1.1120 C.3    93  GLU93       0.1163
     37  CD       -29.8010   -2.4590   -1.1200 C.2    93  GLU93       0.3649
     38  OE1      -28.9930   -1.5930   -1.5230 O.co2  93  GLU93      -0.2457
     39  OE2      -29.4400   -3.5900   -0.7300 O.co2  93  GLU93      -0.2457
     40  N        -34.7890   -2.8550    2.1280 N.am   94  GLY94      -0.1940
     41  CA       -35.2840   -3.5830    3.2920 C.3    94  GLY94       0.2014
     42  C        -34.0850   -3.8750    4.1870 C.2    94  GLY94       0.2638
     43  O        -33.1660   -3.0470    4.2690 O.2    94  GLY94      -0.2714
     44  N        -34.0600   -5.0400    4.8630 N.am   95  PHE95      -0.1973
     45  CA       -32.8840   -5.4320    5.6710 C.3    95  PHE95       0.1639
     46  C        -31.6930   -5.7420    4.7570 C.2    95  PHE95       0.2290
     47  O        -31.8550   -6.3150    3.6760 O.2    95  PHE95      -0.2864
     48  CB       -33.1860   -6.6180    6.6120 C.3    95  PHE95       0.0560
     49  CG       -34.0990   -6.2990    7.7790 C.ar   95  PHE95      -0.0200
     50  CD1      -33.7110   -5.3940    8.7620 C.ar   95  PHE95      -0.0042
     51  CD2      -35.3210   -6.9430    7.9230 C.ar   95  PHE95      -0.0042
     52  CE1      -34.5650   -5.0750    9.8230 C.ar   95  PHE95      -0.0003
     53  CE2      -36.1670   -6.6380    8.9930 C.ar   95  PHE95      -0.0003
     54  CZ       -35.7840   -5.7050    9.9330 C.ar   95  PHE95      -0.0000
     55  N        -39.2750  -14.6830   -0.1320 N.3   128  ASP128     -0.1225
     56  CA       -38.3340  -13.8910   -0.9270 C.3   128  ASP128      0.1805
     57  C        -36.8660  -14.3540   -0.7380 C.2   128  ASP128      0.2598
     58  O        -35.9710  -13.8130   -1.3960 O.2   128  ASP128     -0.2718
     59  CB       -38.4960  -12.3790   -0.5800 C.3   128  ASP128      0.1424
     60  CG       -38.0130  -11.8990    0.7870 C.2   128  ASP128      0.3668
     61  OD1      -37.5430  -12.7350    1.5860 O.co2 128  ASP128     -0.2456
     62  OD2      -38.1080  -10.6790    1.0580 O.co2 128  ASP128     -0.2456
     63  N        -36.6270  -15.3590    0.1530 N.am  129  SER129     -0.1952
     64  CA       -35.2620  -15.7790    0.4740 C.3   129  SER129      0.1924
     65  C        -34.8950  -17.2600    0.2640 C.2   129  SER129      0.2314
     66  O        -33.9700  -17.7580    0.9010 O.2   129  SER129     -0.2863
     67  CB       -34.8880  -15.2970    1.8750 C.3   129  SER129      0.2116
     68  OG       -33.6560  -14.5970    1.8210 O.3   129  SER129     -0.2180
     69  N        -29.6370  -14.9310    4.9010 N.3   155  ARG155     -0.1231
     70  CA       -30.9120  -14.5810    4.2840 C.3   155  ARG155      0.1694
     71  C        -31.1230  -13.0850    4.1450 C.2   155  ARG155      0.2592
     72  O        -31.9960  -12.6730    3.3910 O.2   155  ARG155     -0.2718
     73  CB       -32.1000  -15.2790    4.9920 C.3   155  ARG155      0.0321
     74  CG       -32.4720  -14.7170    6.3710 C.3   155  ARG155      0.0489
     75  CD       -33.9760  -14.4890    6.5230 C.3   155  ARG155      0.2205
     76  NE       -34.4650  -13.4130    5.6560 N.pl3 155  ARG155     -0.0865
     77  CZ       -35.5520  -13.4880    4.8970 C.cat 155  ARG155      0.5346
     78  NH1      -36.3320  -14.5630    4.9450 N.pl3 155  ARG155      0.1354
     79  NH2      -35.8970  -12.4700    4.1190 N.pl3 155  ARG155      0.1354
     80  N        -30.3220  -12.2610    4.8480 N.am  156  PHE156     -0.1962
     81  CA       -30.4880  -10.8100    4.7890 C.3   156  PHE156      0.1771
     82  C        -29.5470  -10.1140    3.8050 C.2   156  PHE156      0.2619
     83  O        -29.6850   -8.9210    3.5890 O.2   156  PHE156     -0.2715
     84  CB       -30.3700  -10.1970    6.1930 C.3   156  PHE156      0.0574
     85  CG       -31.4420  -10.6680    7.1410 C.ar  156  PHE156     -0.0200
     86  CD1      -32.7450  -10.1880    7.0380 C.ar  156  PHE156     -0.0042
     87  CD2      -31.1590  -11.6050    8.1280 C.ar  156  PHE156     -0.0042
     88  CE1      -33.7330  -10.6080    7.9390 C.ar  156  PHE156     -0.0003
     89  CE2      -32.1650  -12.0570    8.9990 C.ar  156  PHE156     -0.0003
     90  CZ       -33.4380  -11.5550    8.8970 C.ar  156  PHE156     -0.0000
     91  N        -28.5810  -10.8480    3.2370 N.am  157  ILE157     -0.1963
     92  CA       -27.5930  -10.2840    2.3120 C.3   157  ILE157      0.1727
     93  C        -28.2600   -9.9550    0.9540 C.2   157  ILE157      0.2617
     94  O        -29.0310  -10.7600    0.4500 O.2   157  ILE157     -0.2715
     95  CB       -26.3360  -11.1770    2.1980 C.3   157  ILE157      0.0290
     96  CG1      -25.6860  -11.3820    3.5910 C.3   157  ILE157      0.0022
     97  CG2      -25.3190  -10.5760    1.1950 C.3   157  ILE157      0.0023
     98  CD1      -24.6050  -12.5500    3.6830 C.3   157  ILE157      0.0001
     99  N        -27.9930   -8.7380    0.4330 N.am  158  SER158     -0.1936
    100  CA       -28.5460   -8.1830   -0.8100 C.3   158  SER158      0.2055
    101  C        -27.9380   -8.8250   -2.0310 C.2   158  SER158      0.2644
    102  O        -26.8620   -9.4220   -1.9610 O.2   158  SER158     -0.2714
    103  CB       -28.2980   -6.6790   -0.8830 C.3   158  SER158      0.2130
    104  OG       -29.0060   -5.9470    0.1030 O.3   158  SER158     -0.2179
    105  N        -28.6370   -8.6530   -3.1510 N.am  159  GLY159     -0.1939
    106  CA       -28.2150   -9.1460   -4.4500 C.3   159  GLY159      0.2014
    107  C        -27.9680   -7.9950   -5.3940 C.2   159  GLY159      0.2638
    108  O        -28.4420   -6.8830   -5.1760 O.2   159  GLY159     -0.2714
    109  N        -27.2580   -8.2760   -6.4750 N.am  160  ILE160     -0.1977
    110  CA       -26.9850   -7.2670   -7.4780 C.3   160  ILE160      0.1596
    111  C        -28.1480   -7.1920   -8.4780 C.2   160  ILE160      0.2287
    112  O        -28.8960   -8.1630   -8.6660 O.2   160  ILE160     -0.2864
    113  CB       -25.6030   -7.5060   -8.1690 C.3   160  ILE160      0.0276
    114  CG1      -25.5440   -8.8320   -8.9980 C.3   160  ILE160      0.0022
    115  CG2      -24.4620   -7.4010   -7.1480 C.3   160  ILE160      0.0022
    116  CD1      -24.4900   -8.8010  -10.2170 C.3   160  ILE160      0.0001
    117  N        -23.0330   -7.5530   -1.2130 N.3   201  TYR201     -0.1241
    118  CA       -23.8420   -7.9160   -2.3820 C.3   201  TYR201      0.1605
    119  C        -23.2230   -9.0840   -3.0990 C.2   201  TYR201      0.2264
    120  O        -22.0350   -9.0540   -3.3780 O.2   201  TYR201     -0.2867
    121  CB       -23.9250   -6.7970   -3.4240 C.3   201  TYR201      0.0534
    122  CG       -24.6170   -5.5360   -3.0010 C.ar  201  TYR201     -0.0201
    123  CD1      -25.9850   -5.3720   -3.1990 C.ar  201  TYR201     -0.0009
    124  CD2      -23.8830   -4.4360   -2.5430 C.ar  201  TYR201     -0.0009
    125  CE1      -26.6220   -4.1710   -2.8770 C.ar  201  TYR201      0.0417
    126  CE2      -24.5080   -3.2280   -2.2300 C.ar  201  TYR201      0.0417
    127  CZ       -25.8800   -3.1100   -2.3770 C.ar  201  TYR201      0.1957
    128  OH       -26.4930   -1.9170   -2.0810 O.3   201  TYR201     -0.2866
    129  N        -27.4930  -13.1750   -6.9590 N.3   204  TYR204     -0.1241
    130  CA       -28.6020  -14.0950   -6.6220 C.3   204  TYR204      0.1605
    131  C        -28.8260  -15.1180   -7.7460 C.2   204  TYR204      0.2264
    132  O        -29.3900  -16.1750   -7.4970 O.2   204  TYR204     -0.2867
    133  CB       -29.9070  -13.3120   -6.4500 C.3   204  TYR204      0.0534
    134  CG       -30.1340  -12.6000   -5.1300 C.ar  204  TYR204     -0.0201
    135  CD1      -29.2000  -12.6820   -4.0910 C.ar  204  TYR204     -0.0009
    136  CD2      -31.3260  -11.9170   -4.8840 C.ar  204  TYR204     -0.0009
    137  CE1      -29.4270  -12.0460   -2.8610 C.ar  204  TYR204      0.0417
    138  CE2      -31.5550  -11.2700   -3.6700 C.ar  204  TYR204      0.0417
    139  CZ       -30.6000  -11.3270   -2.6630 C.ar  204  TYR204      0.1957
    140  OH       -30.8580  -10.6830   -1.4720 O.3   204  TYR204     -0.2866
    141  N        -34.2870  -15.6380  -10.0080 N.3   211  TYR211     -0.1241
    142  CA       -34.5600  -14.5080   -9.1230 C.3   211  TYR211      0.1605
    143  C        -34.7600  -13.1940   -9.8980 C.2   211  TYR211      0.2264
    144  O        -33.7900  -12.7450  -10.4940 O.2   211  TYR211     -0.2867
    145  CB       -33.5050  -14.3600   -8.0040 C.3   211  TYR211      0.0534
    146  CG       -34.1150  -13.7640   -6.7490 C.ar  211  TYR211     -0.0201
    147  CD1      -34.4150  -14.5640   -5.6500 C.ar  211  TYR211     -0.0009
    148  CD2      -34.5130  -12.4290   -6.7090 C.ar  211  TYR211     -0.0009
    149  CE1      -35.0690  -14.0420   -4.5280 C.ar  211  TYR211      0.0417
    150  CE2      -35.1890  -11.9020   -5.6070 C.ar  211  TYR211      0.0417
    151  CZ       -35.4760  -12.7150   -4.5220 C.ar  211  TYR211      0.1957
    152  OH       -36.1120  -12.1810   -3.4200 O.3   211  TYR211     -0.2866
    153  N        -35.5770   -4.4630  -10.7550 N.3   215  HIS215     -0.1226
    154  CA       -35.9630   -3.3230   -9.9180 C.3   215  HIS215      0.1752
    155  C        -34.9640   -3.0610   -8.7750 C.2   215  HIS215      0.2596
    156  O        -35.1580   -2.1130   -8.0080 O.2   215  HIS215     -0.2718
    157  CB       -37.3780   -3.5900   -9.3560 C.3   215  HIS215      0.0759
    158  CG       -37.4090   -4.8170   -8.4820 C.ar  215  HIS215      0.0818
    159  ND1      -37.2910   -4.7230   -7.1000 N.ar  215  HIS215     -0.2268
    160  CD2      -37.4350   -6.1270   -8.8270 C.ar  215  HIS215      0.1154
    161  CE1      -37.3260   -5.9670   -6.6530 C.ar  215  HIS215      0.1986
    162  NE2      -37.3910   -6.8460   -7.6560 N.ar  215  HIS215     -0.2212
    163  N        -33.9160   -3.9120   -8.6470 N.am  216  PHE216     -0.1962
    164  CA       -32.9020   -3.7880   -7.5990 C.3   216  PHE216      0.1771
    165  C        -32.1080   -2.4720   -7.6780 C.2   216  PHE216      0.2619
    166  O        -31.8610   -1.9430   -8.7650 O.2   216  PHE216     -0.2715
    167  CB       -31.9620   -5.0110   -7.5780 C.3   216  PHE216      0.0574
    168  CG       -32.4710   -6.2840   -6.9340 C.ar  216  PHE216     -0.0200
    169  CD1      -31.5910   -7.2990   -6.5780 C.ar  216  PHE216     -0.0042
    170  CD2      -33.8270   -6.4630   -6.6710 C.ar  216  PHE216     -0.0042
    171  CE1      -32.0550   -8.4780   -5.9790 C.ar  216  PHE216     -0.0003
    172  CE2      -34.2890   -7.6400   -6.0640 C.ar  216  PHE216     -0.0003
    173  CZ       -33.4000   -8.6370   -5.7140 C.ar  216  PHE216     -0.0000
    174  N        -31.7150   -1.9540   -6.5140 N.am  217  VAL217     -0.1977
    175  CA       -30.9510   -0.7040   -6.3930 C.3   217  VAL217      0.1596
    176  C        -29.4350   -0.9580   -6.5040 C.2   217  VAL217      0.2287
    177  O        -28.9620   -2.0360   -6.1520 O.2   217  VAL217     -0.2864
    178  CB       -31.3550    0.0970   -5.1200 C.3   217  VAL217      0.0276
    179  CG1      -30.3740    1.2230   -4.8320 C.3   217  VAL217      0.0022
    180  CG2      -32.7640    0.6580   -5.2570 C.3   217  VAL217      0.0022
@<TRIPOS>BOND
     1   153   154    1
     2   144   143    2
     3   116   114    1
     4   141   142    1
     5   154   157    1
     6   154   155    1
     7   143   142    1
     8   157   158    1
     9   142   145    1
    10   114   113    1
    11   160   158   ar
    12   160   162   ar
    13   155   163   am
    14   155   156    2
    15   166   165    2
    16   112   111    2
    17   163   164    1
    18   158   159   ar
    19   111   110    1
    20   113   110    1
    21   113   115    1
    22   145   146    1
    23   131   132    2
    24   131   130    1
    25   165   164    1
    26   165   174   am
    27   162   161   ar
    28   164   167    1
    29   167   168    1
    30   110   109    1
    31   159   161   ar
    32   129   130    1
    33   168   170   ar
    34   168   169   ar
    35   146   148   ar
    36   146   147   ar
    37   148   150   ar
    38   170   172   ar
    39   130   133    1
    40   169   171   ar
    41   174   175    1
    42   176   175    1
    43   176   177    2
    44   109   107   am
    45   133   134    1
    46   175   178    1
    47   172   173   ar
    48   171   173   ar
    49   147   149   ar
    50   150   151   ar
    51   107   108    2
    52   107   106    1
    53   180   178    1
    54   134   136   ar
    55   134   135   ar
    56   178   179    1
    57   136   138   ar
    58   149   151   ar
    59   151   152    1
    60   106   105    1
    61   135   137   ar
    62    29    28    1
    63   138   139   ar
    64   121   122    1
    65   121   118    1
    66   120   119    2
    67   123   122   ar
    68   123   125   ar
    69   105   101   am
    70   119   118    1
    71   122   124   ar
    72   125   127   ar
    73   137   139   ar
    74   139   140    1
    75   124   126   ar
    76    28    30    1
    77    28    27    2
    78    26    27    1
    79    26    25    1
    80   118   117    1
    81   127   126   ar
    82   127   128    1
    83   101   102    2
    84   101   100    1
    85    23    22    2
    86    24    25    1
    87    24    21    1
    88    38    37   ar
    89    58    57    2
    90    37    36    1
    91    37    39   ar
    92    36    35    1
    93    56    57    1
    94    56    59    1
    95    56    55    1
    96    22    21    1
    97    22    31   am
    98   103   100    1
    99   103   104    1
   100   100    99    1
   101    21    20    1
   102    57    63   am
   103    59    60    1
   104    32    35    1
   105    32    31    1
   106    32    33    1
   107    63    64    1
   108    65    64    1
   109    65    66    2
   110    99    93   am
   111    94    93    2
   112    64    67    1
   113    60    62   ar
   114    60    61   ar
   115    34    33    2
   116    93    92    1
   117    33    40   am
   118    97    95    1
   119    68    67    1
   120    40    41    1
   121    95    92    1
   122    95    96    1
   123    92    91    1
   124    91    82   am
   125    41    42    1
   126    72    71    2
   127    83    82    2
   128    96    98    1
   129    47    46    2
   130    82    81    1
   131    79    77    1
   132    71    70    1
   133    71    80   am
   134    42    43    2
   135    42    44   am
   136    70    69    1
   137    70    73    1
   138    46    45    1
   139    81    80    1
   140    81    84    1
   141    44    45    1
   142    77    78    1
   143    77    76    2
   144    73    74    1
   145    76    75    1
   146    45    48    1
   147    19    18   ar
   148    19    17   ar
   149    84    85    1
   150    18    16   ar
   151    17    15   ar
   152    74    75    1
   153    11    12    2
   154    11    10    1
   155    48    49    1
   156    86    85   ar
   157    86    88   ar
   158    16    14   ar
   159    15    14   ar
   160    85    87   ar
   161     7     6    1
   162    14    13    1
   163    10    13    1
   164    10     9    1
   165    49    51   ar
   166    49    50   ar
   167    51    53   ar
   168    88    90   ar
   169     8     6    1
   170    87    89   ar
   171     6     5    1
   172    50    52   ar
   173    90    89   ar
   174    53    54   ar
   175     5     2    1
   176    52    54   ar
   177     2     3    1
   178     2     1    1
   179     4     3    2
