@<TRIPOS>MOLECULE
tmp/4o33A01.pdb
 109 102 0 0 0
SMALL
GASTEIGER

@<TRIPOS>ATOM
      1  N         -9.1970   18.5070   29.5810 N.3    24  ASP24      -0.1239
      2  CA        -8.0190   17.6530   29.5600 C.3    24  ASP24       0.1674
      3  C         -7.0360   18.1710   30.5960 C.2    24  ASP24       0.2266
      4  O         -6.2640   19.0940   30.3360 O.2    24  ASP24      -0.2867
      5  CB        -7.3700   17.5570   28.1650 C.3    24  ASP24       0.1410
      6  CG        -6.2740   16.4810   28.0970 C.2    24  ASP24       0.3668
      7  OD1       -5.5110   16.3430   29.0770 O.co2  24  ASP24      -0.2456
      8  OD2       -6.1750   15.7600   27.0790 O.co2  24  ASP24      -0.2456
      9  N         -4.8600   16.0980   31.9710 N.3    26  ASN26      -0.1240
     10  CA        -3.8850   15.0310   31.9900 C.3    26  ASN26       0.1653
     11  C         -2.5080   15.6540   31.8860 C.2    26  ASN26       0.2266
     12  O         -1.8980   15.6210   30.9100 O.2    26  ASN26      -0.2867
     13  CB        -4.1230   14.1110   30.8160 C.3    26  ASN26       0.1155
     14  CG        -3.1840   12.9420   30.7580 C.2    26  ASN26       0.2627
     15  OD1       -2.6640   12.5040   31.7370 O.2    26  ASN26      -0.2716
     16  ND2       -3.0140   12.4120   29.5960 N.am   26  ASN26      -0.0877
     17  N         -1.8800   22.6500   30.3110 N.3    39  ARG39      -0.1245
     18  CA        -3.2280   22.1540   30.0210 C.3    39  ARG39       0.1563
     19  C         -4.2920   22.6840   30.9830 C.2    39  ARG39       0.2260
     20  O         -5.4510   22.8640   30.5970 O.2    39  ARG39      -0.2867
     21  CB        -3.2530   20.6300   29.9730 C.3    39  ARG39       0.0307
     22  CG        -2.8290   20.0970   28.6280 C.3    39  ARG39       0.0489
     23  CD        -2.6760   18.6070   28.6310 C.3    39  ARG39       0.2205
     24  NE        -2.6320   18.0860   27.2690 N.pl3  39  ARG39      -0.0865
     25  CZ        -2.5360   16.7990   26.9570 C.cat  39  ARG39       0.5346
     26  NH1       -2.5130   16.4290   25.6860 N.pl3  39  ARG39       0.1354
     27  NH2       -2.4690   15.8890   27.9110 N.pl3  39  ARG39       0.1354
     28  N         -9.3220   12.7230   32.8630 N.3    63  HIS63      -0.1241
     29  CA        -8.5320   11.5660   33.2320 C.3    63  HIS63       0.1621
     30  C         -7.1170   12.0360   33.5660 C.2    63  HIS63       0.2264
     31  O         -6.7560   13.1940   33.3350 O.2    63  HIS63      -0.2867
     32  CB        -8.4750   10.5700   32.0840 C.3    63  HIS63       0.0745
     33  CG        -7.6950   11.0660   30.9000 C.ar   63  HIS63       0.0817
     34  ND1       -8.2250   11.9470   29.9800 N.ar   63  HIS63      -0.2268
     35  CD2       -6.4270   10.8140   30.5090 C.ar   63  HIS63       0.1154
     36  CE1       -7.3080   12.2080   29.0610 C.ar   63  HIS63       0.1986
     37  NE2       -6.2150   11.5360   29.3470 N.ar   63  HIS63      -0.2212
     38  N         -3.2400   10.0690   33.2110 N.3    65  GLY65      -0.1210
     39  CA        -2.4630    8.8730   32.9440 C.3    65  GLY65       0.1956
     40  C         -3.3360    7.7390   32.4370 C.2    65  GLY65       0.2611
     41  O         -4.4290    7.9700   31.9210 O.2    65  GLY65      -0.2717
     42  N         -2.8590    6.5100   32.5760 N.am   66  ARG66      -0.1979
     43  CA        -3.5830    5.3700   32.0390 C.3    66  ARG66       0.1597
     44  C         -3.7420    4.2890   33.0770 C.2    66  ARG66       0.2287
     45  O         -3.0970    3.2440   32.9900 O.2    66  ARG66      -0.2864
     46  CB        -2.8790    4.8230   30.7940 C.3    66  ARG66       0.0334
     47  CG        -2.9890    5.7460   29.5850 C.3    66  ARG66       0.0492
     48  CD        -2.4670    5.1220   28.3100 C.3    66  ARG66       0.2205
     49  NE        -2.3510    6.1420   27.2650 N.pl3  66  ARG66      -0.0865
     50  CZ        -1.8820    5.9300   26.0370 C.cat  66  ARG66       0.5346
     51  NH1       -1.4700    4.7210   25.6770 N.pl3  66  ARG66       0.1354
     52  NH2       -1.8180    6.9380   25.1700 N.pl3  66  ARG66       0.1354
     53  N        -10.7190    7.6750   34.5550 N.3   123  ARG123     -0.1245
     54  CA       -10.2410    6.3650   34.1160 C.3   123  ARG123      0.1563
     55  C        -10.0220    5.3620   35.2390 C.2   123  ARG123      0.2260
     56  O         -9.4650    4.2830   35.0130 O.2   123  ARG123     -0.2867
     57  CB        -8.9680    6.5080   33.2770 C.3   123  ARG123      0.0307
     58  CG        -9.2270    7.0290   31.8760 C.3   123  ARG123      0.0489
     59  CD        -7.9450    7.2270   31.1120 C.3   123  ARG123      0.2205
     60  NE        -8.2440    7.8760   29.8380 N.pl3 123  ARG123     -0.0865
     61  CZ        -7.3500    8.1280   28.8990 C.cat 123  ARG123      0.5346
     62  NH1       -6.0820    7.7830   29.0760 N.pl3 123  ARG123      0.1354
     63  NH2       -7.7260    8.7350   27.7930 N.pl3 123  ARG123      0.1354
     64  N         -7.3460   18.0090   23.9360 N.3   167  GLY167     -0.1210
     65  CA        -6.2930   17.0020   23.9850 C.3   167  GLY167      0.1956
     66  C         -6.8090   15.5800   23.9680 C.2   167  GLY167      0.2612
     67  O         -6.0770   14.6360   23.6740 O.2   167  GLY167     -0.2717
     68  N         -8.0920   15.4270   24.2720 N.am  168  THR168     -0.1952
     69  CA        -8.6960   14.1080   24.3730 C.3   168  THR168      0.1897
     70  C         -9.7670   13.9230   23.3060 C.2   168  THR168      0.2313
     71  O        -10.4230   12.8870   23.2430 O.2   168  THR168     -0.2863
     72  CB        -9.3000   13.9040   25.7810 C.3   168  THR168      0.1794
     73  OG1       -8.2840   14.1380   26.7670 O.3   168  THR168     -0.2208
     74  CG2       -9.8590   12.4870   25.9590 C.3   168  THR168      0.0378
     75  N         -9.9100   13.1110   20.3560 N.3   170  HIS170     -0.1226
     76  CA        -9.8440   11.9400   19.4840 C.3   170  HIS170      0.1752
     77  C        -10.2430   10.6490   20.1870 C.2   170  HIS170      0.2595
     78  O        -10.2120    9.5880   19.5730 O.2   170  HIS170     -0.2718
     79  CB        -8.4460   11.7760   18.8800 C.3   170  HIS170      0.0759
     80  CG        -7.3460   11.6710   19.8960 C.ar  170  HIS170      0.0818
     81  ND1       -7.2660   12.5020   20.9960 N.ar  170  HIS170     -0.2268
     82  CD2       -6.2760   10.8480   19.9650 C.ar  170  HIS170      0.1154
     83  CE1       -6.1910   12.1920   21.7000 C.ar  170  HIS170      0.1986
     84  NE2       -5.5730   11.1860   21.0990 N.ar  170  HIS170     -0.2212
     85  N        -10.6110   10.7250   21.4670 N.am  171  ARG171     -0.1980
     86  CA       -10.9960    9.5210   22.2170 C.3   171  ARG171      0.1597
     87  C        -12.5090    9.4280   22.3180 C.2   171  ARG171      0.2287
     88  O        -13.1520   10.3610   22.7970 O.2   171  ARG171     -0.2864
     89  CB       -10.3940    9.5500   23.6280 C.3   171  ARG171      0.0334
     90  CG        -8.8750    9.6050   23.6660 C.3   171  ARG171      0.0492
     91  CD        -8.2240    8.4530   22.9170 C.3   171  ARG171      0.2205
     92  NE        -6.7900    8.3910   23.1960 N.pl3 171  ARG171     -0.0865
     93  CZ        -5.9050    7.7430   22.4480 C.cat 171  ARG171      0.5346
     94  NH1       -6.3040    7.1060   21.3580 N.pl3 171  ARG171      0.1354
     95  NH2       -4.6190    7.7370   22.7830 N.pl3 171  ARG171      0.1354
     96  N        -14.5430    8.2760   24.3450 N.3   173  HIS173     -0.1241
     97  CA       -14.7520    7.8080   25.7070 C.3   173  HIS173      0.1621
     98  C        -16.0430    8.4010   26.2910 C.2   173  HIS173      0.2264
     99  O        -16.5300    9.4180   25.7980 O.2   173  HIS173     -0.2867
    100  CB       -13.5440    8.2170   26.5490 C.3   173  HIS173      0.0745
    101  CG       -12.2620    7.5800   26.1050 C.ar  173  HIS173      0.0817
    102  ND1      -11.0380    7.9530   26.6230 N.ar  173  HIS173     -0.2268
    103  CD2      -12.0140    6.5960   25.2130 C.ar  173  HIS173      0.1154
    104  CE1      -10.0870    7.2240   26.0590 C.ar  173  HIS173      0.1986
    105  NE2      -10.6600    6.3850   25.2010 N.ar  173  HIS173     -0.2212
    106  N         -1.6540   14.1630   20.4720 N.3   397  GLY397     -0.1225
    107  CA        -2.3020   13.0710   19.7650 C.3   397  GLY397      0.1811
    108  C         -3.4840   13.5350   18.9300 C.2   397  GLY397      0.2280
    109  O         -3.7240   13.0430   17.8250 O.2   397  GLY397     -0.2866
@<TRIPOS>BOND
     1   109   108    2
     2    79    76    1
     3    79    80    1
     4   108   107    1
     5    76    77    1
     6    76    75    1
     7    78    77    2
     8   107   106    1
     9    80    82   ar
    10    80    81   ar
    11    82    84   ar
    12    77    85   am
    13    81    83   ar
    14    84    83   ar
    15    94    93    1
    16    85    86    1
    17    86    87    1
    18    86    89    1
    19    87    88    2
    20    93    95    1
    21    93    92    2
    22    91    92    1
    23    91    90    1
    24    71    70    2
    25    70    69    1
    26    89    90    1
    27    67    66    2
    28    64    65    1
    29    66    65    1
    30    66    68   am
    31    68    69    1
    32    96    97    1
    33    69    72    1
    34    52    50    1
    35   105   103   ar
    36   105   104   ar
    37   103   101   ar
    38    51    50    1
    39    26    25    1
    40    97    98    1
    41    97   100    1
    42    72    74    1
    43    72    73    1
    44    99    98    2
    45    50    49    2
    46   104   102   ar
    47   101   100    1
    48   101   102   ar
    49    25    24    2
    50    25    27    1
    51     8     6   ar
    52    49    48    1
    53    24    23    1
    54    63    61    1
    55     6     5    1
    56     6     7   ar
    57     5     2    1
    58    48    47    1
    59    22    23    1
    60    22    21    1
    61    61    62    1
    62    61    60    2
    63    36    37   ar
    64    36    34   ar
    65    37    35   ar
    66     2     1    1
    67     2     3    1
    68    47    46    1
    69    16    14   am
    70    60    59    1
    71    21    18    1
    72    34    33   ar
    73    18    17    1
    74    18    19    1
    75     4     3    2
    76    35    33   ar
    77    20    19    2
    78    14    13    1
    79    14    15    2
    80    46    43    1
    81    13    10    1
    82    33    32    1
    83    12    11    2
    84    59    58    1
    85    58    57    1
    86    11    10    1
    87    41    40    2
    88     9    10    1
    89    43    42    1
    90    43    44    1
    91    32    29    1
    92    40    42   am
    93    40    39    1
    94    28    29    1
    95    39    38    1
    96    45    44    2
    97    29    30    1
    98    57    54    1
    99    31    30    2
   100    54    53    1
   101    54    55    1
   102    56    55    2
