@<TRIPOS>MOLECULE
tmp/4o33A00.pdb
 156 151 0 0 0
SMALL
GASTEIGER

@<TRIPOS>ATOM
      1  N         10.6440   14.4400   15.5150 N.3   214  GLY214     -0.1210
      2  CA        10.3680   13.4310   16.5140 C.3   214  GLY214      0.1956
      3  C         11.0280   12.1480   16.1220 C.2   214  GLY214      0.2611
      4  O         11.7090   12.1250   15.1620 O.2   214  GLY214     -0.2717
      5  N         10.8650   11.0890   16.8860 N.am  215  ALA215     -0.1979
      6  CA        11.5800    9.8240   16.5970 C.3   215  ALA215      0.1597
      7  C         11.3210    8.8590   15.4430 C.2   215  ALA215      0.2287
      8  O         12.1960    8.5780   14.6450 O.2   215  ALA215     -0.2864
      9  CB        11.5920    9.0130   17.8330 C.3   215  ALA215      0.0319
     10  N         14.6840   15.4740   12.8870 N.3   238  GLY238     -0.1210
     11  CA        14.6780   14.5270   13.9810 C.3   238  GLY238      0.1956
     12  C         14.9370   13.1040   13.5220 C.2   238  GLY238      0.2612
     13  O         15.6640   12.8690   12.5540 O.2   238  GLY238     -0.2717
     14  N         14.3280   12.1530   14.2190 N.am  239  GLY239     -0.1956
     15  CA        14.5850   10.7450   13.9870 C.3   239  GLY239      0.1869
     16  C         14.2460   10.2460   12.6010 C.2   239  GLY239      0.2309
     17  O         14.9480    9.3870   12.0720 O.2   239  GLY239     -0.2863
     18  N         16.7430    9.9900    8.9450 N.3   242  PHE242     -0.1241
     19  CA        17.7270    8.9890    8.5450 C.3   242  PHE242      0.1605
     20  C         17.1770    7.9310    7.6120 C.2   242  PHE242      0.2264
     21  O         17.9150    7.3570    6.8210 O.2   242  PHE242     -0.2867
     22  CB        18.3760    8.3490    9.7720 C.3   242  PHE242      0.0534
     23  CG        19.1290    9.3290   10.6110 C.ar  242  PHE242     -0.0203
     24  CD1       20.3570    9.8160   10.1880 C.ar  242  PHE242     -0.0042
     25  CD2       18.5960    9.7900   11.8090 C.ar  242  PHE242     -0.0042
     26  CE1       21.0520   10.7440   10.9540 C.ar  242  PHE242     -0.0003
     27  CE2       19.2780   10.7120   12.5760 C.ar  242  PHE242     -0.0003
     28  CZ        20.5070   11.1920   12.1550 C.ar  242  PHE242     -0.0000
     29  N         24.2020    3.5880   13.7640 N.3   255  THR255     -0.1203
     30  CA        23.1140    3.0110   14.5390 C.3   255  THR255      0.1994
     31  C         21.9500    3.9930   14.7100 C.2   255  THR255      0.2619
     32  O         21.1280    3.8470   15.6170 O.2   255  THR255     -0.2717
     33  CB        23.6130    2.5400   15.8960 C.3   255  THR255      0.1784
     34  OG1       24.2410    3.6340   16.5750 O.3   255  THR255     -0.2211
     35  CG2       24.6180    1.4270   15.7250 C.3   255  THR255      0.0376
     36  N         21.8890    4.9930   13.8350 N.am  256  SER256     -0.1937
     37  CA        20.8150    5.9690   13.8660 C.3   256  SER256      0.2055
     38  C         19.4800    5.2650   13.6700 C.2   256  SER256      0.2642
     39  O         19.4350    4.1800   13.0960 O.2   256  SER256     -0.2714
     40  CB        21.0280    7.0140   12.7770 C.3   256  SER256      0.2130
     41  OG        22.3120    7.5860   12.8810 O.3   256  SER256     -0.2179
     42  N         18.4070    5.8750   14.1710 N.am  257  LEU257     -0.1977
     43  CA        17.0620    5.3240   14.0330 C.3   257  LEU257      0.1596
     44  C         16.8030    5.0010   12.5730 C.2   257  LEU257      0.2287
     45  O         16.9950    5.8550   11.7080 O.2   257  LEU257     -0.2864
     46  CB        16.0200    6.3430   14.4920 C.3   257  LEU257      0.0297
     47  CG        15.8610    6.5720   15.9880 C.3   257  LEU257      0.0022
     48  CD1       14.8870    7.7030   16.2630 C.3   257  LEU257      0.0001
     49  CD2       15.4050    5.2910   16.6470 C.3   257  LEU257      0.0001
     50  N         24.9930   16.5510   11.0410 N.3   286  PHE286     -0.1241
     51  CA        24.5030   15.9610   12.2750 C.3   286  PHE286      0.1605
     52  C         25.4940   16.0970   13.4100 C.2   286  PHE286      0.2264
     53  O         26.7120   16.1650   13.1950 O.2   286  PHE286     -0.2867
     54  CB        24.2290   14.4670   12.0540 C.3   286  PHE286      0.0534
     55  CG        23.3510   14.1950   10.8850 C.ar  286  PHE286     -0.0203
     56  CD1       21.9770   14.2840   11.0060 C.ar  286  PHE286     -0.0042
     57  CD2       23.9000   13.8880    9.6510 C.ar  286  PHE286     -0.0042
     58  CE1       21.1580   14.0650    9.9140 C.ar  286  PHE286     -0.0003
     59  CE2       23.0860   13.6690    8.5500 C.ar  286  PHE286     -0.0003
     60  CZ        21.7130   13.7580    8.6890 C.ar  286  PHE286     -0.0000
     61  N         26.7540    6.4960   21.7770 N.3   291  LYS291     -0.1231
     62  CA        25.6960    5.7070   22.3970 C.3   291  LYS291      0.1693
     63  C         24.5640    6.6520   22.7870 C.2   291  LYS291      0.2592
     64  O         24.7530    7.8660   22.8020 O.2   291  LYS291     -0.2718
     65  CB        26.2260    4.9670   23.6260 C.3   291  LYS291      0.0285
     66  CG        26.7470    5.8610   24.7310 C.3   291  LYS291      0.0035
     67  CD        27.5380    5.0090   25.7160 C.3   291  LYS291      0.0206
     68  CE        28.4900    5.8400   26.5670 C.3   291  LYS291      0.1093
     69  NZ        27.7800    6.5720   27.6710 N.3   291  LYS291     -0.1314
     70  N         23.4020    6.1050   23.1140 N.am  292  PHE292     -0.1976
     71  CA        22.2420    6.9340   23.4350 C.3   292  PHE292      0.1639
     72  C         22.2550    7.3940   24.9000 C.2   292  PHE292      0.2290
     73  O         21.5480    6.8580   25.7550 O.2   292  PHE292     -0.2864
     74  CB        20.9470    6.1940   23.1030 C.3   292  PHE292      0.0560
     75  CG        19.7150    7.0550   23.2010 C.ar  292  PHE292     -0.0200
     76  CD1       19.5400    8.1540   22.3600 C.ar  292  PHE292     -0.0042
     77  CD2       18.7240    6.7550   24.1190 C.ar  292  PHE292     -0.0042
     78  CE1       18.3950    8.9410   22.4490 C.ar  292  PHE292     -0.0003
     79  CE2       17.5770    7.5310   24.2180 C.ar  292  PHE292     -0.0003
     80  CZ        17.4100    8.6300   23.3860 C.ar  292  PHE292     -0.0000
     81  N         28.6670    2.3100   14.5560 N.3   310  GLY310     -0.1225
     82  CA        28.6910    2.3520   16.0100 C.3   310  GLY310      0.1811
     83  C         28.1440    3.6640   16.5600 C.2   310  GLY310      0.2280
     84  O         27.8150    3.7700   17.7470 O.2   310  GLY310     -0.2866
     85  N         25.5280    7.2650   16.2200 N.3   312  MET312     -0.1230
     86  CA        24.1740    7.6250   15.8430 C.3   312  MET312      0.1702
     87  C         24.0040    9.1410   15.7740 C.2   312  MET312      0.2593
     88  O         24.6630    9.8950   16.5100 O.2   312  MET312     -0.2718
     89  CB        23.1890    7.0210   16.8460 C.3   312  MET312      0.0401
     90  CG        23.3460    7.5770   18.2600 C.3   312  MET312      0.0596
     91  SD        22.5160    6.6400   19.5760 S.3   312  MET312     -0.1393
     92  CE        23.6960    5.3280   19.8930 C.3   312  MET312      0.0692
     93  N         23.1200    9.5850   14.8820 N.am  313  GLY313     -0.1942
     94  CA        22.7760   10.9960   14.7710 C.3   313  GLY313      0.2014
     95  C         21.6700   11.3320   15.7670 C.2   313  GLY313      0.2639
     96  O         20.5760   10.7720   15.7020 O.2   313  GLY313     -0.2714
     97  N         21.9530   12.2520   16.6850 N.am  314  LEU314     -0.1963
     98  CA        21.0070   12.6040   17.7390 C.3   314  LEU314      0.1728
     99  C         20.5320   14.0530   17.6260 C.2   314  LEU314      0.2616
    100  O         19.6840   14.5060   18.4010 O.2   314  LEU314     -0.2715
    101  CB        21.6460   12.3820   19.1050 C.3   314  LEU314      0.0311
    102  CG        21.9260   10.9370   19.4900 C.3   314  LEU314      0.0022
    103  CD1       22.2610   10.8650   20.9800 C.3   314  LEU314      0.0001
    104  CD2       20.7050   10.0820   19.1600 C.3   314  LEU314      0.0001
    105  N         21.0960   14.7800   16.6670 N.am  315  ASP315     -0.1971
    106  CA        20.6730   16.1440   16.3780 C.3   315  ASP315      0.1709
    107  C         21.1890   16.5570   15.0060 C.2   315  ASP315      0.2293
    108  O         22.1610   15.9860   14.5100 O.2   315  ASP315     -0.2864
    109  CB        21.2090   17.1070   17.4380 C.3   315  ASP315      0.1436
    110  CG        20.6310   18.5160   17.3030 C.2   315  ASP315      0.3671
    111  OD1       19.5680   18.6760   16.6550 O.co2 315  ASP315     -0.2456
    112  OD2       21.2470   19.4640   17.8500 O.co2 315  ASP315     -0.2456
    113  N         10.4040   17.8590   17.6180 N.3   339  PRO339     -0.2102
    114  CA        11.7440   18.4580   17.6240 C.3   339  PRO339      0.1504
    115  C         12.6780   17.7740   16.6280 C.2   339  PRO339      0.2576
    116  O         12.3860   16.6660   16.1500 O.2   339  PRO339     -0.2718
    117  CB        12.2430   18.2390   19.0680 C.3   339  PRO339      0.0282
    118  CG        11.2450   17.3080   19.7210 C.3   339  PRO339      0.0208
    119  CD         9.9480   17.4770   18.9660 C.3   339  PRO339      0.0893
    120  N         13.7970   18.4280   16.3350 N.am  340  VAL340     -0.1966
    121  CA        14.7100   17.9450   15.3120 C.3   340  VAL340      0.1727
    122  C         15.9830   17.3460   15.8970 C.2   340  VAL340      0.2617
    123  O         16.9630   17.1530   15.1890 O.2   340  VAL340     -0.2715
    124  CB        15.0530   19.0600   14.3020 C.3   340  VAL340      0.0290
    125  CG1       13.8310   19.4340   13.4990 C.3   340  VAL340      0.0023
    126  CG2       15.6020   20.2870   15.0300 C.3   340  VAL340      0.0023
    127  N         15.9710   17.0850   17.1820 N.am  341  GLY341     -0.1940
    128  CA        17.0580   16.4970   17.9280 C.3   341  GLY341      0.2014
    129  C         16.6250   16.0960   19.3450 C.2   341  GLY341      0.2639
    130  O         15.5490   16.3850   19.7450 O.2   341  GLY341     -0.2714
    131  N         17.4930   15.4480   20.0880 N.am  342  VAL342     -0.1963
    132  CA        17.2010   14.9920   21.4110 C.3   342  VAL342      0.1727
    133  C         17.3720   16.1590   22.3650 C.2   342  VAL342      0.2616
    134  O         18.3310   16.3070   23.0370 O.2   342  VAL342     -0.2715
    135  CB        18.0730   13.8000   21.7550 C.3   342  VAL342      0.0290
    136  CG1       17.8370   13.3290   23.1340 C.3   342  VAL342      0.0023
    137  CG2       17.8360   12.7000   20.7940 C.3   342  VAL342      0.0023
    138  N         16.3460   16.9720   22.3840 N.am  343  PHE343     -0.1974
    139  CA        16.3140   18.2720   22.9990 C.3   343  PHE343      0.1639
    140  C         16.5410   18.2460   24.4830 C.2   343  PHE343      0.2290
    141  O         16.9920   19.1700   25.0170 O.2   343  PHE343     -0.2864
    142  CB        15.0390   19.0460   22.6630 C.3   343  PHE343      0.0560
    143  CG        13.8420   18.4640   23.2400 C.ar  343  PHE343     -0.0200
    144  CD1       13.3060   18.9740   24.3430 C.ar  343  PHE343     -0.0042
    145  CD2       13.3070   17.3720   22.7060 C.ar  343  PHE343     -0.0042
    146  CE1       12.2380   18.4080   24.8790 C.ar  343  PHE343     -0.0003
    147  CE2       12.2520   16.8120   23.2380 C.ar  343  PHE343     -0.0003
    148  CZ        11.7100   17.3080   24.3230 C.ar  343  PHE343     -0.0000
    149  N          6.3000   16.8570   22.6500 N.3   375  ASP375     -0.1239
    150  CA         7.6480   17.3690   22.8910 C.3   375  ASP375      0.1674
    151  C          7.8450   18.8160   22.4480 C.2   375  ASP375      0.2266
    152  O          8.5590   19.5810   23.0900 O.2   375  ASP375     -0.2867
    153  CB         8.6690   16.4700   22.1890 C.3   375  ASP375      0.1410
    154  CG         8.6590   15.0440   22.7200 C.2   375  ASP375      0.3668
    155  OD1        7.9870   14.7940   23.7420 O.co2 375  ASP375     -0.2456
    156  OD2        9.3320   14.1690   22.1210 O.co2 375  ASP375     -0.2456
@<TRIPOS>BOND
     1    21    20    2
     2    20    19    1
     3    19    18    1
     4    19    22    1
     5    59    60   ar
     6    59    57   ar
     7    60    58   ar
     8    57    55   ar
     9    22    23    1
    10    58    56   ar
    11    24    23   ar
    12    24    26   ar
    13    23    25   ar
    14    55    56   ar
    15    55    54    1
    16    26    28   ar
    17    50    51    1
    18    45    44    2
    19    25    27   ar
    20    54    51    1
    21    17    16    2
    22    28    27   ar
    23    51    52    1
    24    13    12    2
    25    44    43    1
    26    16    15    1
    27    40    41    1
    28    40    37    1
    29    10    11    1
    30    39    38    2
    31    53    52    2
    32   125   124    1
    33    12    11    1
    34    12    14   am
    35    38    37    1
    36    38    42   am
    37    29    30    1
    38    36    37    1
    39    36    31   am
    40    15    14    1
    41    43    42    1
    42    43    46    1
    43   124   126    1
    44   124   121    1
    45    46    47    1
    46   108   107    2
    47    30    31    1
    48    30    33    1
    49    81    82    1
    50     8     7    2
    51    31    32    2
    52    94    93    1
    53    94    95    1
    54    93    87   am
    55   107   106    1
    56     4     3    2
    57   123   122    2
    58   121   122    1
    59   121   120    1
    60     7     6    1
    61     1     2    1
    62    96    95    2
    63    35    33    1
    64    95    97   am
    65    87    86    1
    66    87    88    2
    67    86    85    1
    68    86    89    1
    69    33    34    1
    70   122   127   am
    71    47    48    1
    72    47    49    1
    73    82    83    1
    74     3     2    1
    75     3     5   am
    76   116   115    2
    77   120   115   am
    78   106   105    1
    79   106   109    1
    80    83    84    2
    81     6     5    1
    82     6     9    1
    83   115   114    1
    84   111   110   ar
    85   105    99   am
    86    97    98    1
    87    89    90    1
    88   127   128    1
    89   110   109    1
    90   110   112   ar
    91   113   114    1
    92   113   119    1
    93   114   117    1
    94    99    98    1
    95    99   100    2
    96    98   101    1
    97   128   129    1
    98    90    91    1
    99   119   118    1
   100   117   118    1
   101   101   102    1
   102   104   102    1
   103   129   130    2
   104   129   131   am
   105   102   103    1
   106    91    92    1
   107   131   132    1
   108   137   135    1
   109   132   135    1
   110   132   133    1
   111   135   136    1
   112    61    62    1
   113   156   154   ar
   114   153   154    1
   115   153   150    1
   116    76    78   ar
   117    76    75   ar
   118   133   138   am
   119   133   134    2
   120   138   139    1
   121    62    63    1
   122    62    65    1
   123   151   150    1
   124   151   152    2
   125    78    80   ar
   126   149   150    1
   127   142   139    1
   128   142   143    1
   129   145   147   ar
   130   145   143   ar
   131   154   155   ar
   132    63    64    2
   133    63    70   am
   134   139   140    1
   135    74    75    1
   136    74    71    1
   137    70    71    1
   138    75    77   ar
   139   147   148   ar
   140   143   144   ar
   141    80    79   ar
   142    71    72    1
   143    65    66    1
   144    77    79   ar
   145   148   146   ar
   146   144   146   ar
   147   140   141    2
   148    66    67    1
   149    72    73    2
   150    67    68    1
   151    68    69    1
