@<TRIPOS>MOLECULE
tmp/4o36B00.pdb
 151 147 0 0 0
SMALL
GASTEIGER

@<TRIPOS>ATOM
      1  N        -23.3550   -1.0590    8.1470 N.3    10  ARG10      -0.1231
      2  CA       -22.1560   -1.0040    8.9920 C.3    10  ARG10       0.1694
      3  C        -21.3080    0.1750    8.6830 C.2    10  ARG10       0.2592
      4  O        -20.2000    0.2660    9.1870 O.2    10  ARG10      -0.2718
      5  CB       -21.4120   -2.2950    8.8240 C.3    10  ARG10       0.0321
      6  CG       -22.2330   -3.5330    9.3010 C.3    10  ARG10       0.0489
      7  CD       -22.6660   -3.3810   10.7520 C.3    10  ARG10       0.2205
      8  NE       -23.2610   -4.6180   11.2300 N.pl3  10  ARG10      -0.0865
      9  CZ       -22.5710   -5.7150   11.5620 C.cat  10  ARG10       0.5346
     10  NH1      -21.2920   -5.7050   11.5980 N.pl3  10  ARG10       0.1354
     11  NH2      -23.1940   -6.8180   11.9010 N.pl3  10  ARG10       0.1354
     12  N        -21.7970    1.1540    7.9410 N.am   11  ASN11      -0.1960
     13  CA       -21.1070    2.3990    7.7010 C.3    11  ASN11       0.1819
     14  C        -19.8180    2.2600    6.9400 C.2    11  ASN11       0.2621
     15  O        -18.7990    2.8850    7.3010 O.2    11  ASN11      -0.2715
     16  CB       -20.9120    3.1530    9.0380 C.3    11  ASN11       0.1195
     17  CG       -20.5030    4.6340    8.8480 C.2    11  ASN11       0.2630
     18  OD1      -20.7950    5.2660    7.8300 O.2    11  ASN11      -0.2716
     19  ND2      -19.7320    5.1600    9.8180 N.am   11  ASN11      -0.0877
     20  N        -19.8830    1.4300    5.8950 N.am   12  LEU12      -0.1977
     21  CA       -18.7860    1.3570    4.9560 C.3    12  LEU12       0.1596
     22  C        -19.0360    2.1370    3.7160 C.2    12  LEU12       0.2287
     23  O        -18.0960    2.7600    3.2160 O.2    12  LEU12      -0.2864
     24  CB       -18.4310   -0.1240    4.6970 C.3    12  LEU12       0.0297
     25  CG       -17.7730   -0.7530    5.9270 C.3    12  LEU12       0.0022
     26  CD1      -17.5920   -2.2190    5.8190 C.3    12  LEU12       0.0001
     27  CD2      -16.4370   -0.0780    6.1840 C.3    12  LEU12       0.0001
     28  N        -16.5730    1.4270   -0.9210 N.3    18  LYS18      -0.1245
     29  CA       -15.3810    0.6780   -0.5860 C.3    18  LYS18       0.1561
     30  C        -15.1820   -0.4780   -1.5580 C.2    18  LYS18       0.2260
     31  O        -16.1210   -1.2890   -1.7440 O.2    18  LYS18      -0.2867
     32  CB       -15.4950    0.2500    0.8700 C.3    18  LYS18       0.0271
     33  CG       -14.3260   -0.4540    1.4810 C.3    18  LYS18       0.0035
     34  CD       -14.4570   -0.4900    2.9810 C.3    18  LYS18       0.0206
     35  CE       -13.4600   -1.4430    3.6120 C.3    18  LYS18       0.1093
     36  NZ       -12.1750   -1.6020    2.8660 N.3    18  LYS18      -0.1314
     37  N        -14.8190   -5.7600    1.1370 N.3    21  ASN21      -0.1225
     38  CA       -14.8970   -5.9950    2.5460 C.3    21  ASN21       0.1785
     39  C        -15.3940   -7.4030    2.7860 C.2    21  ASN21       0.2598
     40  O        -16.2180   -7.8890    2.0240 O.2    21  ASN21      -0.2718
     41  CB       -15.9210   -5.0440    3.1910 C.3    21  ASN21       0.1169
     42  CG       -15.8720   -5.0970    4.6860 C.2    21  ASN21       0.2627
     43  OD1      -14.8820   -4.6760    5.2980 O.2    21  ASN21      -0.2716
     44  ND2      -16.9980   -5.5130    5.3050 N.am   21  ASN21      -0.0877
     45  N        -14.9800   -7.9700    3.8960 N.am   22  THR22      -0.1939
     46  CA       -15.3160   -9.3160    4.3010 C.3    22  THR22       0.2028
     47  C        -16.1140   -9.3080    5.6110 C.2    22  THR22       0.2642
     48  O        -15.7470   -8.6880    6.5870 O.2    22  THR22      -0.2714
     49  CB       -14.0020  -10.1730    4.5610 C.3    22  THR22       0.1808
     50  OG1      -13.1530   -9.9420    3.4370 O.3    22  THR22      -0.2208
     51  CG2      -14.3070  -11.6200    4.7820 C.3    22  THR22       0.0379
     52  N        -17.2300  -10.0830    5.6190 N.am   23  PHE23      -0.1959
     53  CA       -18.0070  -10.3100    6.8220 C.3    23  PHE23       0.1771
     54  C        -17.8340  -11.7560    7.2390 C.2    23  PHE23       0.2619
     55  O        -17.8570  -12.6680    6.3980 O.2    23  PHE23      -0.2715
     56  CB       -19.5400  -10.0600    6.5670 C.3    23  PHE23       0.0574
     57  CG       -19.7870   -8.5830    6.3060 C.ar   23  PHE23      -0.0200
     58  CD1      -19.8030   -7.6720    7.3490 C.ar   23  PHE23      -0.0042
     59  CD2      -19.9800   -8.1270    5.0310 C.ar   23  PHE23      -0.0042
     60  CE1      -20.0460   -6.2830    7.1230 C.ar   23  PHE23      -0.0003
     61  CE2      -20.2470   -6.7600    4.7970 C.ar   23  PHE23      -0.0003
     62  CZ       -20.2790   -5.8690    5.8160 C.ar   23  PHE23      -0.0000
     63  N        -17.6880  -11.9350    8.5340 N.am   24  VAL24      -0.1977
     64  CA       -17.4260  -13.3040    9.1210 C.3    24  VAL24       0.1596
     65  C        -18.6640  -13.6680    9.9270 C.2    24  VAL24       0.2287
     66  O        -19.0810  -12.9480   10.8510 O.2    24  VAL24      -0.2864
     67  CB       -16.1960  -13.2370   10.0440 C.3    24  VAL24       0.0276
     68  CG1      -15.9540  -14.6210   10.6050 C.3    24  VAL24       0.0022
     69  CG2      -14.9430  -12.6730    9.3000 C.3    24  VAL24       0.0022
     70  N        -18.2370  -13.1790   17.9000 N.3    28  LEU28      -0.1245
     71  CA       -17.0860  -12.2250   18.0900 C.3    28  LEU28       0.1561
     72  C        -15.9630  -12.9180   18.8430 C.2    28  LEU28       0.2260
     73  O        -14.7870  -12.7490   18.4760 O.2    28  LEU28      -0.2867
     74  CB       -17.4550  -10.8990   18.7990 C.3    28  LEU28       0.0270
     75  CG       -16.3660   -9.9650   19.4070 C.3    28  LEU28       0.0019
     76  CD1      -15.6530   -9.2710   18.2840 C.3    28  LEU28       0.0001
     77  CD2      -17.0730   -8.9550   20.3330 C.3    28  LEU28       0.0001
     78  N        -13.7250  -15.1310   16.6420 N.3    31  VAL31      -0.1231
     79  CA       -12.7700  -14.4010   15.8210 C.3    31  VAL31       0.1692
     80  C        -11.7000  -13.7630   16.7080 C.2    31  VAL31       0.2591
     81  O        -10.5460  -13.8430   16.3610 O.2    31  VAL31      -0.2718
     82  CB       -13.5050  -13.3360   14.9460 C.3    31  VAL31       0.0266
     83  CG1      -12.5760  -12.3830   14.2280 C.3    31  VAL31       0.0020
     84  CG2      -14.3260  -14.0980   13.9490 C.3    31  VAL31       0.0020
     85  N        -12.0020  -13.2580   17.8850 N.am   32  GLN32      -0.1979
     86  CA       -10.9860  -12.7290   18.7830 C.3    32  GLN32       0.1601
     87  C         -9.9840  -13.8370   19.1430 C.2    32  GLN32       0.2287
     88  O         -8.8010  -13.5210   19.3410 O.2    32  GLN32      -0.2864
     89  CB       -11.6640  -12.2350   20.0400 C.3    32  GLN32       0.0394
     90  CG       -12.4210  -10.9080   19.8720 C.3    32  GLN32       0.0908
     91  CD       -13.2320  -10.5470   21.1110 C.2    32  GLN32       0.2608
     92  OE1      -13.7150  -11.4140   21.8480 O.2    32  GLN32      -0.2717
     93  NE2      -13.4650   -9.2550   21.3020 N.am   32  GLN32      -0.0878
     94  N         -5.8740  -12.0860   10.3670 N.3    85  VAL85      -0.1245
     95  CA        -6.1080  -10.7990   10.9570 C.3    85  VAL85       0.1561
     96  C         -4.8360  -10.2440   11.6120 C.2    85  VAL85       0.2260
     97  O         -3.8980  -11.0090   11.9410 O.2    85  VAL85      -0.2867
     98  CB        -7.1880  -10.8780   12.0450 C.3    85  VAL85       0.0252
     99  CG1       -8.5070  -11.3190   11.4770 C.3    85  VAL85       0.0019
    100  CG2       -6.8660  -11.8060   13.2190 C.3    85  VAL85       0.0019
    101  N         -3.5060   -6.3200   17.9560 N.3    88  GLU88      -0.1245
    102  CA        -2.7320   -5.2350   18.6020 C.3    88  GLU88       0.1567
    103  C         -3.4100   -4.9740   19.8980 C.2    88  GLU88       0.2260
    104  O         -4.5930   -5.1800   19.9800 O.2    88  GLU88      -0.2867
    105  CB        -2.7180   -3.9740   17.7190 C.3    88  GLU88       0.0388
    106  CG        -1.7890   -2.8570   18.1890 C.3    88  GLU88       0.1160
    107  CD        -1.9070   -1.5860   17.3490 C.2    88  GLU88       0.3649
    108  OE1       -2.3820   -1.6320   16.0940 O.co2  88  GLU88      -0.2457
    109  OE2       -1.4540   -0.4880   17.9450 O.co2  88  GLU88      -0.2457
    110  N         -6.2690   -8.0980   20.4060 N.3    93  VAL93      -0.1231
    111  CA        -7.5000   -8.3470   19.6390 C.3    93  VAL93       0.1678
    112  C         -7.3090   -7.9520   18.2050 C.2    93  VAL93       0.2434
    113  O         -6.4120   -7.2010   17.8410 O.2    93  VAL93      -0.2733
    114  CB        -8.7420   -7.5940   20.2420 C.3    93  VAL93       0.0265
    115  CG1       -9.0650   -8.1440   21.6120 C.3    93  VAL93       0.0020
    116  CG2       -8.5100   -6.0990   20.3380 C.3    93  VAL93       0.0020
    117  N         -8.2320   -8.3920   17.3540 N.am   94  PRO94      -0.2718
    118  CA        -8.1330   -8.0280   15.9570 C.3    94  PRO94       0.1535
    119  C         -8.3810   -6.5650   15.7130 C.2    94  PRO94       0.2598
    120  O         -9.3730   -5.9830   16.2320 O.2    94  PRO94      -0.2715
    121  CB        -9.1970   -8.9020   15.2310 C.3    94  PRO94       0.0310
    122  CG        -9.5170  -10.0060   16.1940 C.3    94  PRO94       0.0237
    123  CD        -9.2440   -9.4330   17.5740 C.3    94  PRO94       0.0939
    124  N         -7.5640   -5.9870   14.8470 N.am   95  VAL95      -0.1964
    125  CA        -7.7140   -4.5700   14.4630 C.3    95  VAL95       0.1727
    126  C         -7.7640   -4.4050   12.9530 C.2    95  VAL95       0.2616
    127  O         -8.1810   -3.3420   12.4940 O.2    95  VAL95      -0.2715
    128  CB        -6.5790   -3.6650   15.0520 C.3    95  VAL95       0.0290
    129  CG1       -6.7620   -3.5980   16.5450 C.3    95  VAL95       0.0023
    130  CG2       -5.1500   -4.0880   14.7080 C.3    95  VAL95       0.0023
    131  N         -7.3530   -5.4120   12.1510 N.am   96  HIS96      -0.1959
    132  CA        -7.4720   -5.3460   10.7290 C.3    96  HIS96       0.1787
    133  C         -7.6870   -6.7000   10.2070 C.2    96  HIS96       0.2620
    134  O         -7.2510   -7.7080   10.7490 O.2    96  HIS96      -0.2715
    135  CB        -6.2230   -4.7370   10.0230 C.3    96  HIS96       0.0785
    136  CG        -5.9310   -3.3170   10.3950 C.ar   96  HIS96       0.0821
    137  ND1       -6.7530   -2.2540   10.0620 N.ar   96  HIS96      -0.2267
    138  CD2       -5.0070   -2.8320   11.2360 C.ar   96  HIS96       0.1154
    139  CE1       -6.2900   -1.1610   10.6300 C.ar   96  HIS96       0.1986
    140  NE2       -5.2060   -1.4780   11.3170 N.ar   96  HIS96      -0.2212
    141  N         -8.4520   -6.7750    9.1090 N.am   97  PHE97      -0.1974
    142  CA        -8.7690   -8.0040    8.3980 C.3    97  PHE97       0.1639
    143  C         -7.9150   -8.0770    7.1520 C.2    97  PHE97       0.2290
    144  O         -7.8900   -7.0980    6.3680 O.2    97  PHE97      -0.2864
    145  CB       -10.2620   -8.0400    8.0220 C.3    97  PHE97       0.0560
    146  CG       -10.6940   -9.4150    7.6340 C.ar   97  PHE97      -0.0200
    147  CD1      -11.3400  -10.2730    8.5440 C.ar   97  PHE97      -0.0042
    148  CD2      -10.4760   -9.8940    6.3740 C.ar   97  PHE97      -0.0042
    149  CE1      -11.6170  -11.5950    8.2240 C.ar   97  PHE97      -0.0003
    150  CE2      -10.7370  -11.2170    6.0600 C.ar   97  PHE97      -0.0003
    151  CZ       -11.3300  -11.9950    6.9690 C.ar   97  PHE97      -0.0000
@<TRIPOS>BOND
     1    31    30    2
     2    30    29    1
     3    28    29    1
     4    29    32    1
     5    32    33    1
     6    37    38    1
     7    33    34    1
     8    40    39    2
     9    38    39    1
    10    38    41    1
    11    39    45   am
    12    36    35    1
    13    34    35    1
    14    41    42    1
    15    23    22    2
    16    50    49    1
    17    22    21    1
    18    45    46    1
    19    46    49    1
    20    46    47    1
    21    49    51    1
    22    42    43    2
    23    42    44   am
    24    24    21    1
    25    24    25    1
    26    61    59   ar
    27    61    62   ar
    28    21    20    1
    29    59    57   ar
    30    47    52   am
    31    47    48    2
    32    52    53    1
    33    62    60   ar
    34    26    25    1
    35    20    14   am
    36    25    27    1
    37   150   148   ar
    38   150   151   ar
    39    57    56    1
    40    57    58   ar
    41   144   143    2
    42   148   146   ar
    43    55    54    2
    44    56    53    1
    45    53    54    1
    46    14    15    2
    47    14    13    1
    48   151   149   ar
    49    60    58   ar
    50   143   142    1
    51    54    63   am
    52   146   145    1
    53   146   147   ar
    54    13    12    1
    55    13    16    1
    56    18    17    2
    57    12     3   am
    58   145   142    1
    59     1     2    1
    60   149   147   ar
    61   142   141    1
    62    63    64    1
    63     3     2    1
    64     3     4    2
    65     5     2    1
    66     5     6    1
    67    17    16    1
    68    17    19   am
    69   141   133   am
    70    64    65    1
    71    64    67    1
    72    69    67    1
    73     6     7    1
    74    65    66    2
    75   135   136    1
    76   135   132    1
    77    67    68    1
    78   137   136   ar
    79   137   139   ar
    80   133   132    1
    81   133   134    2
    82    94    95    1
    83   136   138   ar
    84   139   140   ar
    85   132   131    1
    86     7     8    1
    87    95    96    1
    88    95    98    1
    89     8     9    2
    90   138   140   ar
    91    99    98    1
    92     9    10    1
    93     9    11    1
    94    96    97    2
    95    98   100    1
    96   131   126   am
    97   127   126    2
    98   126   125    1
    99    84    82    1
   100    83    82    1
   101   125   124    1
   102   125   128    1
   103   130   128    1
   104   124   119   am
   105    82    79    1
   106   128   129    1
   107   121   118    1
   108   121   122    1
   109   119   118    1
   110   119   120    2
   111    79    78    1
   112    79    80    1
   113   118   117    1
   114   108   107   ar
   115   122   123    1
   116    81    80    2
   117    80    85   am
   118   107   109   ar
   119   107   106    1
   120   117   123    1
   121   117   112   am
   122   105   106    1
   123   105   102    1
   124   113   112    2
   125    85    86    1
   126    70    71    1
   127   101   102    1
   128    71    74    1
   129    71    72    1
   130   112   111    1
   131    76    75    1
   132    73    72    2
   133   102   103    1
   134    86    87    1
   135    86    89    1
   136    74    75    1
   137    87    88    2
   138    75    77    1
   139   111   114    1
   140   111   110    1
   141    90    89    1
   142    90    91    1
   143   103   104    2
   144   114   116    1
   145   114   115    1
   146    91    93   am
   147    91    92    2
