@<TRIPOS>MOLECULE
tmp/4o38B00.pdb
 92 85 0 0 0
SMALL
GASTEIGER

@<TRIPOS>ATOM
      1  N         50.6720   29.3360   48.9430 N.3    19  ARG19      -0.1245
      2  CA        49.3960   29.4050   48.2100 C.3    19  ARG19       0.1563
      3  C         49.3540   30.6100   47.2950 C.2    19  ARG19       0.2260
      4  O         50.1820   31.5280   47.4250 O.2    19  ARG19      -0.2867
      5  CB        48.2290   29.5060   49.1800 C.3    19  ARG19       0.0307
      6  CG        48.3580   30.6570   50.1520 C.3    19  ARG19       0.0489
      7  CD        47.0210   30.9640   50.7970 C.3    19  ARG19       0.2205
      8  NE        47.1830   31.8450   51.9500 N.pl3  19  ARG19      -0.0865
      9  CZ        46.2420   32.6600   52.4230 C.cat  19  ARG19       0.5346
     10  NH1       45.0440   32.7270   51.8490 N.pl3  19  ARG19       0.1354
     11  NH2       46.5000   33.4190   53.4780 N.pl3  19  ARG19       0.1354
     12  N         47.7960   34.1040   46.1070 N.3    21  LEU21      -0.1245
     13  CA        47.0860   35.2570   46.6680 C.3    21  LEU21       0.1561
     14  C         46.3400   36.0440   45.5870 C.2    21  LEU21       0.2260
     15  O         45.2790   36.5930   45.8500 O.2    21  LEU21      -0.2867
     16  CB        48.0700   36.1820   47.3830 C.3    21  LEU21       0.0270
     17  CG        48.8400   35.6070   48.5750 C.3    21  LEU21       0.0019
     18  CD1       49.9030   36.5950   49.0420 C.3    21  LEU21       0.0001
     19  CD2       47.8790   35.2750   49.7080 C.3    21  LEU21       0.0001
     20  N         50.6730   36.0610   42.0710 N.3    29  VAL29      -0.1245
     21  CA        51.2770   36.4230   43.3610 C.3    29  VAL29       0.1561
     22  C         50.9730   35.3250   44.3770 C.2    29  VAL29       0.2260
     23  O         49.8190   34.8910   44.4950 O.2    29  VAL29      -0.2867
     24  CB        50.7190   37.7610   43.9080 C.3    29  VAL29       0.0252
     25  CG1       51.4140   38.1500   45.2160 C.3    29  VAL29       0.0019
     26  CG2       50.8360   38.8710   42.8680 C.3    29  VAL29       0.0019
     27  N         55.2740   38.2300   50.1180 N.3    42  ALA42      -0.1245
     28  CA        54.5570   38.0620   48.8600 C.3    42  ALA42       0.1562
     29  C         55.5740   37.8150   47.7560 C.2    42  ALA42       0.2260
     30  O         56.5950   38.5210   47.6300 O.2    42  ALA42      -0.2867
     31  CB        53.6840   39.3000   48.5450 C.3    42  ALA42       0.0290
     32  N         57.1760   42.5910   50.8210 N.3    98  GLU98      -0.1231
     33  CA        56.4470   42.5250   52.0810 C.3    98  GLU98       0.1699
     34  C         55.0840   41.8720   51.8440 C.2    98  GLU98       0.2592
     35  O         54.4280   42.1330   50.8310 O.2    98  GLU98      -0.2718
     36  CB        56.2690   43.9730   52.5600 C.3    98  GLU98       0.0402
     37  CG        55.1720   44.2410   53.5660 C.3    98  GLU98       0.1161
     38  CD        55.0500   45.7180   53.9370 C.2    98  GLU98       0.3649
     39  OE1       55.6140   46.5940   53.2270 O.co2  98  GLU98      -0.2457
     40  OE2       54.3440   46.0020   54.9300 O.co2  98  GLU98      -0.2457
     41  N         54.6620   41.0480   52.7800 N.am   99  LEU99      -0.1966
     42  CA        53.3480   40.4590   52.7320 C.3    99  LEU99       0.1728
     43  C         52.3900   41.3760   53.4580 C.2    99  LEU99       0.2616
     44  O         52.5760   41.6680   54.6180 O.2    99  LEU99      -0.2715
     45  CB        53.3640   39.0530   53.3980 C.3    99  LEU99       0.0311
     46  CG        52.0040   38.3110   53.3830 C.3    99  LEU99       0.0022
     47  CD1       51.5610   37.9830   51.9520 C.3    99  LEU99       0.0001
     48  CD2       52.0800   37.0390   54.2250 C.3    99  LEU99       0.0001
     49  N         51.3170   41.7820   52.8090 N.am  100  CYS100     -0.1954
     50  CA        50.3160   42.6050   53.4780 C.3   100  CYS100      0.1843
     51  C         49.1900   41.7580   54.0360 C.2   100  CYS100      0.2625
     52  O         49.1520   40.5650   53.8440 O.2   100  CYS100     -0.2714
     53  CB        49.7770   43.6520   52.5340 C.3   100  CYS100      0.0997
     54  SG        51.0670   44.8220   52.0780 S.3   100  CYS100     -0.0797
     55  N         48.2650   42.3950   54.7200 N.am  101  LYS101     -0.1963
     56  CA        47.1340   41.7090   55.3270 C.3   101  LYS101      0.1728
     57  C         46.1550   41.2480   54.2340 C.2   101  LYS101      0.2617
     58  O         45.5210   40.2160   54.3510 O.2   101  LYS101     -0.2715
     59  CB        46.4670   42.6760   56.3090 C.3   101  LYS101      0.0311
     60  CG        45.7870   42.0380   57.4540 C.3   101  LYS101      0.0038
     61  CD        45.0490   43.0870   58.2730 C.3   101  LYS101      0.0206
     62  CE        43.8780   42.4570   59.0050 C.3   101  LYS101      0.1093
     63  NZ        44.3850   41.5250   60.0520 N.3   101  LYS101     -0.1314
     64  N         46.0240   42.0380   53.1740 N.am  102  GLY102     -0.1940
     65  CA        45.1230   41.7230   52.0840 C.3   102  GLY102      0.2014
     66  C         44.7960   42.9800   51.2700 C.2   102  GLY102      0.2638
     67  O         45.3870   44.0330   51.4720 O.2   102  GLY102     -0.2714
     68  N         43.8670   42.8380   50.3270 N.am  103  GLN103     -0.1977
     69  CA        43.4490   43.9080   49.4630 C.3   103  GLN103      0.1601
     70  C         42.4730   44.7830   50.1440 C.2   103  GLN103      0.2287
     71  O         41.5360   44.2970   50.7750 O.2   103  GLN103     -0.2864
     72  CB        42.7870   43.3560   48.2230 C.3   103  GLN103      0.0394
     73  CG        43.6120   42.3010   47.5530 C.3   103  GLN103      0.0908
     74  CD        43.6290   42.5480   46.1260 C.2   103  GLN103      0.2608
     75  OE1       42.8330   41.9560   45.4000 O.2   103  GLN103     -0.2717
     76  NE2       44.4220   43.5300   45.7040 N.am  103  GLN103     -0.0878
     77  N         46.5340   47.8680   48.8790 N.3   152  LEU152     -0.1245
     78  CA        46.6380   46.8700   49.9330 C.3   152  LEU152      0.1561
     79  C         46.5250   47.5280   51.3170 C.2   152  LEU152      0.2260
     80  O         46.8030   48.7020   51.4890 O.2   152  LEU152     -0.2867
     81  CB        47.9640   46.1240   49.8280 C.3   152  LEU152      0.0270
     82  CG        48.3230   45.4910   48.4880 C.3   152  LEU152      0.0019
     83  CD1       49.6920   44.7920   48.5470 C.3   152  LEU152      0.0001
     84  CD2       47.2480   44.5020   48.0980 C.3   152  LEU152      0.0001
     85  N         39.9070   40.0660   55.5090 N.3   271  GLY271     -0.1210
     86  CA        40.0190   40.2030   54.0410 C.3   271  GLY271      0.1956
     87  C         41.1960   39.5020   53.3430 C.2   271  GLY271      0.2612
     88  O         41.4420   39.7410   52.1430 O.2   271  GLY271     -0.2717
     89  N         41.9170   38.6260   54.0590 N.am  272  GLY272     -0.1956
     90  CA        43.0820   37.9360   53.4910 C.3   272  GLY272      0.1869
     91  C         43.7330   36.9850   54.4860 C.2   272  GLY272      0.2309
     92  O         43.8540   35.7760   54.2290 O.2   272  GLY272     -0.2863
@<TRIPOS>BOND
     1    20    21    1
     2    26    24    1
     3    21    24    1
     4    21    22    1
     5    24    25    1
     6    22    23    2
     7    75    74    2
     8    14    15    2
     9    14    13    1
    10    76    74   am
    11    12    13    1
    12    74    73    1
    13    13    16    1
    14     3     4    2
    15     3     2    1
    16    16    17    1
    17    73    72    1
    18    30    29    2
    19    29    28    1
    20    84    82    1
    21     2     1    1
    22     2     5    1
    23    72    69    1
    24    82    83    1
    25    82    81    1
    26    31    28    1
    27    17    18    1
    28    17    19    1
    29    28    27    1
    30    77    78    1
    31     5     6    1
    32    69    70    1
    33    69    68    1
    34    81    78    1
    35    78    79    1
    36    70    71    2
    37     6     7    1
    38    68    66   am
    39     7     8    1
    40    32    33    1
    41    35    34    2
    42    66    67    2
    43    66    65    1
    44    79    80    2
    45    34    33    1
    46    34    41   am
    47    10     9    1
    48     8     9    2
    49    47    46    1
    50    54    53    1
    51    33    36    1
    52    65    64    1
    53    88    87    2
    54     9    11    1
    55    53    50    1
    56    36    37    1
    57    42    41    1
    58    42    45    1
    59    42    43    1
    60    49    43   am
    61    49    50    1
    62    64    57   am
    63    39    38   ar
    64    87    86    1
    65    87    89   am
    66    46    45    1
    67    46    48    1
    68    43    44    2
    69    50    51    1
    70    90    89    1
    71    90    91    1
    72    37    38    1
    73    52    51    2
    74    38    40   ar
    75    51    55   am
    76    86    85    1
    77    92    91    2
    78    57    58    2
    79    57    56    1
    80    55    56    1
    81    56    59    1
    82    59    60    1
    83    60    61    1
    84    61    62    1
    85    62    63    1
