@<TRIPOS>MOLECULE
tmp/4o3bA00.pdb
 85 78 0 0 0
SMALL
GASTEIGER

@<TRIPOS>ATOM
      1  N         21.0000   90.3220   22.2290 N.3   105  SER105     -0.1202
      2  CA        19.7730   89.5620   21.9700 C.3   105  SER105      0.2020
      3  C         20.0200   88.4310   20.9880 C.2   105  SER105      0.2618
      4  O         20.9360   88.4950   20.1600 O.2   105  SER105     -0.2717
      5  CB        18.7160   90.4830   21.3680 C.3   105  SER105      0.2103
      6  OG        18.2370   91.3710   22.3540 O.3   105  SER105     -0.2182
      7  N         19.1990   87.3850   21.0690 N.am  106  LEU106     -0.1979
      8  CA        19.3470   86.2490   20.1810 C.3   106  LEU106      0.1596
      9  C         18.0620   85.4380   20.1550 C.2   106  LEU106      0.2287
     10  O         17.1420   85.6370   20.9670 O.2   106  LEU106     -0.2864
     11  CB        20.5220   85.3370   20.6070 C.3   106  LEU106      0.0297
     12  CG        20.3810   84.6260   21.9590 C.3   106  LEU106      0.0022
     13  CD1       21.0960   83.2810   22.0010 C.3   106  LEU106      0.0001
     14  CD2       20.8850   85.5310   23.0960 C.3   106  LEU106      0.0001
     15  N         20.9990   82.4380   16.8770 N.3   191  SER191     -0.1202
     16  CA        21.1800   83.3840   15.7650 C.3   191  SER191      0.2020
     17  C         22.5550   84.0320   15.7670 C.2   191  SER191      0.2619
     18  O         23.1230   84.2750   14.7030 O.2   191  SER191     -0.2717
     19  CB        20.1030   84.4760   15.7860 C.3   191  SER191      0.2103
     20  OG        19.9720   85.0960   17.0560 O.3   191  SER191     -0.2182
     21  N         23.0830   84.3050   16.9570 N.am  192  THR192     -0.1952
     22  CA        24.4210   84.8760   17.0890 C.3   192  THR192      0.1897
     23  C         25.5210   83.9680   16.4830 C.2   192  THR192      0.2313
     24  O         26.4480   84.4480   15.8200 O.2   192  THR192     -0.2863
     25  CB        24.7380   85.1390   18.5690 C.3   192  THR192      0.1794
     26  OG1       24.3260   84.0090   19.3560 O.3   192  THR192     -0.2208
     27  CG2       23.9670   86.3700   19.0570 C.3   192  THR192      0.0378
     28  N         24.9850   83.7950   12.5860 N.3   195  GLU195     -0.1245
     29  CA        25.5440   85.0250   12.0150 C.3   195  GLU195      0.1567
     30  C         27.0780   84.9970   11.9160 C.2   195  GLU195      0.2260
     31  O         27.6810   85.4720   10.9260 O.2   195  GLU195     -0.2867
     32  CB        25.1060   86.2370   12.8540 C.3   195  GLU195      0.0388
     33  CG        23.6160   86.5620   12.7170 C.3   195  GLU195      0.1160
     34  CD        23.0820   87.5570   13.7810 C.2   195  GLU195      0.3649
     35  OE1       23.7870   87.9310   14.7520 O.co2 195  GLU195     -0.2457
     36  OE2       21.9150   87.9370   13.6360 O.co2 195  GLU195     -0.2457
     37  N         21.9500   82.3000    7.3180 N.3   207  LYS207     -0.1245
     38  CA        20.7800   82.2950    8.2130 C.3   207  LYS207      0.1561
     39  C         19.5360   82.6290    7.3910 C.2   207  LYS207      0.2260
     40  O         19.5750   83.5620    6.6190 O.2   207  LYS207     -0.2867
     41  CB        20.9620   83.3580    9.3090 C.3   207  LYS207      0.0271
     42  CG        19.7240   83.5960   10.1920 C.3   207  LYS207      0.0035
     43  CD        20.0630   84.2500   11.5160 C.3   207  LYS207      0.0206
     44  CE        20.2300   85.7620   11.3750 C.3   207  LYS207      0.1093
     45  NZ        19.0100   86.4570   10.8220 N.3   207  LYS207     -0.1314
     46  N         13.6410   84.5570   13.5590 N.3   211  ASN211     -0.1240
     47  CA        13.9790   83.7430   14.7050 C.3   211  ASN211      0.1653
     48  C         12.7310   83.0130   15.2560 C.2   211  ASN211      0.2266
     49  O         11.5980   83.5240   15.1640 O.2   211  ASN211     -0.2867
     50  CB        14.6080   84.6220   15.7900 C.3   211  ASN211      0.1155
     51  CG        16.0160   85.0810   15.4280 C.2   211  ASN211      0.2627
     52  OD1       16.6390   84.5500   14.5100 O.2   211  ASN211     -0.2716
     53  ND2       16.5240   86.0620   16.1730 N.am  211  ASN211     -0.0877
     54  N         12.3740   82.0810   18.5510 N.3   213  ASP213     -0.1225
     55  CA        12.1180   82.6000   19.9050 C.3   213  ASP213      0.1805
     56  C         12.9850   83.8300   20.1370 C.2   213  ASP213      0.2598
     57  O         13.6930   84.2720   19.2320 O.2   213  ASP213     -0.2718
     58  CB        12.2990   81.5270   21.0320 C.3   213  ASP213      0.1424
     59  CG        13.7780   81.1030   21.2920 C.2   213  ASP213      0.3668
     60  OD1       14.7090   81.4920   20.5600 O.co2 213  ASP213     -0.2456
     61  OD2       14.0170   80.3480   22.2770 O.co2 213  ASP213     -0.2456
     62  N         12.8880   84.3890   21.3380 N.am  214  SER214     -0.1938
     63  CA        13.6410   85.5830   21.7010 C.3   214  SER214      0.2055
     64  C         14.1400   85.4910   23.1430 C.2   214  SER214      0.2642
     65  O         13.3770   85.1520   24.0640 O.2   214  SER214     -0.2714
     66  CB        12.7750   86.8310   21.5110 C.3   214  SER214      0.2130
     67  OG        13.4850   88.0080   21.8450 O.3   214  SER214     -0.2179
     68  N         15.4310   85.7720   23.3300 N.am  215  LYS215     -0.1977
     69  CA        16.0620   85.7850   24.6570 C.3   215  LYS215      0.1596
     70  C         17.3150   86.6500   24.6220 C.2   215  LYS215      0.2287
     71  O         17.6450   87.2310   23.5750 O.2   215  LYS215     -0.2864
     72  CB        16.4180   84.3680   25.1050 C.3   215  LYS215      0.0298
     73  CG        17.1850   83.5390   24.0970 C.3   215  LYS215      0.0038
     74  CD        16.6690   82.0890   24.1840 C.3   215  LYS215      0.0206
     75  CE        17.2140   81.1820   23.0800 C.3   215  LYS215      0.1093
     76  NZ        16.5320   79.8470   23.1370 N.3   215  LYS215     -0.1314
     77  N         29.8460   94.2410   18.6530 N.3   248  LYS248     -0.1245
     78  CA        29.3090   93.1920   17.8120 C.3   248  LYS248      0.1561
     79  C         29.7900   93.3680   16.3710 C.2   248  LYS248      0.2260
     80  O         30.1750   92.3950   15.7170 O.2   248  LYS248     -0.2867
     81  CB        27.7850   93.1110   17.8630 C.3   248  LYS248      0.0271
     82  CG        27.2580   91.9710   16.9520 C.3   248  LYS248      0.0035
     83  CD        26.2450   91.0900   17.6210 C.3   248  LYS248      0.0206
     84  CE        25.7460   90.0070   16.6770 C.3   248  LYS248      0.1093
     85  NZ        24.3340   90.2050   16.2370 N.3   248  LYS248     -0.1314
@<TRIPOS>BOND
     1    40    39    2
     2    37    38    1
     3    39    38    1
     4    38    41    1
     5    41    42    1
     6    42    43    1
     7    45    44    1
     8    31    30    2
     9    44    43    1
    10    30    29    1
    11    29    28    1
    12    29    32    1
    13    33    32    1
    14    33    34    1
    15    46    47    1
    16    36    34   ar
    17    34    35   ar
    18    52    51    2
    19    18    17    2
    20    47    48    1
    21    47    50    1
    22    49    48    2
    23    51    50    1
    24    51    53   am
    25    80    79    2
    26    16    17    1
    27    16    19    1
    28    16    15    1
    29    17    21   am
    30    19    20    1
    31    24    23    2
    32    85    84    1
    33    79    78    1
    34    23    22    1
    35    84    83    1
    36    82    83    1
    37    82    81    1
    38    21    22    1
    39    22    25    1
    40    78    81    1
    41    78    77    1
    42    54    55    1
    43    25    27    1
    44    25    26    1
    45    57    56    2
    46    55    56    1
    47    55    58    1
    48    56    62   am
    49     9     8    1
    50     9    10    2
    51     4     3    2
    52     8    11    1
    53     8     7    1
    54    60    59   ar
    55    11    12    1
    56     3     7   am
    57     3     2    1
    58    58    59    1
    59    59    61   ar
    60    62    63    1
    61     5     2    1
    62     5     6    1
    63    66    63    1
    64    66    67    1
    65    63    64    1
    66    12    13    1
    67    12    14    1
    68     2     1    1
    69    75    76    1
    70    75    74    1
    71    64    68   am
    72    64    65    2
    73    68    69    1
    74    71    70    2
    75    73    74    1
    76    73    72    1
    77    70    69    1
    78    69    72    1
