@<TRIPOS>MOLECULE
tmp/4o3cA00.pdb
 104 99 0 0 0
SMALL
GASTEIGER

@<TRIPOS>ATOM
      1  N        -19.6690    4.0360  -20.4040 N.3    61  TYR61      -0.1241
      2  CA       -18.2990    3.7550  -20.8220 C.3    61  TYR61       0.1605
      3  C        -18.2570    3.0260  -22.1620 C.2    61  TYR61       0.2264
      4  O        -17.6140    3.4910  -23.1150 O.2    61  TYR61      -0.2867
      5  CB       -17.5360    2.9820  -19.7340 C.3    61  TYR61       0.0534
      6  CG       -17.1520    3.8890  -18.5900 C.ar   61  TYR61      -0.0201
      7  CD1      -15.9600    4.6020  -18.6220 C.ar   61  TYR61      -0.0009
      8  CD2      -17.9900    4.0570  -17.4940 C.ar   61  TYR61      -0.0009
      9  CE1      -15.6110    5.4520  -17.6060 C.ar   61  TYR61       0.0417
     10  CE2      -17.6590    4.9250  -16.4640 C.ar   61  TYR61       0.0417
     11  CZ       -16.4700    5.6070  -16.5250 C.ar   61  TYR61       0.1957
     12  OH       -16.1450    6.4640  -15.5050 O.3    61  TYR61      -0.2866
     13  N        -11.5670    8.0620  -18.1210 N.3    89  PRO89      -0.2102
     14  CA       -11.0830    6.8730  -17.4010 C.3    89  PRO89       0.1504
     15  C        -11.6310    5.5970  -18.0440 C.2    89  PRO89       0.2576
     16  O        -12.4390    4.8810  -17.4850 O.2    89  PRO89      -0.2718
     17  CB       -11.6000    7.0900  -15.9770 C.3    89  PRO89       0.0282
     18  CG       -12.8180    7.9430  -16.1520 C.3    89  PRO89       0.0208
     19  CD       -12.4640    8.8740  -17.2820 C.3    89  PRO89       0.0893
     20  N        -11.1670    5.3560  -19.2590 N.am   90  LEU90      -0.1966
     21  CA       -11.6370    4.2630  -20.0950 C.3    90  LEU90       0.1728
     22  C        -10.6760    3.0900  -20.0090 C.2    90  LEU90       0.2616
     23  O         -9.5100    3.1790  -20.4090 O.2    90  LEU90      -0.2715
     24  CB       -11.7480    4.7420  -21.5430 C.3    90  LEU90       0.0311
     25  CG       -12.3760    3.7470  -22.5210 C.3    90  LEU90       0.0022
     26  CD1      -13.8500    3.4230  -22.1830 C.3    90  LEU90       0.0001
     27  CD2      -12.2600    4.2640  -23.9640 C.3    90  LEU90       0.0001
     28  N        -11.1640    2.0000  -19.4350 N.am   91  THR91      -0.1951
     29  CA       -10.2950    0.8740  -19.1240 C.3    91  THR91       0.1897
     30  C         -9.9180    0.0900  -20.3780 C.2    91  THR91       0.2313
     31  O        -10.7560   -0.2090  -21.2180 O.2    91  THR91      -0.2863
     32  CB       -10.9850   -0.0080  -18.0950 C.3    91  THR91       0.1794
     33  OG1      -11.3110    0.8220  -16.9860 O.3    91  THR91      -0.2208
     34  CG2      -10.1130   -1.1650  -17.6430 C.3    91  THR91       0.0378
     35  N        -12.3250   -4.3800  -26.0310 N.3    96  ARG96      -0.1245
     36  CA       -12.2460   -3.0340  -26.5920 C.3    96  ARG96       0.1563
     37  C        -11.0360   -2.8750  -27.4960 C.2    96  ARG96       0.2260
     38  O        -11.1040   -2.1980  -28.5250 O.2    96  ARG96      -0.2867
     39  CB       -12.2050   -1.9830  -25.4770 C.3    96  ARG96       0.0307
     40  CG       -13.5110   -1.8430  -24.7280 C.3    96  ARG96       0.0489
     41  CD       -13.3450   -1.0650  -23.4600 C.3    96  ARG96       0.2205
     42  NE       -14.6260   -0.8600  -22.7970 N.pl3  96  ARG96      -0.0865
     43  CZ       -14.7520   -0.2740  -21.6160 C.cat  96  ARG96       0.5346
     44  NH1      -13.6820    0.1300  -20.9840 N.pl3  96  ARG96       0.1354
     45  NH2      -15.9400   -0.0980  -21.0750 N.pl3  96  ARG96       0.1354
     46  N        -21.3980   -1.1290  -11.6830 N.3   138  LEU138     -0.1245
     47  CA       -21.8740   -0.2790  -12.7570 C.3   138  LEU138      0.1561
     48  C        -22.2810   -1.0830  -13.9930 C.2   138  LEU138      0.2260
     49  O        -21.6120   -2.0530  -14.3550 O.2   138  LEU138     -0.2867
     50  CB       -20.7200    0.6470  -13.1540 C.3   138  LEU138      0.0270
     51  CG       -20.9680    1.7580  -14.1630 C.3   138  LEU138      0.0019
     52  CD1      -21.9660    2.7450  -13.6130 C.3   138  LEU138      0.0001
     53  CD2      -19.6670    2.4740  -14.4840 C.3   138  LEU138      0.0001
     54  N        -19.8130   -1.3940  -18.4230 N.3   141  GLY141     -0.1210
     55  CA       -18.3880   -1.1480  -18.2980 C.3   141  GLY141      0.1956
     56  C        -17.5710   -2.3950  -18.0220 C.2   141  GLY141      0.2613
     57  O        -18.0710   -3.5210  -18.0080 O.2   141  GLY141     -0.2717
     58  N        -16.2910   -2.1720  -17.7700 N.am  142  SER142     -0.1938
     59  CA       -15.3390   -3.2450  -17.5860 C.3   142  SER142      0.2055
     60  C        -15.4960   -3.9900  -16.2690 C.2   142  SER142      0.2644
     61  O        -15.1150   -5.1540  -16.1890 O.2   142  SER142     -0.2714
     62  CB       -13.9100   -2.7130  -17.7210 C.3   142  SER142      0.2130
     63  OG       -13.6920   -1.6190  -16.8530 O.3   142  SER142     -0.2179
     64  N        -16.0230   -3.3420  -15.2310 N.am  143  THR143     -0.1936
     65  CA       -16.1460   -4.0110  -13.9390 C.3   143  THR143      0.2028
     66  C        -17.2110   -5.0920  -13.9890 C.2   143  THR143      0.2642
     67  O        -16.9990   -6.2070  -13.5040 O.2   143  THR143     -0.2714
     68  CB       -16.4370   -2.9990  -12.8100 C.3   143  THR143      0.1808
     69  OG1      -15.3570   -2.0520  -12.7340 O.3   143  THR143     -0.2208
     70  CG2      -16.5740   -3.7010  -11.4490 C.3   143  THR143      0.0379
     71  N        -18.3450   -4.7990  -14.6050 N.am  144  LYS144     -0.1977
     72  CA       -19.3960   -5.8000  -14.7250 C.3   144  LYS144      0.1596
     73  C        -18.9000   -6.9650  -15.5600 C.2   144  LYS144      0.2287
     74  O        -19.1230   -8.1150  -15.1970 O.2   144  LYS144     -0.2864
     75  CB       -20.6550   -5.1860  -15.3260 C.3   144  LYS144      0.0298
     76  CG       -21.8830   -6.0740  -15.2360 C.3   144  LYS144      0.0038
     77  CD       -23.1210   -5.3150  -15.7190 C.3   144  LYS144      0.0206
     78  CE       -24.3800   -6.1860  -15.7040 C.3   144  LYS144      0.1093
     79  NZ       -25.5730   -5.4800  -16.2700 N.3   144  LYS144     -0.1314
     80  N        -16.1980   -0.9780   -7.6150 N.3   192  LEU192     -0.1231
     81  CA       -15.8200    0.0720   -8.5540 C.3   192  LEU192      0.1693
     82  C        -14.3240    0.2300   -8.5670 C.2   192  LEU192      0.2591
     83  O        -13.6020   -0.2920   -7.7210 O.2   192  LEU192     -0.2718
     84  CB       -16.4860    1.4180   -8.2100 C.3   192  LEU192      0.0284
     85  CG       -15.8340    2.2410   -7.0890 C.3   192  LEU192      0.0019
     86  CD1      -16.4800    3.6180   -7.0160 C.3   192  LEU192      0.0001
     87  CD2      -15.9160    1.5420   -5.7250 C.3   192  LEU192      0.0001
     88  N        -13.8370    0.9550   -9.5480 N.am  193  GLU193     -0.1979
     89  CA       -12.4010    1.0680   -9.6950 C.3   193  GLU193      0.1602
     90  C        -11.7760    1.8740   -8.5660 C.2   193  GLU193      0.2287
     91  O        -12.3770    2.8290   -8.0620 O.2   193  GLU193     -0.2864
     92  CB       -12.0910    1.6210  -11.0750 C.3   193  GLU193      0.0415
     93  CG       -12.4670    0.5930  -12.1380 C.3   193  GLU193      0.1163
     94  CD       -12.4340    1.1200  -13.5440 C.2   193  GLU193      0.3649
     95  OE1      -12.5840    2.3550  -13.7410 O.co2 193  GLU193     -0.2457
     96  OE2      -12.2870    0.2830  -14.4660 O.co2 193  GLU193     -0.2457
     97  N        -11.6520    5.8760   -8.4260 N.3   196  MET196     -0.1245
     98  CA       -12.8980    6.5260   -8.0290 C.3   196  MET196      0.1570
     99  C        -13.1480    6.3220   -6.5420 C.2   196  MET196      0.2261
    100  O        -13.5240    7.2470   -5.8350 O.2   196  MET196     -0.2867
    101  CB       -14.0910    5.9770   -8.8150 C.3   196  MET196      0.0387
    102  CG       -14.2020    6.4630  -10.2480 C.3   196  MET196      0.0595
    103  SD       -13.1600    5.4890  -11.3420 S.3   196  MET196     -0.1393
    104  CE       -13.8090    5.8980  -12.9630 C.3   196  MET196      0.0692
@<TRIPOS>BOND
     1    38    37    2
     2    37    36    1
     3    36    35    1
     4    36    39    1
     5    39    40    1
     6    40    41    1
     7    27    25    1
     8    41    42    1
     9     4     3    2
    10    42    43    2
    11    25    26    1
    12    25    24    1
    13     3     2    1
    14    43    45    1
    15    43    44    1
    16    24    21    1
    17    31    30    2
    18     2     1    1
    19     2     5    1
    20    23    22    2
    21    30    29    1
    22    21    22    1
    23    21    20    1
    24    22    28   am
    25     5     6    1
    26    28    29    1
    27    20    15   am
    28    29    32    1
    29     7     6   ar
    30     7     9   ar
    31     6     8   ar
    32    54    55    1
    33    55    56    1
    34    13    14    1
    35    13    19    1
    36    32    34    1
    37    32    33    1
    38    15    16    2
    39    15    14    1
    40    56    57    2
    41    56    58   am
    42    58    59    1
    43    62    59    1
    44    62    63    1
    45     9    11   ar
    46    59    60    1
    47     8    10   ar
    48    14    17    1
    49    19    18    1
    50    11    10   ar
    51    11    12    1
    52    79    78    1
    53    60    61    2
    54    60    64   am
    55    18    17    1
    56    77    78    1
    57    77    76    1
    58    73    74    2
    59    73    72    1
    60    75    76    1
    61    75    72    1
    62    64    65    1
    63    72    71    1
    64    71    66   am
    65    53    51    1
    66    96    94   ar
    67    49    48    2
    68    51    52    1
    69    51    50    1
    70    48    47    1
    71    66    65    1
    72    66    67    2
    73    65    68    1
    74    95    94   ar
    75    94    93    1
    76    50    47    1
    77   104   103    1
    78    68    69    1
    79    68    70    1
    80    47    46    1
    81    93    92    1
    82   103   102    1
    83    92    89    1
    84   102   101    1
    85    89    88    1
    86    89    90    1
    87    88    82   am
    88   101    98    1
    89    82    81    1
    90    82    83    2
    91    90    91    2
    92    81    84    1
    93    81    80    1
    94    97    98    1
    95    84    85    1
    96    98    99    1
    97    85    86    1
    98    85    87    1
    99    99   100    2
