@<TRIPOS>MOLECULE
tmp/4o3tA00.pdb
 195 191 0 0 0
SMALL
GASTEIGER

@<TRIPOS>ATOM
      1  N        -26.3350   26.4620   14.1770 N.3     1  ASN1       -0.1225
      2  CA       -25.9870   25.0420   14.1700 C.3     1  ASN1        0.1785
      3  C        -26.6770   24.2770   13.0240 C.2     1  ASN1        0.2597
      4  O        -27.7240   24.7070   12.5340 O.2     1  ASN1       -0.2718
      5  CB       -26.2630   24.3980   15.5350 C.3     1  ASN1        0.1169
      6  CG       -25.5460   23.0840   15.7440 C.2     1  ASN1        0.2627
      7  OD1      -26.1050   22.0060   15.5160 O.2     1  ASN1       -0.2716
      8  ND2      -24.2850   23.1440   16.1550 N.am    1  ASN1       -0.0877
      9  N        -26.0690   23.1430   12.6090 N.am    2  ILE2       -0.1980
     10  CA       -26.4740   22.2810   11.4860 C.3     2  ILE2        0.1595
     11  C        -26.8690   20.8360   11.8950 C.2     2  ILE2        0.2287
     12  O        -26.5170   19.8740   11.2020 O.2     2  ILE2       -0.2864
     13  CB       -25.3620   22.3020   10.3810 C.3     2  ILE2        0.0276
     14  CG1      -23.9310   22.1660   10.9740 C.3     2  ILE2        0.0022
     15  CG2      -25.4440   23.5820    9.5580 C.3     2  ILE2        0.0022
     16  CD1      -23.4350   20.7890   11.4810 C.3     2  ILE2        0.0001
     17  N        -19.9490   15.8900   12.8120 N.3    48  HIS48      -0.1241
     18  CA       -19.2900   16.9360   12.0320 C.3    48  HIS48       0.1621
     19  C        -18.2720   16.2540   11.1290 C.2    48  HIS48       0.2264
     20  O        -18.0840   16.6700    9.9830 O.2    48  HIS48      -0.2867
     21  CB       -18.5940   17.9590   12.9420 C.3    48  HIS48       0.0745
     22  CG       -19.5240   18.6350   13.8990 C.ar   48  HIS48       0.0817
     23  ND1      -20.3840   19.6380   13.4840 N.ar   48  HIS48      -0.2268
     24  CD2      -19.7120   18.4150   15.2230 C.ar   48  HIS48       0.1154
     25  CE1      -21.0570   20.0020   14.5660 C.ar   48  HIS48       0.1986
     26  NE2      -20.6910   19.2900   15.6340 N.ar   48  HIS48      -0.2212
     27  N        -24.8210   24.5840    0.4390 N.3   111  VAL111     -0.1231
     28  CA       -24.8400   23.1420    0.2130 C.3   111  VAL111      0.1692
     29  C        -23.9010   22.4920    1.2110 C.2   111  VAL111      0.2592
     30  O        -22.8010   22.9990    1.4320 O.2   111  VAL111     -0.2718
     31  CB       -24.5470   22.6860   -1.2390 C.3   111  VAL111      0.0266
     32  CG1      -25.8170   22.6490   -2.0740 C.3   111  VAL111      0.0020
     33  CG2      -23.4730   23.5390   -1.9030 C.3   111  VAL111      0.0020
     34  N        -24.3390   21.3860    1.8270 N.am  112  TYR112     -0.1962
     35  CA       -23.5400   20.6750    2.8200 C.3   112  TYR112      0.1774
     36  C        -23.2660   19.2370    2.3990 C.2   112  TYR112      0.2659
     37  O        -24.1430   18.5900    1.8170 O.2   112  TYR112     -0.2711
     38  CB       -24.2300   20.7100    4.1950 C.3   112  TYR112      0.0574
     39  CG       -24.3970   22.0990    4.7750 C.ar  112  TYR112     -0.0198
     40  CD1      -23.4100   22.6630    5.5810 C.ar  112  TYR112     -0.0009
     41  CD2      -25.5560   22.8360    4.5510 C.ar  112  TYR112     -0.0009
     42  CE1      -23.5730   23.9290    6.1450 C.ar  112  TYR112      0.0417
     43  CE2      -25.7160   24.1150    5.0830 C.ar  112  TYR112      0.0417
     44  CZ       -24.7230   24.6550    5.8830 C.ar  112  TYR112      0.1957
     45  OH       -24.8840   25.9100    6.4130 O.3   112  TYR112     -0.2866
     46  N        -22.0670   18.7420    2.7120 N.am  113  GLY113     -0.1730
     47  CA       -21.7110   17.3670    2.3820 C.2   113  GLY113      0.1340
     48  C        -20.3420   16.8800    2.7990 C.2   113  GLY113      0.2521
     49  O        -19.4330   17.6760    3.0420 O.2   113  GLY113     -0.2816
     50  N        -18.8300   14.6410    0.8040 N.3   115  GLY115     -0.1210
     51  CA       -18.4360   14.1160   -0.4970 C.3   115  GLY115      0.1956
     52  C        -17.0690   14.5420   -0.9890 C.2   115  GLY115      0.2612
     53  O        -16.2490   15.0300   -0.2090 O.2   115  GLY115     -0.2717
     54  N        -16.8200   14.3470   -2.2980 N.am  116  TYR116     -0.1962
     55  CA       -15.5660   14.6670   -2.9880 C.3   116  TYR116      0.1771
     56  C        -15.2400   16.1570   -2.9060 C.2   116  TYR116      0.2620
     57  O        -16.1240   16.9960   -3.0830 O.2   116  TYR116     -0.2715
     58  CB       -15.6140   14.1680   -4.4410 C.3   116  TYR116      0.0574
     59  CG       -14.3350   14.3790   -5.2190 C.ar  116  TYR116     -0.0198
     60  CD1      -14.2120   15.4310   -6.1220 C.ar  116  TYR116     -0.0009
     61  CD2      -13.2590   13.5090   -5.0790 C.ar  116  TYR116     -0.0009
     62  CE1      -13.0390   15.6270   -6.8500 C.ar  116  TYR116      0.0417
     63  CE2      -12.0780   13.6970   -5.7970 C.ar  116  TYR116      0.0417
     64  CZ       -11.9740   14.7570   -6.6840 C.ar  116  TYR116      0.1957
     65  OH       -10.8220   14.9460   -7.4080 O.3   116  TYR116     -0.2866
     66  N        -13.9730   16.4760   -2.6000 N.am  117  THR117     -0.1937
     67  CA       -13.5030   17.8540   -2.3970 C.3   117  THR117      0.2028
     68  C        -12.4430   18.3240   -3.3890 C.2   117  THR117      0.2642
     69  O        -12.2400   19.5350   -3.5410 O.2   117  THR117     -0.2714
     70  CB       -12.9840   18.0270   -0.9660 C.3   117  THR117      0.1808
     71  OG1      -11.8580   17.1680   -0.7820 O.3   117  THR117     -0.2208
     72  CG2      -14.0510   17.7520    0.0840 C.3   117  THR117      0.0379
     73  N        -11.7550   17.3710   -4.0130 N.am  118  GLY118     -0.1954
     74  CA       -10.6810   17.6530   -4.9560 C.3   118  GLY118      0.1869
     75  C         -9.3310   17.7450   -4.2730 C.2   118  GLY118      0.2309
     76  O         -8.3070   17.4170   -4.8800 O.2   118  GLY118     -0.2863
     77  N         -9.7490   16.2860    5.4550 N.3   123  ASP123     -0.1239
     78  CA        -9.8840   15.9350    6.8690 C.3   123  ASP123      0.1674
     79  C        -11.1200   15.0850    7.2210 C.2   123  ASP123      0.2266
     80  O        -11.1090   14.4040    8.2460 O.2   123  ASP123     -0.2867
     81  CB        -9.7830   17.1890    7.7690 C.3   123  ASP123      0.1410
     82  CG       -10.7070   18.3590    7.4440 C.2   123  ASP123      0.3668
     83  OD1      -10.4860   19.4580    7.9970 O.co2 123  ASP123     -0.2456
     84  OD2      -11.6550   18.1740    6.6400 O.co2 123  ASP123     -0.2456
     85  N        -14.1450   16.4530    7.6760 N.3   125  LEU125     -0.1231
     86  CA       -15.0350   17.3830    8.3670 C.3   125  LEU125      0.1693
     87  C        -16.0470   17.9750    7.3770 C.2   125  LEU125      0.2592
     88  O        -15.6740   18.3180    6.2520 O.2   125  LEU125     -0.2718
     89  CB       -14.1980   18.4980    9.0130 C.3   125  LEU125      0.0284
     90  CG       -14.9010   19.3440   10.0710 C.3   125  LEU125      0.0019
     91  CD1      -14.6770   18.7760   11.4620 C.3   125  LEU125      0.0001
     92  CD2      -14.4250   20.7880   10.0120 C.3   125  LEU125      0.0001
     93  N        -17.3250   18.0970    7.8080 N.am  126  LEU126     -0.1966
     94  CA       -18.4420   18.6250    7.0090 C.3   126  LEU126      0.1728
     95  C        -18.0910   19.9340    6.3040 C.2   126  LEU126      0.2616
     96  O        -17.5070   20.8350    6.9150 O.2   126  LEU126     -0.2715
     97  CB       -19.7170   18.7740    7.8650 C.3   126  LEU126      0.0311
     98  CG       -21.0070   19.1820    7.1360 C.3   126  LEU126      0.0022
     99  CD1      -21.4620   18.1070    6.1510 C.3   126  LEU126      0.0001
    100  CD2      -22.1090   19.5160    8.1160 C.3   126  LEU126      0.0001
    101  N        -18.4030   20.0050    5.0020 N.am  127  ARG127     -0.1963
    102  CA       -18.0950   21.1750    4.1810 C.3   127  ARG127      0.1729
    103  C        -19.3180   21.9060    3.6790 C.2   127  ARG127      0.2616
    104  O        -20.4080   21.3370    3.6280 O.2   127  ARG127     -0.2715
    105  CB       -17.1150   20.8390    3.0420 C.3   127  ARG127      0.0348
    106  CG       -15.7210   20.5410    3.5510 C.3   127  ARG127      0.0492
    107  CD       -14.7000   20.4860    2.4460 C.3   127  ARG127      0.2205
    108  NE       -14.0020   21.7580    2.2650 N.pl3 127  ARG127     -0.0865
    109  CZ       -12.9330   22.1370    2.9590 C.cat 127  ARG127      0.5346
    110  NH1      -12.4350   21.3550    3.9090 N.pl3 127  ARG127      0.1354
    111  NH2      -12.3620   23.3100    2.7190 N.pl3 127  ARG127      0.1354
    112  N        -19.1260   23.1870    3.3340 N.am  128  VAL128     -0.1963
    113  CA       -20.1490   24.0980    2.8370 C.3   128  VAL128      0.1727
    114  C        -19.6380   24.8680    1.6190 C.2   128  VAL128      0.2616
    115  O        -18.4430   25.1410    1.5160 O.2   128  VAL128     -0.2715
    116  CB       -20.6850   25.0400    3.9640 C.3   128  VAL128      0.0290
    117  CG1      -19.6330   26.0490    4.4340 C.3   128  VAL128      0.0023
    118  CG2      -21.9700   25.7480    3.5460 C.3   128  VAL128      0.0023
    119  N        -20.5510   25.1950    0.6990 N.am  129  ALA129     -0.1963
    120  CA       -20.3020   26.0090   -0.4820 C.3   129  ALA129      0.1728
    121  C        -21.4070   27.0550   -0.5260 C.2   129  ALA129      0.2616
    122  O        -22.5830   26.7330   -0.3190 O.2   129  ALA129     -0.2715
    123  CB       -20.3220   25.1590   -1.7410 C.3   129  ALA129      0.0334
    124  N        -21.0270   28.3120   -0.7370 N.am  130  HIS130     -0.1973
    125  CA       -21.9870   29.3970   -0.7890 C.3   130  HIS130      0.1656
    126  C        -22.4250   29.6120   -2.2250 C.2   130  HIS130      0.2291
    127  O        -21.6250   30.0340   -3.0640 O.2   130  HIS130     -0.2864
    128  CB       -21.4020   30.6690   -0.1650 C.3   130  HIS130      0.0771
    129  CG       -20.6600   30.4200    1.1100 C.ar  130  HIS130      0.0820
    130  ND1      -21.2750   29.8210    2.2000 N.ar  130  HIS130     -0.2267
    131  CD2      -19.3720   30.6910    1.4280 C.ar  130  HIS130      0.1154
    132  CE1      -20.3480   29.7500    3.1420 C.ar  130  HIS130      0.1986
    133  NE2      -19.1870   30.2650    2.7270 N.ar  130  HIS130     -0.2212
    134  N        -15.9760   31.6170   -9.1430 N.3   161  ILE161     -0.1231
    135  CA       -15.1840   30.4040   -8.9020 C.3   161  ILE161      0.1692
    136  C        -16.0150   29.1370   -9.1430 C.2   161  ILE161      0.2593
    137  O        -17.2470   29.1920   -9.1630 O.2   161  ILE161     -0.2718
    138  CB       -14.4840   30.4020   -7.5110 C.3   161  ILE161      0.0266
    139  CG1      -15.4890   30.5560   -6.3430 C.3   161  ILE161      0.0019
    140  CG2      -13.3580   31.4390   -7.4500 C.3   161  ILE161      0.0020
    141  CD1      -15.4080   29.4550   -5.3220 C.3   161  ILE161      0.0001
    142  N        -15.3280   28.0180   -9.3330 N.am  162  GLY162     -0.1942
    143  CA       -15.9640   26.7300   -9.5540 C.3   162  GLY162      0.2014
    144  C        -16.1530   25.9970   -8.2480 C.2   162  GLY162      0.2640
    145  O        -15.1890   25.4600   -7.6920 O.2   162  GLY162     -0.2714
    146  N        -17.3890   26.0080   -7.7250 N.am  163  SER163     -0.1935
    147  CA       -17.7100   25.3290   -6.4720 C.3   163  SER163      0.2058
    148  C        -19.1150   24.7420   -6.4290 C.2   163  SER163      0.2683
    149  O        -20.0390   25.2950   -7.0260 O.2   163  SER163     -0.2710
    150  CB       -17.4240   26.2120   -5.2620 C.3   163  SER163      0.2130
    151  OG       -18.4780   27.1000   -4.9380 O.3   163  SER163     -0.2179
    152  N        -19.2480   23.6170   -5.7370 N.am  164  GLY164     -0.1716
    153  CA       -20.5200   22.9280   -5.5920 C.2   164  GLY164      0.1465
    154  C        -20.4250   21.4740   -5.1680 C.2   164  GLY164      0.2662
    155  O        -19.3280   20.9440   -4.9590 O.2   164  GLY164     -0.2684
    156  N        -21.5900   20.8000   -5.0380 N.am  165  PRO165     -0.2683
    157  CA       -21.5790   19.3880   -4.6260 C.3   165  PRO165      0.1538
    158  C        -21.0350   18.4370   -5.6870 C.2   165  PRO165      0.2598
    159  O        -20.9600   18.7920   -6.8630 O.2   165  PRO165     -0.2715
    160  CB       -23.0480   19.1070   -4.3180 C.3   165  PRO165      0.0310
    161  CG       -23.8040   20.0590   -5.1650 C.3   165  PRO165      0.0237
    162  CD       -22.9690   21.2970   -5.2390 C.3   165  PRO165      0.0942
    163  N        -20.6480   17.2300   -5.2620 N.am  166  CYS166     -0.1968
    164  CA       -20.1060   16.1900   -6.1310 C.3   166  CYS166      0.1712
    165  C        -20.4190   14.7930   -5.5560 C.2   166  CYS166      0.2296
    166  O        -21.3720   14.6540   -4.7890 O.2   166  CYS166     -0.2864
    167  CB       -18.6090   16.4050   -6.3440 C.3   166  CYS166      0.0983
    168  SG       -17.9150   15.4840   -7.7420 S.3   166  CYS166     -0.0798
    169  N        -21.9870   13.7480   -1.9690 N.3   169  ASP169     -0.1239
    170  CA       -22.7960   14.8770   -1.4840 C.3   169  ASP169      0.1674
    171  C        -24.2860   14.7050   -1.7610 C.2   169  ASP169      0.2266
    172  O        -25.0860   15.4600   -1.2050 O.2   169  ASP169     -0.2867
    173  CB       -22.3170   16.2190   -2.0810 C.3   169  ASP169      0.1410
    174  CG       -20.9080   16.6110   -1.7000 C.2   169  ASP169      0.3668
    175  OD1      -20.6160   16.6600   -0.4930 O.co2 169  ASP169     -0.2456
    176  OD2      -20.0960   16.8800   -2.6160 O.co2 169  ASP169     -0.2456
    177  N        -29.6120   17.6140   -3.1810 N.3   188  ILE188     -0.1245
    178  CA       -28.4420   17.3800   -4.0200 C.3   188  ILE188      0.1561
    179  C        -28.6100   16.0790   -4.8180 C.2   188  ILE188      0.2260
    180  O        -28.7000   14.9970   -4.2380 O.2   188  ILE188     -0.2867
    181  CB       -27.1190   17.4260   -3.2000 C.3   188  ILE188      0.0252
    182  CG1      -26.9150   18.8000   -2.5340 C.3   188  ILE188      0.0019
    183  CG2      -25.9340   17.0680   -4.0850 C.3   188  ILE188      0.0019
    184  CD1      -25.9990   18.8140   -1.3170 C.3   188  ILE188      0.0001
    185  N        -18.9700   18.0440  -12.0380 N.3   194  CYS194     -0.1221
    186  CA       -18.6990   18.6940  -10.7550 C.3   194  CYS194      0.1808
    187  C        -17.9890   20.0310  -10.8950 C.2   194  CYS194      0.2601
    188  O        -17.0610   20.1540  -11.6970 O.2   194  CYS194     -0.2717
    189  CB       -17.9360   17.7570   -9.8210 C.3   194  CYS194      0.0970
    190  SG       -18.8350   16.2410   -9.3980 S.3   194  CYS194     -0.0800
    191  N        -18.4230   21.0190  -10.0830 N.am  195  ALA195     -0.1979
    192  CA       -17.8920   22.3810   -9.9310 C.3   195  ALA195      0.1597
    193  C        -17.2400   23.0350  -11.1590 C.2   195  ALA195      0.2287
    194  O        -16.0310   23.2920  -11.1600 O.2   195  ALA195     -0.2864
    195  CB       -16.9490   22.4360   -8.7360 C.3   195  ALA195      0.0319
@<TRIPOS>BOND
     1   185   186    1
     2   188   187    2
     3   194   193    2
     4   193   192    1
     5   187   186    1
     6   187   191   am
     7   186   189    1
     8   191   192    1
     9   192   195    1
    10   189   190    1
    11   143   142    1
    12   143   144    1
    13   190   168    1
    14   142   136   am
    15   137   136    2
    16   134   135    1
    17   136   135    1
    18   135   138    1
    19   144   146   am
    20   144   145    2
    21   168   167    1
    22   146   147    1
    23   138   140    1
    24   138   139    1
    25    65    64    1
    26   149   148    2
    27   159   158    2
    28    62    64   ar
    29    62    60   ar
    30    64    63   ar
    31   147   148    1
    32   147   150    1
    33   148   152    1
    34   167   164    1
    35   139   141    1
    36   164   165    1
    37   164   163    1
    38    60    59   ar
    39    63    61   ar
    40   152   153    2
    41   158   163   am
    42   158   157    1
    43   153   154    1
    44   165   166    2
    45   150   151    1
    46   162   161    1
    47   162   156    1
    48    59    61   ar
    49    59    58    1
    50   154   156   am
    51   154   155    2
    52   161   160    1
    53   156   157    1
    54    74    75    1
    55    74    73    1
    56    76    75    2
    57   179   180    2
    58   179   178    1
    59   157   160    1
    60    58    55    1
    61   183   181    1
    62   178   181    1
    63   178   177    1
    64    73    68   am
    65    69    68    2
    66    68    67    1
    67   181   182    1
    68    57    56    2
    69   127   126    2
    70    55    56    1
    71    55    54    1
    72    56    66   am
    73   176   174   ar
    74    66    67    1
    75   182   184    1
    76    67    70    1
    77    54    52   am
    78   126   125    1
    79   173   174    1
    80   173   170    1
    81    32    31    1
    82   169   170    1
    83    33    31    1
    84   171   170    1
    85   171   172    2
    86   123   120    1
    87   174   175   ar
    88    31    28    1
    89    52    51    1
    90    52    53    2
    91    70    71    1
    92    70    72    1
    93   125   124    1
    94   125   128    1
    95   124   121   am
    96   121   120    1
    97   121   122    2
    98    51    50    1
    99   120   119    1
   100   128   129    1
   101    28    27    1
   102    28    29    1
   103   119   114   am
   104   129   131   ar
   105   129   130   ar
   106    29    30    2
   107    29    34   am
   108   131   133   ar
   109   115   114    2
   110   114   113    1
   111    37    36    2
   112    34    35    1
   113   130   132   ar
   114   108   107    1
   115   108   109    2
   116    47    46    2
   117    47    48    1
   118    36    46    1
   119    36    35    1
   120   107   106    1
   121   111   109    1
   122   133   132   ar
   123    48    49    2
   124    35    38    1
   125   113   112    1
   126   113   116    1
   127   109   110    1
   128   105   106    1
   129   105   102    1
   130   112   103   am
   131   118   116    1
   132   104   103    2
   133   103   102    1
   134   116   117    1
   135   102   101    1
   136    38    39    1
   137    41    39   ar
   138    41    43   ar
   139    39    40   ar
   140   101    95   am
   141    43    44   ar
   142    77    78    1
   143    40    42   ar
   144    44    42   ar
   145    44    45    1
   146    99    98    1
   147    88    87    2
   148    95    96    2
   149    95    94    1
   150    84    82   ar
   151    78    79    1
   152    78    81    1
   153    94    93    1
   154    94    97    1
   155    98    97    1
   156    98   100    1
   157    79    80    2
   158    87    93   am
   159    87    86    1
   160    82    81    1
   161    82    83   ar
   162    85    86    1
   163    86    89    1
   164    89    90    1
   165    15    13    1
   166    20    19    2
   167    92    90    1
   168    90    91    1
   169    13    14    1
   170    13    10    1
   171    14    16    1
   172    19    18    1
   173    12    11    2
   174    10    11    1
   175    10     9    1
   176    18    17    1
   177    18    21    1
   178     4     3    2
   179     9     3   am
   180    21    22    1
   181     3     2    1
   182    23    22   ar
   183    23    25   ar
   184    22    24   ar
   185     2     1    1
   186     2     5    1
   187    25    26   ar
   188    24    26   ar
   189     7     6    2
   190     5     6    1
   191     6     8   am
