@<TRIPOS>MOLECULE
tmp/4o42A00.pdb
 129 125 0 0 0
SMALL
GASTEIGER

@<TRIPOS>ATOM
      1  N        -17.0220    7.2250    4.5430 N.3     1  GLU1       -0.1245
      2  CA       -16.4650    6.2990    5.5820 C.3     1  GLU1        0.1567
      3  C        -16.6620    4.8620    5.0970 C.2     1  GLU1        0.2260
      4  O        -17.7880    4.4950    4.7680 O.2     1  GLU1       -0.2867
      5  CB       -17.1820    6.5090    6.9220 C.3     1  GLU1        0.0388
      6  CG       -16.8610    5.4060    7.9510 C.3     1  GLU1        0.1160
      7  CD       -15.4770    5.5750    8.5460 C.2     1  GLU1        0.3649
      8  OE1      -14.9350    6.6700    8.6270 O.co2   1  GLU1       -0.2457
      9  OE2      -14.9170    4.4600    8.9390 O.co2   1  GLU1       -0.2457
     10  N        -15.2580    0.5100    5.6380 N.3     3  GLU3       -0.1245
     11  CA       -14.4360   -0.4850    6.3500 C.3     3  GLU3        0.1567
     12  C        -13.4780   -1.1600    5.3730 C.2     3  GLU3        0.2260
     13  O        -13.7100   -1.1570    4.1610 O.2     3  GLU3       -0.2867
     14  CB       -15.2940   -1.5370    7.0460 C.3     3  GLU3        0.0388
     15  CG       -16.2740   -0.9600    8.0550 C.3     3  GLU3        0.1160
     16  CD       -15.6240   -0.2420    9.2440 C.2     3  GLU3        0.3649
     17  OE1      -14.3860   -0.3010    9.5130 O.co2   3  GLU3       -0.2457
     18  OE2      -16.3900    0.4150    9.9590 O.co2   3  GLU3       -0.2457
     19  N        -19.5430  -11.1840   20.8030 N.3    26  TYR26      -0.1241
     20  CA       -20.3660  -10.5540   21.8860 C.3    26  TYR26       0.1605
     21  C        -21.8790  -10.4690   21.5840 C.2    26  TYR26       0.2264
     22  O        -22.7110  -10.5910   22.4760 O.2    26  TYR26      -0.2867
     23  CB       -19.7750   -9.2170   22.3400 C.3    26  TYR26       0.0534
     24  CG       -19.4840   -8.2010   21.2090 C.ar   26  TYR26      -0.0201
     25  CD1      -18.2650   -8.1770   20.5670 C.ar   26  TYR26      -0.0009
     26  CD2      -20.4520   -7.2720   20.8250 C.ar   26  TYR26      -0.0009
     27  CE1      -17.9980   -7.2330   19.5920 C.ar   26  TYR26       0.0417
     28  CE2      -20.1930   -6.3490   19.8450 C.ar   26  TYR26       0.0417
     29  CZ       -18.9840   -6.3740   19.1950 C.ar   26  TYR26       0.1957
     30  OH       -18.7440   -5.3990   18.2530 O.3    26  TYR26      -0.2866
     31  N         -9.7020   -4.1640    9.4850 N.3    54  LYS54      -0.1231
     32  CA        -8.6730   -3.1400    9.8070 C.3    54  LYS54       0.1693
     33  C         -9.1520   -2.1180   10.8290 C.2    54  LYS54       0.2593
     34  O        -10.2630   -1.5430   10.7340 O.2    54  LYS54      -0.2718
     35  CB        -8.2720   -2.4350    8.5380 C.3    54  LYS54       0.0285
     36  CG        -7.1240   -1.4420    8.6950 C.3    54  LYS54       0.0035
     37  CD        -6.7240   -0.9130    7.3190 C.3    54  LYS54       0.0206
     38  CE        -6.6100    0.6020    7.2710 C.3    54  LYS54       0.1093
     39  NZ        -5.2320    0.9740    7.6510 N.3    54  LYS54      -0.1314
     40  N         -8.3430   -1.9460   11.8740 N.am   55  GLY55      -0.1942
     41  CA        -8.6760   -1.0520   12.9660 C.3    55  GLY55       0.2014
     42  C         -9.7180   -1.5460   13.9520 C.2    55  GLY55       0.2638
     43  O        -10.1000   -0.8010   14.8360 O.2    55  GLY55      -0.2714
     44  N        -10.1760   -2.7860   13.8190 N.am   56  TRP56      -0.1973
     45  CA       -11.0600   -3.4040   14.8440 C.3    56  TRP56       0.1640
     46  C        -10.4400   -4.6740   15.3770 C.2    56  TRP56       0.2290
     47  O        -10.0280   -5.5620   14.6310 O.2    56  TRP56      -0.2864
     48  CB       -12.4330   -3.7450   14.2490 C.3    56  TRP56       0.0576
     49  CG       -13.2450   -2.6510   13.6560 C.ar   56  TRP56       0.0006
     50  CD1      -13.0820   -2.0710   12.4550 C.ar   56  TRP56       0.0946
     51  CD2      -14.4470   -2.0960   14.2110 C.ar   56  TRP56       0.0152
     52  NE1      -14.0730   -1.1550   12.2260 N.ar   56  TRP56      -0.2442
     53  CE2      -14.9340   -1.1550   13.2890 C.ar   56  TRP56       0.0810
     54  CE3      -15.1340   -2.2880   15.4120 C.ar   56  TRP56       0.0012
     55  CZ2      -16.0820   -0.3930   13.5280 C.ar   56  TRP56       0.0191
     56  CZ3      -16.3030   -1.5590   15.6450 C.ar   56  TRP56       0.0001
     57  CH2      -16.7650   -0.6210   14.7010 C.ar   56  TRP56       0.0015
     58  N        -14.4580   -8.1760   17.2570 N.3    60  HIS60      -0.1241
     59  CA       -15.4440   -7.5860   16.3430 C.3    60  HIS60       0.1621
     60  C        -15.4960   -8.2790   14.9760 C.2    60  HIS60       0.2264
     61  O        -16.1240   -7.7390   14.0540 O.2    60  HIS60      -0.2867
     62  CB       -15.0560   -6.1180   16.1050 C.3    60  HIS60       0.0745
     63  CG       -14.9550   -5.3070   17.3560 C.ar   60  HIS60       0.0817
     64  ND1      -16.0600   -4.8750   18.0780 N.ar   60  HIS60      -0.2268
     65  CD2      -13.8690   -4.8530   18.0200 C.ar   60  HIS60       0.1154
     66  CE1      -15.6440   -4.1960   19.1390 C.ar   60  HIS60       0.1986
     67  NE2      -14.3260   -4.1780   19.1300 N.ar   60  HIS60      -0.2212
     68  N        -12.7860   10.4500   29.3810 N.3   131  GLN131     -0.1245
     69  CA       -14.1970   10.6320   29.1200 C.3   131  GLN131      0.1566
     70  C        -14.9840    9.3340   29.4610 C.2   131  GLN131      0.2260
     71  O        -14.5360    8.2360   29.1630 O.2   131  GLN131     -0.2867
     72  CB       -14.3840   11.0440   27.6600 C.3   131  GLN131      0.0367
     73  CG       -13.9080   10.0490   26.6000 C.3   131  GLN131      0.0905
     74  CD       -12.4250   10.1550   26.1540 C.2   131  GLN131      0.2608
     75  OE1      -11.4970   10.5520   26.9240 O.2   131  GLN131     -0.2717
     76  NE2      -12.1860    9.7300   24.8970 N.am  131  GLN131     -0.0878
     77  N        -18.9660    7.3760   29.2980 N.3   133  SER133     -0.1217
     78  CA       -20.3190    7.3860   28.7350 C.3   133  SER133      0.1889
     79  C        -21.3380    7.9180   29.7420 C.2   133  SER133      0.2288
     80  O        -21.0230    8.1310   30.9220 O.2   133  SER133     -0.2866
     81  CB       -20.6990    5.9670   28.3170 C.3   133  SER133      0.2089
     82  OG       -20.8810    5.1180   29.4400 O.3   133  SER133     -0.2183
     83  N        -13.6680    4.0490   28.3330 N.3   139  ASP139     -0.1239
     84  CA       -13.1620    3.0590   27.4260 C.3   139  ASP139      0.1674
     85  C        -11.8200    2.5730   27.9790 C.2   139  ASP139      0.2266
     86  O        -11.1840    3.2700   28.7540 O.2   139  ASP139     -0.2867
     87  CB       -13.0120    3.6520   26.0440 C.3   139  ASP139      0.1410
     88  CG       -14.3510    4.0730   25.4470 C.2   139  ASP139      0.3668
     89  OD1      -15.3980    3.5010   25.8360 O.co2 139  ASP139     -0.2456
     90  OD2      -14.3240    4.9470   24.5580 O.co2 139  ASP139     -0.2456
     91  N         -8.4390    0.2580   21.8030 N.3   154  TRP154     -0.1227
     92  CA        -9.4910    0.9010   22.6390 C.3   154  TRP154      0.1737
     93  C        -10.8130    0.1440   22.4790 C.2   154  TRP154      0.2595
     94  O        -11.2160   -0.1540   21.3580 O.2   154  TRP154     -0.2718
     95  CB        -9.6440    2.3490   22.2230 C.3   154  TRP154      0.0564
     96  CG        -8.5420    3.2080   22.7270 C.ar  154  TRP154      0.0003
     97  CD1       -7.4970    3.7470   21.9970 C.ar  154  TRP154      0.0946
     98  CD2       -8.3530    3.6330   24.0530 C.ar  154  TRP154      0.0152
     99  NE1       -6.6730    4.4660   22.8140 N.ar  154  TRP154     -0.2442
    100  CE2       -7.1560    4.3960   24.0900 C.ar  154  TRP154      0.0810
    101  CE3       -9.0530    3.4200   25.2580 C.ar  154  TRP154      0.0012
    102  CZ2       -6.6910    4.9810   25.2650 C.ar  154  TRP154      0.0191
    103  CZ3       -8.5800    3.9650   26.3910 C.ar  154  TRP154      0.0001
    104  CH2       -7.4130    4.7550   26.4060 C.ar  154  TRP154      0.0015
    105  N        -11.4650   -0.1930   23.5880 N.am  155  GLU155     -0.1965
    106  CA       -12.7220   -0.9300   23.5670 C.3   155  GLU155      0.1733
    107  C        -13.7240   -0.2590   24.5420 C.2   155  GLU155      0.2616
    108  O        -13.3280    0.2610   25.5920 O.2   155  GLU155     -0.2715
    109  CB       -12.4950   -2.3390   23.9830 C.3   155  GLU155      0.0429
    110  CG       -11.5090   -3.1430   23.1330 C.3   155  GLU155      0.1163
    111  CD       -11.9220   -3.3380   21.6980 C.2   155  GLU155      0.3649
    112  OE1      -10.9810   -3.5540   20.8580 O.co2 155  GLU155     -0.2457
    113  OE2      -13.1650   -3.2850   21.4500 O.co2 155  GLU155     -0.2457
    114  N        -14.9890   -0.3450   24.1670 N.am  156  ASP156     -0.1971
    115  CA       -16.1230    0.1800   24.9300 C.3   156  ASP156      0.1709
    116  C        -16.1350   -0.4720   26.3240 C.2   156  ASP156      0.2293
    117  O        -16.1020   -1.7010   26.4690 O.2   156  ASP156     -0.2864
    118  CB       -17.3910   -0.1270   24.0710 C.3   156  ASP156      0.1436
    119  CG       -18.6700    0.2400   24.7520 C.2   156  ASP156      0.3671
    120  OD1      -19.2190   -0.6230   25.4570 O.co2 156  ASP156     -0.2456
    121  OD2      -19.1310    1.3610   24.5600 O.co2 156  ASP156     -0.2456
    122  N        -19.0470   -2.9510   27.0910 N.3   159  LEU159     -0.1245
    123  CA       -18.7670   -4.2340   26.5080 C.3   159  LEU159      0.1561
    124  C        -17.6900   -5.0650   27.2440 C.2   159  LEU159      0.2260
    125  O        -17.9310   -6.2330   27.5480 O.2   159  LEU159     -0.2867
    126  CB       -18.3920   -4.0420   25.0360 C.3   159  LEU159      0.0270
    127  CG       -18.1590   -5.2740   24.1690 C.3   159  LEU159      0.0019
    128  CD1      -19.2210   -6.3520   24.3510 C.3   159  LEU159      0.0001
    129  CD2      -18.0610   -4.7980   22.7190 C.3   159  LEU159      0.0001
@<TRIPOS>BOND
     1    13    12    2
     2     1     2    1
     3     4     3    2
     4     3     2    1
     5    12    11    1
     6     2     5    1
     7    10    11    1
     8    11    14    1
     9     5     6    1
    10    14    15    1
    11    38    37    1
    12    38    39    1
    13    37    36    1
    14     6     7    1
    15    15    16    1
    16    35    36    1
    17    35    32    1
    18     7     8   ar
    19     7     9   ar
    20    16    17   ar
    21    16    18   ar
    22    31    32    1
    23    32    33    1
    24    34    33    2
    25    33    40   am
    26    40    41    1
    27    52    50   ar
    28    52    53   ar
    29    50    49   ar
    30    41    42    1
    31    53    55   ar
    32    53    51   ar
    33    55    57   ar
    34    49    51   ar
    35    49    48    1
    36    44    42   am
    37    44    45    1
    38    42    43    2
    39    61    60    2
    40    51    54   ar
    41    48    45    1
    42    47    46    2
    43    57    56   ar
    44    45    46    1
    45    60    59    1
    46    54    56   ar
    47    62    59    1
    48    62    63    1
    49    59    58    1
    50    63    65   ar
    51    63    64   ar
    52    65    67   ar
    53    64    66   ar
    54    30    29    1
    55    67    66   ar
    56    29    27   ar
    57    29    28   ar
    58    27    25   ar
    59    28    26   ar
    60    25    24   ar
    61    19    20    1
    62    26    24   ar
    63   112   111   ar
    64    24    23    1
    65    94    93    2
    66   113   111   ar
    67    21    20    1
    68    21    22    2
    69   111   110    1
    70    91    92    1
    71    20    23    1
    72    97    96   ar
    73    97    99   ar
    74    95    92    1
    75    95    96    1
    76    93    92    1
    77    93   105   am
    78   129   127    1
    79    96    98   ar
    80    99   100   ar
    81   110   109    1
    82   106   105    1
    83   106   109    1
    84   106   107    1
    85    98   100   ar
    86    98   101   ar
    87   118   119    1
    88   118   115    1
    89   100   102   ar
    90   114   107   am
    91   114   115    1
    92   127   128    1
    93   127   126    1
    94   107   108    2
    95    90    88   ar
    96   121   119   ar
    97   119   120   ar
    98    76    74   am
    99   115   116    1
   100   126   123    1
   101   101   103   ar
   102   102   104   ar
   103    88    89   ar
   104    88    87    1
   105    87    84    1
   106    74    73    1
   107    74    75    2
   108   116   117    2
   109   103   104   ar
   110   123   122    1
   111   123   124    1
   112    73    72    1
   113   124   125    2
   114    84    85    1
   115    84    83    1
   116    72    69    1
   117    85    86    2
   118    81    78    1
   119    81    82    1
   120    78    77    1
   121    78    79    1
   122    69    68    1
   123    69    70    1
   124    71    70    2
   125    79    80    2
