@<TRIPOS>MOLECULE
tmp/4o43A00.pdb
 159 152 0 0 0
SMALL
GASTEIGER

@<TRIPOS>ATOM
      1  N         12.9330  460.0480   34.2070 N.3    66  LEU66      -0.1231
      2  CA        14.2550  459.4650   34.3920 C.3    66  LEU66       0.1693
      3  C         15.3360  460.4900   34.0630 C.2    66  LEU66       0.2591
      4  O         16.4360  460.4480   34.6140 O.2    66  LEU66      -0.2718
      5  CB        14.4160  458.2190   33.5200 C.3    66  LEU66       0.0284
      6  CG        13.3200  457.1620   33.6720 C.3    66  LEU66       0.0019
      7  CD1       13.6080  455.9530   32.7940 C.3    66  LEU66       0.0001
      8  CD2       13.1620  456.7480   35.1270 C.3    66  LEU66       0.0001
      9  N         15.0110  461.4110   33.1610 N.am   67  LEU67      -0.1980
     10  CA        15.9080  462.5060   32.8140 C.3    67  LEU67       0.1596
     11  C         15.3610  463.8180   33.3620 C.2    67  LEU67       0.2287
     12  O         14.1670  464.0960   33.2470 O.2    67  LEU67      -0.2864
     13  CB        16.0770  462.6040   31.2970 C.3    67  LEU67       0.0297
     14  CG        16.7470  461.4190   30.6000 C.3    67  LEU67       0.0022
     15  CD1       16.6760  461.5810   29.0900 C.3    67  LEU67       0.0001
     16  CD2       18.1910  461.2700   31.0570 C.3    67  LEU67       0.0001
     17  N         16.2230  466.9530   32.3960 N.3    69  SER69      -0.1202
     18  CA        15.9500  467.8550   31.2850 C.3    69  SER69       0.2020
     19  C         14.9670  467.2110   30.3130 C.2    69  SER69       0.2619
     20  O         15.2080  466.1150   29.8070 O.2    69  SER69      -0.2717
     21  CB        17.2460  468.2260   30.5640 C.3    69  SER69       0.2103
     22  OG        17.0170  469.2280   29.5880 O.3    69  SER69      -0.2182
     23  N         13.8590  467.8990   30.0580 N.am   70  ARG70      -0.1965
     24  CA        12.7940  467.3570   29.2210 C.3    70  ARG70       0.1729
     25  C         13.2000  467.2330   27.7550 C.2    70  ARG70       0.2616
     26  O         13.0810  466.1610   27.1600 O.2    70  ARG70      -0.2715
     27  CB        11.5300  468.2120   29.3450 C.3    70  ARG70       0.0348
     28  CG        10.9890  468.2250   30.7840 C.3    70  ARG70       0.0492
     29  CD         9.9820  469.3200   31.0340 C.3    70  ARG70       0.2205
     30  NE         8.7380  469.0840   30.2960 N.pl3  70  ARG70      -0.0865
     31  CZ         7.8510  470.0320   29.9910 C.cat  70  ARG70       0.5346
     32  NH1        8.0390  471.2880   30.3910 N.pl3  70  ARG70       0.1354
     33  NH2        6.7540  469.7040   29.3060 N.pl3  70  ARG70       0.1354
     34  N         13.6810  468.3280   27.1770 N.am   71  ASN71      -0.1972
     35  CA        13.9950  468.3570   25.7520 C.3    71  ASN71       0.1688
     36  C         15.4490  468.6920   25.4260 C.2    71  ASN71       0.2292
     37  O         15.7750  469.0040   24.2800 O.2    71  ASN71      -0.2864
     38  CB        13.0520  469.3170   25.0210 C.3    71  ASN71       0.1181
     39  CG        12.3520  470.2760   25.9640 C.2    71  ASN71       0.2629
     40  OD1       11.2350  470.0170   26.4140 O.2    71  ASN71      -0.2716
     41  ND2       13.0080  471.3890   26.2720 N.am   71  ASN71      -0.0877
     42  N         18.6930  466.8200   27.2200 N.3    73  PRO73      -0.2116
     43  CA        19.5370  466.0920   28.1700 C.3    73  PRO73       0.1372
     44  C         20.9950  466.0810   27.7230 C.2    73  PRO73       0.2244
     45  O         21.2750  465.9730   26.5290 O.2    73  PRO73      -0.2868
     46  CB        18.9600  464.6780   28.1240 C.3    73  PRO73       0.0268
     47  CG        18.4440  464.5420   26.7360 C.3    73  PRO73       0.0207
     48  CD        17.9500  465.9080   26.3310 C.3    73  PRO73       0.0892
     49  N         22.3600  461.1540   29.2120 N.3    78  LEU78      -0.1245
     50  CA        21.9280  460.1130   28.2850 C.3    78  LEU78       0.1561
     51  C         22.7440  458.8390   28.4610 C.2    78  LEU78       0.2260
     52  O         22.2070  457.7330   28.3980 O.2    78  LEU78      -0.2867
     53  CB        22.0340  460.6020   26.8400 C.3    78  LEU78       0.0270
     54  CG        20.8710  461.4450   26.3210 C.3    78  LEU78       0.0019
     55  CD1       21.1680  461.9610   24.9230 C.3    78  LEU78       0.0001
     56  CD2       19.5890  460.6300   26.3310 C.3    78  LEU78       0.0001
     57  N         21.6420  457.0180   31.6130 N.3    81  LEU81      -0.1231
     58  CA        20.3320  456.4140   31.3930 C.3    81  LEU81       0.1693
     59  C         20.4580  455.0830   30.6610 C.2    81  LEU81       0.2591
     60  O         19.9440  454.0650   31.1200 O.2    81  LEU81      -0.2718
     61  CB        19.4210  457.3590   30.6080 C.3    81  LEU81       0.0284
     62  CG        18.0440  456.7940   30.2550 C.3    81  LEU81       0.0019
     63  CD1       17.2600  456.4610   31.5160 C.3    81  LEU81       0.0001
     64  CD2       17.2700  457.7630   29.3740 C.3    81  LEU81       0.0001
     65  N         21.1500  455.0990   29.5260 N.am   82  LEU82      -0.1980
     66  CA        21.3740  453.8880   28.7470 C.3    82  LEU82       0.1596
     67  C         22.1880  452.8670   29.5330 C.2    82  LEU82       0.2287
     68  O         22.0150  451.6610   29.3650 O.2    82  LEU82      -0.2864
     69  CB        22.0760  454.2190   27.4300 C.3    82  LEU82       0.0297
     70  CG        21.2490  455.0100   26.4160 C.3    82  LEU82       0.0022
     71  CD1       22.0710  455.3210   25.1760 C.3    82  LEU82       0.0001
     72  CD2       19.9960  454.2370   26.0500 C.3    82  LEU82       0.0001
     73  N         19.8200  451.3770   32.2240 N.3    85  LEU85      -0.1245
     74  CA        18.7940  450.6360   31.4990 C.3    85  LEU85       0.1561
     75  C         19.3120  449.2480   31.1460 C.2    85  LEU85       0.2260
     76  O         18.6120  448.2520   31.3240 O.2    85  LEU85      -0.2867
     77  CB        18.3660  451.3790   30.2320 C.3    85  LEU85       0.0270
     78  CG        17.2940  452.4570   30.4000 C.3    85  LEU85       0.0019
     79  CD1       16.9910  453.1310   29.0710 C.3    85  LEU85       0.0001
     80  CD2       16.0340  451.8590   30.9960 C.3    85  LEU85       0.0001
     81  N          9.1580  450.4480   30.4290 N.3    96  VAL96      -0.1245
     82  CA         9.3790  451.8740   30.6460 C.3    96  VAL96       0.1561
     83  C          8.2200  452.7350   30.1550 C.2    96  VAL96       0.2260
     84  O          7.8100  452.6420   28.9990 O.2    96  VAL96      -0.2867
     85  CB        10.6760  452.3480   29.9560 C.3    96  VAL96       0.0252
     86  CG1       10.8660  453.8460   30.1500 C.3    96  VAL96       0.0019
     87  CG2       11.8730  451.5780   30.4900 C.3    96  VAL96       0.0019
     88  N          7.7620  456.4810   29.6450 N.3    98  PRO98      -0.2116
     89  CA         8.4410  457.7820   29.5910 C.3    98  PRO98       0.1372
     90  C          7.5240  458.9370   29.9750 C.2    98  PRO98       0.2244
     91  O          6.3210  458.8820   29.7200 O.2    98  PRO98      -0.2868
     92  CB         8.8430  457.9070   28.1170 C.3    98  PRO98       0.0268
     93  CG         8.8370  456.5090   27.5920 C.3    98  PRO98       0.0207
     94  CD         7.7310  455.8240   28.3280 C.3    98  PRO98       0.0892
     95  N          8.8510  464.5610   27.0860 N.3   101  HIS101     -0.1241
     96  CA        10.0890  464.5980   26.3180 C.3   101  HIS101      0.1621
     97  C         10.0320  465.6360   25.2020 C.2   101  HIS101      0.2264
     98  O         11.0530  466.2170   24.8320 O.2   101  HIS101     -0.2867
     99  CB        10.3820  463.2150   25.7370 C.3   101  HIS101      0.0745
    100  CG         9.1700  462.5170   25.2020 C.ar  101  HIS101      0.0817
    101  ND1        8.3450  461.7470   25.9940 N.ar  101  HIS101     -0.2268
    102  CD2        8.6430  462.4710   23.9560 C.ar  101  HIS101      0.1154
    103  CE1        7.3620  461.2580   25.2590 C.ar  101  HIS101      0.1986
    104  NE2        7.5200  461.6820   24.0180 N.ar  101  HIS101     -0.2212
    105  N          9.9000  465.4090   22.1640 N.3   103  TRP103     -0.1241
    106  CA        10.5680  465.0360   20.9210 C.3   103  TRP103      0.1605
    107  C          9.7620  463.9670   20.1920 C.2   103  TRP103      0.2264
    108  O          9.4380  462.9260   20.7620 O.2   103  TRP103     -0.2867
    109  CB        11.9850  464.5250   21.1900 C.3   103  TRP103      0.0550
    110  CG        12.7300  464.1680   19.9360 C.ar  103  TRP103      0.0003
    111  CD1       12.5940  464.7490   18.7090 C.ar  103  TRP103      0.0946
    112  CD2       13.7140  463.1370   19.7840 C.ar  103  TRP103      0.0152
    113  NE1       13.4370  464.1510   17.8040 N.ar  103  TRP103     -0.2442
    114  CE2       14.1350  463.1570   18.4380 C.ar  103  TRP103      0.0810
    115  CE3       14.2820  462.2010   20.6540 C.ar  103  TRP103      0.0012
    116  CZ2       15.0970  462.2790   17.9430 C.ar  103  TRP103      0.0191
    117  CZ3       15.2370  461.3290   20.1600 C.ar  103  TRP103      0.0001
    118  CH2       15.6350  461.3750   18.8180 C.ar  103  TRP103      0.0015
    119  N         11.3390  460.3510   19.4800 N.3   106  LEU106     -0.1245
    120  CA        11.5240  459.4400   20.6040 C.3   106  LEU106      0.1561
    121  C         10.6030  458.2270   20.5220 C.2   106  LEU106      0.2260
    122  O         10.9890  457.1190   20.8930 O.2   106  LEU106     -0.2867
    123  CB        11.3070  460.1650   21.9320 C.3   106  LEU106      0.0270
    124  CG        11.9210  459.4360   23.1270 C.3   106  LEU106      0.0019
    125  CD1       13.4350  459.4850   23.0260 C.3   106  LEU106      0.0001
    126  CD2       11.4450  460.0210   24.4430 C.3   106  LEU106      0.0001
    127  N         12.1140  455.6920   18.0230 N.3   109  PHE109     -0.1227
    128  CA        13.2070  454.9350   18.6230 C.3   109  PHE109      0.1736
    129  C         12.6960  453.9860   19.7010 C.2   109  PHE109      0.2596
    130  O         13.2330  452.8930   19.8820 O.2   109  PHE109     -0.2718
    131  CB        14.2690  455.8720   19.2040 C.3   109  PHE109      0.0547
    132  CG        15.1810  456.4710   18.1710 C.ar  109  PHE109     -0.0202
    133  CD1       16.1510  455.6990   17.5540 C.ar  109  PHE109     -0.0042
    134  CD2       15.0760  457.8070   17.8240 C.ar  109  PHE109     -0.0042
    135  CE1       16.9960  456.2460   16.6060 C.ar  109  PHE109     -0.0003
    136  CE2       15.9170  458.3610   16.8770 C.ar  109  PHE109     -0.0003
    137  CZ        16.8780  457.5790   16.2670 C.ar  109  PHE109     -0.0000
    138  N         11.6560  454.4090   20.4120 N.am  110  GLY110     -0.1957
    139  CA        11.0530  453.5900   21.4470 C.3   110  GLY110      0.1869
    140  C         10.4420  452.3220   20.8840 C.2   110  GLY110      0.2309
    141  O         10.6170  451.2380   21.4400 O.2   110  GLY110     -0.2863
    142  N         13.4280  449.9890   19.5440 N.3   113  VAL113     -0.1245
    143  CA        14.0970  449.2690   20.6240 C.3   113  VAL113      0.1561
    144  C         13.2210  448.1410   21.1660 C.2   113  VAL113      0.2260
    145  O         13.7030  447.0360   21.4210 O.2   113  VAL113     -0.2867
    146  CB        14.4920  450.2240   21.7730 C.3   113  VAL113      0.0252
    147  CG1       14.9580  449.4430   22.9910 C.3   113  VAL113      0.0019
    148  CG2       15.5730  451.1900   21.3100 C.3   113  VAL113      0.0019
    149  N          8.9260  449.7340   25.6700 N.3   122  PHE122     -0.1241
    150  CA         8.5500  451.1310   25.8480 C.3   122  PHE122      0.1605
    151  C          7.0740  451.3610   25.5370 C.2   122  PHE122      0.2264
    152  O          6.6420  451.2150   24.3950 O.2   122  PHE122     -0.2867
    153  CB         9.4160  452.0380   24.9720 C.3   122  PHE122      0.0534
    154  CG        10.8220  452.2020   25.4720 C.ar  122  PHE122     -0.0203
    155  CD1       11.8130  451.3100   25.1000 C.ar  122  PHE122     -0.0042
    156  CD2       11.1520  453.2490   26.3170 C.ar  122  PHE122     -0.0042
    157  CE1       13.1080  451.4590   25.5620 C.ar  122  PHE122     -0.0003
    158  CE2       12.4440  453.4020   26.7830 C.ar  122  PHE122     -0.0003
    159  CZ        13.4240  452.5050   26.4040 C.ar  122  PHE122     -0.0000
@<TRIPOS>BOND
     1   137   135   ar
     2   137   136   ar
     3   135   133   ar
     4   136   134   ar
     5   133   132   ar
     6   113   114   ar
     7   113   111   ar
     8   134   132   ar
     9   116   114   ar
    10   116   118   ar
    11   127   128    1
    12   132   131    1
    13   114   112   ar
    14   128   131    1
    15   128   129    1
    16   111   110   ar
    17   118   117   ar
    18   119   120    1
    19   142   143    1
    20   129   130    2
    21   129   138   am
    22   112   110   ar
    23   112   115   ar
    24   110   109    1
    25   117   115   ar
    26   107   108    2
    27   107   106    1
    28   138   139    1
    29   121   120    1
    30   121   122    2
    31   120   123    1
    32   143   144    1
    33   143   146    1
    34   140   141    2
    35   140   139    1
    36   106   109    1
    37   106   105    1
    38   144   145    2
    39   148   146    1
    40   146   147    1
    41   123   124    1
    42   125   124    1
    43   124   126    1
    44   102   104   ar
    45   102   100   ar
    46   104   103   ar
    47    37    36    2
    48   152   151    2
    49    98    97    2
    50    55    54    1
    51   153   154    1
    52   153   150    1
    53    38    35    1
    54    38    39    1
    55   155   154   ar
    56   155   157   ar
    57    71    70    1
    58    97    96    1
    59   100    99    1
    60   100   101   ar
    61   103   101   ar
    62    36    35    1
    63   154   156   ar
    64   151   150    1
    65   157   159   ar
    66   149   150    1
    67    99    96    1
    68    35    34    1
    69    39    41   am
    70    39    40    2
    71    72    70    1
    72   156   158   ar
    73    96    95    1
    74    54    56    1
    75    54    53    1
    76    48    47    1
    77    48    42    1
    78   159   158   ar
    79    70    69    1
    80    45    44    2
    81    47    46    1
    82    53    50    1
    83    26    25    2
    84    34    25   am
    85    42    43    1
    86    69    66    1
    87    93    92    1
    88    93    94    1
    89    44    43    1
    90    25    24    1
    91    92    89    1
    92    46    43    1
    93    50    51    1
    94    50    49    1
    95    94    88    1
    96    52    51    2
    97    66    65    1
    98    66    67    1
    99    84    83    2
   100    79    78    1
   101    15    14    1
   102    24    27    1
   103    24    23    1
   104    33    31    1
   105    27    28    1
   106    68    67    2
   107    64    62    1
   108    65    59   am
   109    22    21    1
   110    89    88    1
   111    89    90    1
   112    91    90    2
   113    20    19    2
   114    85    86    1
   115    85    87    1
   116    85    82    1
   117    31    30    2
   118    31    32    1
   119    23    19   am
   120    83    82    1
   121    77    78    1
   122    77    74    1
   123    62    61    1
   124    62    63    1
   125    30    29    1
   126    19    18    1
   127    78    80    1
   128    81    82    1
   129    21    18    1
   130    14    16    1
   131    14    13    1
   132    61    58    1
   133    59    60    2
   134    59    58    1
   135    28    29    1
   136    75    76    2
   137    75    74    1
   138    18    17    1
   139    13    10    1
   140    58    57    1
   141    74    73    1
   142     7     6    1
   143    10     9    1
   144    10    11    1
   145     9     3   am
   146    12    11    2
   147     5     6    1
   148     5     2    1
   149     6     8    1
   150     3     2    1
   151     3     4    2
   152     1     2    1
