@<TRIPOS>MOLECULE
tmp/4o44A00.pdb
 180 179 0 0 0
SMALL
GASTEIGER

@<TRIPOS>ATOM
      1  N         43.3170  -17.5310   25.9580 N.3    95  PRO95      -0.2116
      2  CA        42.4770  -18.2630   25.0090 C.3    95  PRO95       0.1372
      3  C         41.5700  -19.2590   25.7180 C.2    95  PRO95       0.2244
      4  O         42.0560  -20.1260   26.4440 O.2    95  PRO95      -0.2868
      5  CB        43.4960  -18.9780   24.1080 C.3    95  PRO95       0.0268
      6  CG        44.7780  -18.9620   24.8630 C.3    95  PRO95       0.0207
      7  CD        44.7540  -17.7240   25.6960 C.3    95  PRO95       0.0892
      8  N         39.4180  -23.5420   21.0790 N.3   100  LEU100     -0.1231
      9  CA        40.6010  -24.1570   20.4990 C.3   100  LEU100      0.1693
     10  C         40.1740  -25.2420   19.5080 C.2   100  LEU100      0.2592
     11  O         39.0580  -25.7610   19.5940 O.2   100  LEU100     -0.2718
     12  CB        41.4830  -24.7600   21.5920 C.3   100  LEU100      0.0284
     13  CG        42.0470  -23.8400   22.6760 C.3   100  LEU100      0.0019
     14  CD1       42.8430  -24.6540   23.6780 C.3   100  LEU100      0.0001
     15  CD2       42.9150  -22.7480   22.0850 C.3   100  LEU100      0.0001
     16  N         41.0490  -25.5680   18.5560 N.am  101  LYS101     -0.1966
     17  CA        40.7890  -26.6690   17.6300 C.3   101  LYS101      0.1728
     18  C         41.6310  -27.8790   17.9980 C.2   101  LYS101      0.2616
     19  O         42.7720  -27.7390   18.4390 O.2   101  LYS101     -0.2715
     20  CB        41.0730  -26.2790   16.1800 C.3   101  LYS101      0.0311
     21  CG        40.0830  -25.3060   15.5600 C.3   101  LYS101      0.0038
     22  CD        40.5100  -23.8650   15.7870 C.3   101  LYS101      0.0206
     23  CE        39.8260  -22.9380   14.8070 C.3   101  LYS101      0.1093
     24  NZ        40.3040  -21.5360   14.9580 N.3   101  LYS101     -0.1314
     25  N         41.0570  -29.0640   17.8120 N.am  102  LYS102     -0.1963
     26  CA        41.7270  -30.3160   18.1420 C.3   102  LYS102      0.1728
     27  C         42.8510  -30.5830   17.1570 C.2   102  LYS102      0.2616
     28  O         42.7950  -30.1560   16.0040 O.2   102  LYS102     -0.2715
     29  CB        40.7240  -31.4730   18.1130 C.3   102  LYS102      0.0311
     30  CG        41.1760  -32.7240   18.8520 C.3   102  LYS102      0.0038
     31  CD        41.7990  -33.7530   17.9210 C.3   102  LYS102      0.0206
     32  CE        42.3520  -34.9260   18.7070 C.3   102  LYS102      0.1093
     33  NZ        43.3590  -34.4810   19.7140 N.3   102  LYS102     -0.1314
     34  N         43.8770  -31.2840   17.6210 N.am  103  LYS103     -0.1977
     35  CA        44.9760  -31.6930   16.7630 C.3   103  LYS103      0.1596
     36  C         45.4420  -33.0800   17.1500 C.2   103  LYS103      0.2287
     37  O         45.1780  -33.5450   18.2590 O.2   103  LYS103     -0.2864
     38  CB        46.1390  -30.7200   16.8890 C.3   103  LYS103      0.0298
     39  CG        45.9240  -29.4090   16.1820 C.3   103  LYS103      0.0038
     40  CD        46.7420  -28.3430   16.8510 C.3   103  LYS103      0.0206
     41  CE        47.2620  -27.3400   15.8590 C.3   103  LYS103      0.1093
     42  NZ        48.0140  -26.2930   16.5970 N.3   103  LYS103     -0.1314
     43  N         48.2910  -33.8750   17.8610 N.3   105  SER105     -0.1202
     44  CA        49.3740  -33.7630   18.8290 C.3   105  SER105      0.2020
     45  C         49.6210  -32.3110   19.2460 C.2   105  SER105      0.2619
     46  O         49.5440  -31.4050   18.4170 O.2   105  SER105     -0.2717
     47  CB        50.6510  -34.3590   18.2270 C.3   105  SER105      0.2103
     48  OG        51.7140  -34.3530   19.1600 O.3   105  SER105     -0.2182
     49  N         49.9000  -32.0910   20.5310 N.am  106  VAL106     -0.1965
     50  CA        50.3120  -30.7690   21.0110 C.3   106  VAL106      0.1727
     51  C         51.4570  -30.8570   22.0210 C.2   106  VAL106      0.2617
     52  O         51.5690  -31.8290   22.7690 O.2   106  VAL106     -0.2715
     53  CB        49.1510  -29.9570   21.6510 C.3   106  VAL106      0.0290
     54  CG1       47.9850  -29.7890   20.6860 C.3   106  VAL106      0.0023
     55  CG2       48.6970  -30.5970   22.9420 C.3   106  VAL106      0.0023
     56  N         52.2950  -29.8250   22.0440 N.am  107  THR107     -0.1937
     57  CA        53.4770  -29.7920   22.9020 C.3   107  THR107      0.2028
     58  C         53.5600  -28.4700   23.6750 C.2   107  THR107      0.2642
     59  O         53.0840  -27.4350   23.2100 O.2   107  THR107     -0.2714
     60  CB        54.7620  -29.9640   22.0650 C.3   107  THR107      0.1808
     61  OG1       54.5610  -30.9840   21.0780 O.3   107  THR107     -0.2208
     62  CG2       55.9420  -30.3380   22.9480 C.3   107  THR107      0.0379
     63  N         54.1690  -28.5120   24.8530 N.am  108  VAL108     -0.1977
     64  CA        54.3120  -27.3300   25.6900 C.3   108  VAL108      0.1596
     65  C         55.7800  -27.1170   26.0190 C.2   108  VAL108      0.2287
     66  O         56.4370  -28.0240   26.5240 O.2   108  VAL108     -0.2864
     67  CB        53.5350  -27.5000   27.0130 C.3   108  VAL108      0.0276
     68  CG1       53.8940  -26.4000   28.0010 C.3   108  VAL108      0.0022
     69  CG2       52.0390  -27.5360   26.7520 C.3   108  VAL108      0.0022
     70  N         51.0510  -24.5950   14.2470 N.3   179  VAL179     -0.1245
     71  CA        50.6100  -23.3750   14.8960 C.3   179  VAL179      0.1561
     72  C         51.1980  -23.2840   16.2980 C.2   179  VAL179      0.2260
     73  O         51.2740  -24.2800   17.0200 O.2   179  VAL179     -0.2867
     74  CB        49.0650  -23.2090   14.8880 C.3   179  VAL179      0.0252
     75  CG1       48.4040  -24.3540   14.1430 C.3   179  VAL179      0.0019
     76  CG2       48.5180  -23.0530   16.2980 C.3   179  VAL179      0.0019
     77  N         51.2500  -20.9960   19.9640 N.3   181  TYR181     -0.1241
     78  CA        50.6510  -20.0030   20.8400 C.3   181  TYR181      0.1605
     79  C         51.7010  -19.5540   21.8360 C.2   181  TYR181      0.2264
     80  O         52.4210  -20.3800   22.3940 O.2   181  TYR181     -0.2867
     81  CB        49.4640  -20.5930   21.6020 C.3   181  TYR181      0.0534
     82  CG        48.2390  -20.8670   20.7630 C.ar  181  TYR181     -0.0201
     83  CD1       48.0570  -20.2570   19.5290 C.ar  181  TYR181     -0.0009
     84  CD2       47.2590  -21.7350   21.2110 C.ar  181  TYR181     -0.0009
     85  CE1       46.9250  -20.5140   18.7660 C.ar  181  TYR181      0.0417
     86  CE2       46.1300  -21.9960   20.4620 C.ar  181  TYR181      0.0417
     87  CZ        45.9640  -21.3870   19.2440 C.ar  181  TYR181      0.1957
     88  OH        44.8330  -21.6610   18.5100 O.3   181  TYR181     -0.2866
     89  N         53.1690  -22.9920   23.3320 N.3   188  TYR188     -0.1227
     90  CA        52.2530  -24.1160   23.1540 C.3   188  TYR188      0.1736
     91  C         52.0910  -24.4860   21.6910 C.2   188  TYR188      0.2595
     92  O         51.2990  -23.8800   20.9770 O.2   188  TYR188     -0.2718
     93  CB        50.8770  -23.7750   23.7300 C.3   188  TYR188      0.0548
     94  CG        50.8870  -23.3130   25.1710 C.ar  188  TYR188     -0.0200
     95  CD1       51.7520  -23.8760   26.0970 C.ar  188  TYR188     -0.0009
     96  CD2       50.0360  -22.3030   25.6020 C.ar  188  TYR188     -0.0009
     97  CE1       51.7690  -23.4520   27.4080 C.ar  188  TYR188      0.0417
     98  CE2       50.0460  -21.8710   26.9130 C.ar  188  TYR188      0.0417
     99  CZ        50.9170  -22.4500   27.8110 C.ar  188  TYR188      0.1957
    100  OH        50.9350  -22.0280   29.1200 O.3   188  TYR188     -0.2866
    101  N         52.8220  -25.5060   21.2590 N.am  189  VAL189     -0.1966
    102  CA        52.9050  -25.8680   19.8480 C.3   189  VAL189      0.1727
    103  C         52.0040  -27.0560   19.5110 C.2   189  VAL189      0.2616
    104  O         51.9540  -28.0320   20.2560 O.2   189  VAL189     -0.2715
    105  CB        54.3560  -26.2240   19.4820 C.3   189  VAL189      0.0290
    106  CG1       54.5230  -26.3080   17.9810 C.3   189  VAL189      0.0023
    107  CG2       55.3170  -25.2020   20.0750 C.3   189  VAL189      0.0023
    108  N         51.2980  -26.9770   18.3860 N.am  190  GLY190     -0.1955
    109  CA        50.4380  -28.0660   17.9540 C.3   190  GLY190      0.1869
    110  C         50.4840  -28.2960   16.4550 C.2   190  GLY190      0.2309
    111  O         50.9140  -27.4240   15.7080 O.2   190  GLY190     -0.2863
    112  N         50.1500  -34.5530   29.6060 N.3   225  PRO225     -0.2116
    113  CA        48.7470  -34.3670   29.2190 C.3   225  PRO225      0.1372
    114  C         47.8430  -35.3780   29.9260 C.2   225  PRO225      0.2244
    115  O         48.1700  -36.5690   29.9460 O.2   225  PRO225     -0.2868
    116  CB        48.7600  -34.6290   27.7040 C.3   225  PRO225      0.0268
    117  CG        50.2250  -34.7820   27.3130 C.3   225  PRO225      0.0207
    118  CD        51.0440  -34.3030   28.4650 C.3   225  PRO225      0.0892
    119  N         46.7820  -31.2550   30.5840 N.3   227  PHE227     -0.1241
    120  CA        47.5490  -30.1130   31.0730 C.3   227  PHE227      0.1605
    121  C         46.7850  -29.3060   32.1210 C.2   227  PHE227      0.2264
    122  O         45.6680  -28.8440   31.8730 O.2   227  PHE227     -0.2867
    123  CB        47.9290  -29.1910   29.9140 C.3   227  PHE227      0.0534
    124  CG        48.5280  -29.9040   28.7310 C.ar  227  PHE227     -0.0203
    125  CD1       49.8510  -30.3160   28.7470 C.ar  227  PHE227     -0.0042
    126  CD2       47.7720  -30.1370   27.5920 C.ar  227  PHE227     -0.0042
    127  CE1       50.4040  -30.9600   27.6550 C.ar  227  PHE227     -0.0003
    128  CE2       48.3200  -30.7810   26.4970 C.ar  227  PHE227     -0.0003
    129  CZ        49.6370  -31.1940   26.5300 C.ar  227  PHE227     -0.0000
    130  N         46.5440  -26.2630   33.0130 N.3   229  TRP229     -0.1241
    131  CA        46.9300  -24.9650   32.4750 C.3   229  TRP229      0.1605
    132  C         46.5540  -23.7880   33.3750 C.2   229  TRP229      0.2264
    133  O         47.3520  -23.3390   34.2020 O.2   229  TRP229     -0.2867
    134  CB        46.3110  -24.7680   31.0900 C.3   229  TRP229      0.0550
    135  CG        46.7410  -23.5010   30.4290 C.ar  229  TRP229      0.0003
    136  CD1       47.9640  -22.9070   30.5190 C.ar  229  TRP229      0.0946
    137  CD2       45.9450  -22.6580   29.5910 C.ar  229  TRP229      0.0152
    138  NE1       47.9840  -21.7490   29.7810 N.ar  229  TRP229     -0.2442
    139  CE2       46.7550  -21.5740   29.2000 C.ar  229  TRP229      0.0810
    140  CE3       44.6270  -22.7160   29.1280 C.ar  229  TRP229      0.0012
    141  CZ2       46.2920  -20.5590   28.3710 C.ar  229  TRP229      0.0191
    142  CZ3       44.1710  -21.7080   28.3040 C.ar  229  TRP229      0.0001
    143  CH2       44.9990  -20.6430   27.9350 C.ar  229  TRP229      0.0015
    144  N         43.0980  -29.6870   30.1140 N.3   234  LEU234     -0.1231
    145  CA        43.0440  -29.9020   28.6710 C.3   234  LEU234      0.1693
    146  C         43.4570  -31.3140   28.2690 C.2   234  LEU234      0.2592
    147  O         44.6320  -31.6630   28.3370 O.2   234  LEU234     -0.2718
    148  CB        43.9310  -28.8780   27.9610 C.3   234  LEU234      0.0284
    149  CG        43.5450  -27.4080   28.1380 C.3   234  LEU234      0.0019
    150  CD1       44.6820  -26.5000   27.7190 C.3   234  LEU234      0.0001
    151  CD2       42.2990  -27.0990   27.3320 C.3   234  LEU234      0.0001
    152  N         42.4820  -32.1160   27.8480 N.am  235  HIS235     -0.1962
    153  CA        42.7290  -33.4810   27.3820 C.3   235  HIS235      0.1772
    154  C         42.7960  -33.4770   25.8540 C.2   235  HIS235      0.2462
    155  O         42.3820  -32.5040   25.2260 O.2   235  HIS235     -0.2730
    156  CB        41.6140  -34.4170   27.8590 C.3   235  HIS235      0.0785
    157  CG        41.4260  -34.4370   29.3450 C.ar  235  HIS235      0.0821
    158  ND1       42.0180  -35.3800   30.1580 N.ar  235  HIS235     -0.2267
    159  CD2       40.7000  -33.6400   30.1640 C.ar  235  HIS235      0.1154
    160  CE1       41.6710  -35.1580   31.4130 C.ar  235  HIS235      0.1986
    161  NE2       40.8730  -34.1070   31.4440 N.ar  235  HIS235     -0.2212
    162  N         43.3300  -34.5510   25.2480 N.am  236  PRO236     -0.2727
    163  CA        43.4460  -34.6020   23.7840 C.3   236  PRO236      0.1402
    164  C         42.1300  -34.4870   23.0160 C.2   236  PRO236      0.2269
    165  O         42.1420  -34.0350   21.8740 O.2   236  PRO236     -0.2865
    166  CB        44.0820  -35.9730   23.5380 C.3   236  PRO236      0.0296
    167  CG        44.8940  -36.2150   24.7510 C.3   236  PRO236      0.0237
    168  CD        44.0930  -35.6380   25.8890 C.3   236  PRO236      0.0939
    169  N         35.9790  -29.4940   21.8720 N.3   318  TYR318     -0.1241
    170  CA        36.6770  -28.4080   21.1990 C.3   318  TYR318      0.1605
    171  C         35.9160  -27.9390   19.9640 C.2   318  TYR318      0.2264
    172  O         34.8520  -28.4670   19.6420 O.2   318  TYR318     -0.2867
    173  CB        38.0860  -28.8510   20.8080 C.3   318  TYR318      0.0534
    174  CG        39.0250  -29.0520   21.9780 C.ar  318  TYR318     -0.0201
    175  CD1       39.8730  -30.1460   22.0290 C.ar  318  TYR318     -0.0009
    176  CD2       39.0750  -28.1390   23.0230 C.ar  318  TYR318     -0.0009
    177  CE1       40.7360  -30.3320   23.0870 C.ar  318  TYR318      0.0417
    178  CE2       39.9400  -28.3160   24.0860 C.ar  318  TYR318      0.0417
    179  CZ        40.7680  -29.4170   24.1110 C.ar  318  TYR318      0.1957
    180  OH        41.6320  -29.6110   25.1640 O.3   318  TYR318     -0.2866
@<TRIPOS>BOND
     1    75    74    1
     2    70    71    1
     3    23    24    1
     4    23    22    1
     5    74    71    1
     6    74    76    1
     7    71    72    1
     8    21    22    1
     9    21    20    1
    10   111   110    2
    11    41    42    1
    12    41    40    1
    13    28    27    2
    14    20    17    1
    15    39    40    1
    16    39    38    1
    17    72    73    2
    18   110   109    1
    19    35    38    1
    20    35    36    1
    21    35    34    1
    22    36    37    2
    23    27    34   am
    24    27    26    1
    25    17    18    1
    26    17    16    1
    27    25    18   am
    28    25    26    1
    29    43    44    1
    30    31    32    1
    31    31    30    1
    32   109   108    1
    33   106   105    1
    34    18    19    2
    35    29    26    1
    36    29    30    1
    37    47    44    1
    38    47    48    1
    39   108   103   am
    40    46    45    2
    41    88    87    1
    42    16    10   am
    43    32    33    1
    44    85    87   ar
    45    85    83   ar
    46    44    45    1
    47    87    86   ar
    48    45    49   am
    49   105   102    1
    50   105   107    1
    51    10    11    2
    52    10     9    1
    53   103   102    1
    54   103   104    2
    55    83    82   ar
    56   172   171    2
    57   102   101    1
    58   171   170    1
    59    77    78    1
    60    86    84   ar
    61     9     8    1
    62     9    12    1
    63    49    50    1
    64    54    53    1
    65    82    84   ar
    66    82    81    1
    67   173   170    1
    68   173   174    1
    69    78    81    1
    70    78    79    1
    71    92    91    2
    72    50    53    1
    73    50    51    1
    74    61    60    1
    75   170   169    1
    76   101    91   am
    77    12    13    1
    78    53    55    1
    79    91    90    1
    80    79    80    2
    81   165   164    2
    82   174   175   ar
    83   174   176   ar
    84    51    56   am
    85    51    52    2
    86   175   177   ar
    87    56    57    1
    88    60    57    1
    89    60    62    1
    90    15    13    1
    91    13    14    1
    92    57    58    1
    93   164   163    1
    94   176   178   ar
    95   177   179   ar
    96    90    89    1
    97    90    93    1
    98    59    58    2
    99   166   163    1
   100   166   167    1
   101    58    63   am
   102    93    94    1
   103   163   162    1
   104   178   179   ar
   105     5     6    1
   106     5     2    1
   107   179   180    1
   108   167   168    1
   109    63    64    1
   110     6     7    1
   111     2     3    1
   112     2     1    1
   113    94    96   ar
   114    94    95   ar
   115   155   154    2
   116   162   154   am
   117   162   168    1
   118    96    98   ar
   119    64    65    1
   120    64    67    1
   121     7     1    1
   122     3     4    2
   123   154   153    1
   124    65    66    2
   125    95    97   ar
   126   128   129   ar
   127   128   126   ar
   128   129   127   ar
   129    69    67    1
   130    98    99   ar
   131    67    68    1
   132   117   116    1
   133   117   118    1
   134   151   149    1
   135   153   152    1
   136   153   156    1
   137    97    99   ar
   138   126   124   ar
   139   127   125   ar
   140   116   113    1
   141   150   149    1
   142    99   100    1
   143   152   146   am
   144   156   157    1
   145   143   142   ar
   146   143   141   ar
   147   148   149    1
   148   148   145    1
   149   146   147    2
   150   146   145    1
   151   142   140   ar
   152   141   139   ar
   153   118   112    1
   154   145   144    1
   155   124   125   ar
   156   124   123    1
   157   140   137   ar
   158   139   137   ar
   159   139   138   ar
   160   113   112    1
   161   113   114    1
   162   157   158   ar
   163   157   159   ar
   164   137   135   ar
   165   138   136   ar
   166   123   120    1
   167   114   115    2
   168   158   160   ar
   169   159   161   ar
   170   135   136   ar
   171   135   134    1
   172   119   120    1
   173   120   121    1
   174   134   131    1
   175   160   161   ar
   176   122   121    2
   177   131   130    1
   178   131   132    1
   179   132   133    2
