@<TRIPOS>MOLECULE
tmp/4o46B00.pdb
 176 167 0 0 0
SMALL
GASTEIGER

@<TRIPOS>ATOM
      1  N        -14.0800   33.5450  -59.8480 N.3    46  VAL46      -0.1245
      2  CA       -13.2110   34.3750  -60.6960 C.3    46  VAL46       0.1561
      3  C        -12.4120   35.3550  -59.8260 C.2    46  VAL46       0.2260
      4  O        -11.1980   35.4740  -60.0070 O.2    46  VAL46      -0.2867
      5  CB       -14.0260   35.0940  -61.8170 C.3    46  VAL46       0.0252
      6  CG1      -13.2480   36.2430  -62.4530 C.3    46  VAL46       0.0019
      7  CG2      -14.4700   34.1060  -62.8800 C.3    46  VAL46       0.0019
      8  N         -9.8930   33.4200  -57.6490 N.3    49  LYS49      -0.1245
      9  CA        -8.9570   32.7150  -58.5400 C.3    49  LYS49       0.1561
     10  C         -7.8670   33.6830  -59.0040 C.2    49  LYS49       0.2260
     11  O         -6.6940   33.3200  -58.9850 O.2    49  LYS49      -0.2867
     12  CB        -9.6940   32.0840  -59.7380 C.3    49  LYS49       0.0271
     13  CG        -8.8170   31.3290  -60.7340 C.3    49  LYS49       0.0035
     14  CD        -8.6970   29.8560  -60.4210 C.3    49  LYS49       0.0206
     15  CE        -7.5030   29.2470  -61.1220 C.3    49  LYS49       0.1093
     16  NZ        -7.6760   29.1520  -62.5960 N.3    49  LYS49      -0.1314
     17  N          0.3640   33.0040  -56.8060 N.3    56  ARG56      -0.1245
     18  CA         0.8500   31.7410  -57.3790 C.3    56  ARG56       0.1563
     19  C          1.8860   32.0260  -58.4630 C.2    56  ARG56       0.2260
     20  O          2.9760   31.4540  -58.4330 O.2    56  ARG56      -0.2867
     21  CB        -0.3110   30.9190  -57.9510 C.3    56  ARG56       0.0307
     22  CG        -1.1980   30.2700  -56.8930 C.3    56  ARG56       0.0489
     23  CD        -2.3800   29.5530  -57.5130 C.3    56  ARG56       0.2205
     24  NE        -1.9860   28.3210  -58.1900 N.pl3  56  ARG56      -0.0865
     25  CZ        -2.6300   27.7910  -59.2230 C.cat  56  ARG56       0.5346
     26  NH1       -3.7060   28.3860  -59.7200 N.pl3  56  ARG56       0.1354
     27  NH2       -2.2130   26.6530  -59.7580 N.pl3  56  ARG56       0.1354
     28  N        -15.3200   21.2830  -55.2130 N.3   124  LYS124     -0.1245
     29  CA       -14.2870   21.4050  -56.2470 C.3   124  LYS124      0.1561
     30  C        -13.3790   22.5900  -55.8990 C.2   124  LYS124      0.2260
     31  O        -12.1690   22.4910  -56.0810 O.2   124  LYS124     -0.2867
     32  CB       -14.9220   21.6260  -57.6270 C.3   124  LYS124      0.0271
     33  CG       -13.9390   21.5510  -58.7890 C.3   124  LYS124      0.0035
     34  CD       -14.2500   22.5940  -59.8370 C.3   124  LYS124      0.0206
     35  CE       -13.0010   23.0740  -60.5240 C.3   124  LYS124      0.1093
     36  NZ       -13.0590   24.5260  -60.8350 N.3   124  LYS124     -0.1314
     37  N         -5.1860   22.4830  -52.8260 N.3   131  ARG131     -0.1231
     38  CA        -4.1680   22.1330  -53.8220 C.3   131  ARG131      0.1694
     39  C         -3.1930   23.3130  -53.9680 C.2   131  ARG131      0.2592
     40  O         -1.9820   23.0900  -54.0480 O.2   131  ARG131     -0.2718
     41  CB        -4.8200   21.7690  -55.1710 C.3   131  ARG131      0.0321
     42  CG        -3.8390   21.4760  -56.3010 C.3   131  ARG131      0.0489
     43  CD        -4.5040   20.8070  -57.4950 C.3   131  ARG131      0.2205
     44  NE        -5.6240   21.5770  -58.0390 N.pl3 131  ARG131     -0.0865
     45  CZ        -5.4980   22.5290  -58.9540 C.cat 131  ARG131      0.5346
     46  NH1       -4.3000   22.8460  -59.4330 N.pl3 131  ARG131      0.1354
     47  NH2       -6.5670   23.1880  -59.3840 N.pl3 131  ARG131      0.1354
     48  N         -3.7180   24.5640  -53.9490 N.am  132  TYR132     -0.1976
     49  CA        -2.8870   25.7740  -54.0350 C.3   132  TYR132      0.1639
     50  C         -1.9870   25.8880  -52.8060 C.2   132  TYR132      0.2290
     51  O         -0.8260   26.2920  -52.9320 O.2   132  TYR132     -0.2864
     52  CB        -3.7300   27.0410  -54.2330 C.3   132  TYR132      0.0560
     53  CG        -4.6660   27.0240  -55.4260 C.ar  132  TYR132     -0.0198
     54  CD1       -4.3640   26.2840  -56.5680 C.ar  132  TYR132     -0.0009
     55  CD2       -5.8320   27.7810  -55.4320 C.ar  132  TYR132     -0.0009
     56  CE1       -5.2360   26.2430  -57.6540 C.ar  132  TYR132      0.0417
     57  CE2       -6.6990   27.7700  -56.5260 C.ar  132  TYR132      0.0417
     58  CZ        -6.3900   27.0040  -57.6370 C.ar  132  TYR132      0.1957
     59  OH        -7.2310   26.9880  -58.7140 O.3   132  TYR132     -0.2866
     60  N        -20.6270   21.0610  -67.3690 N.3   169  PRO169     -0.2116
     61  CA       -19.3730   21.8180  -67.1790 C.3   169  PRO169      0.1372
     62  C        -18.7380   21.6570  -65.8020 C.2   169  PRO169      0.2244
     63  O        -17.5220   21.5160  -65.7310 O.2   169  PRO169     -0.2868
     64  CB       -19.7930   23.2680  -67.4200 C.3   169  PRO169      0.0268
     65  CG       -20.9930   23.1850  -68.2450 C.3   169  PRO169      0.0207
     66  CD       -21.7090   21.9370  -67.8570 C.3   169  PRO169      0.0892
     67  N        -15.1690   20.0820  -65.3080 N.3   173  GLY173     -0.1225
     68  CA       -14.2520   20.9990  -64.6400 C.3   173  GLY173      0.1811
     69  C        -13.5780   20.3850  -63.4370 C.2   173  GLY173      0.2280
     70  O        -12.3890   20.6110  -63.2060 O.2   173  GLY173     -0.2866
     71  N        -11.0890   17.7350  -64.6280 N.3   176  LEU176     -0.1231
     72  CA        -9.9040   18.4420  -65.1080 C.3   176  LEU176      0.1693
     73  C         -8.9550   18.7860  -63.9460 C.2   176  LEU176      0.2592
     74  O         -7.7800   18.4160  -63.9960 O.2   176  LEU176     -0.2718
     75  CB       -10.3100   19.7180  -65.8780 C.3   176  LEU176      0.0284
     76  CG        -9.1830   20.6020  -66.4390 C.3   176  LEU176      0.0019
     77  CD1       -8.4150   19.9010  -67.5360 C.3   176  LEU176      0.0001
     78  CD2       -9.7360   21.8780  -66.9870 C.3   176  LEU176      0.0001
     79  N         -9.4690   19.4610  -62.9000 N.am  177  ASN177     -0.1974
     80  CA        -8.6590   19.8750  -61.7520 C.3   177  ASN177      0.1688
     81  C         -8.2130   18.6930  -60.8710 C.2   177  ASN177      0.2292
     82  O         -7.0690   18.6820  -60.4100 O.2   177  ASN177     -0.2864
     83  CB        -9.3760   20.9530  -60.9550 C.3   177  ASN177      0.1181
     84  CG        -9.3780   22.2950  -61.6620 C.2   177  ASN177      0.2629
     85  OD1       -9.1600   22.3990  -62.8740 O.2   177  ASN177     -0.2716
     86  ND2       -9.5920   23.3680  -60.9210 N.am  177  ASN177     -0.0877
     87  N         -5.3460   17.0350  -62.6150 N.3   180  VAL180     -0.1245
     88  CA        -4.1860   17.9180  -62.4320 C.3   180  VAL180      0.1561
     89  C         -3.5840   17.6560  -61.0290 C.2   180  VAL180      0.2260
     90  O         -2.3590   17.5770  -60.8890 O.2   180  VAL180     -0.2867
     91  CB        -4.5500   19.4180  -62.6820 C.3   180  VAL180      0.0252
     92  CG1       -3.4860   20.3620  -62.1240 C.3   180  VAL180      0.0019
     93  CG2       -4.7770   19.6950  -64.1710 C.3   180  VAL180      0.0019
     94  N         -1.6290   14.3090  -61.1200 N.3   183  TYR183     -0.1227
     95  CA        -0.3710   14.4550  -61.8470 C.3   183  TYR183      0.1736
     96  C          0.6300   15.3400  -61.1050 C.2   183  TYR183      0.2595
     97  O          1.7210   14.8710  -60.7800 O.2   183  TYR183     -0.2718
     98  CB        -0.6110   14.9820  -63.2830 C.3   183  TYR183      0.0548
     99  CG         0.5690   14.7820  -64.2080 C.ar  183  TYR183     -0.0200
    100  CD1        0.7370   13.5900  -64.9080 C.ar  183  TYR183     -0.0009
    101  CD2        1.5230   15.7810  -64.3790 C.ar  183  TYR183     -0.0009
    102  CE1        1.8320   13.3930  -65.7500 C.ar  183  TYR183      0.0417
    103  CE2        2.6250   15.5940  -65.2140 C.ar  183  TYR183      0.0417
    104  CZ         2.7750   14.3980  -65.8990 C.ar  183  TYR183      0.1957
    105  OH         3.8500   14.2120  -66.7390 O.3   183  TYR183     -0.2866
    106  N          0.2710   16.6090  -60.8420 N.am  184  GLU184     -0.1979
    107  CA         1.1640   17.5850  -60.2180 C.3   184  GLU184      0.1602
    108  C          1.4180   17.3740  -58.7150 C.2   184  GLU184      0.2287
    109  O          2.5700   17.4480  -58.2980 O.2   184  GLU184     -0.2864
    110  CB         0.6780   19.0210  -60.4650 C.3   184  GLU184      0.0415
    111  CG         0.7110   19.4560  -61.9260 C.3   184  GLU184      0.1163
    112  CD         0.5230   20.9370  -62.2270 C.2   184  GLU184      0.3649
    113  OE1        0.2060   21.7170  -61.2980 O.co2 184  GLU184     -0.2457
    114  OE2        0.6900   21.3150  -63.4090 O.co2 184  GLU184     -0.2457
    115  N        -14.9360   23.5820  -74.0530 N.3   220  LEU220     -0.1231
    116  CA       -13.6910   24.2570  -73.6900 C.3   220  LEU220      0.1693
    117  C        -12.9100   23.3800  -72.7140 C.2   220  LEU220      0.2591
    118  O        -11.7120   23.1880  -72.9140 O.2   220  LEU220     -0.2718
    119  CB       -13.9820   25.6430  -73.0920 C.3   220  LEU220      0.0284
    120  CG       -12.8030   26.6050  -72.9690 C.3   220  LEU220      0.0019
    121  CD1      -12.4120   27.1850  -74.3190 C.3   220  LEU220      0.0001
    122  CD2      -13.1330   27.7280  -72.0210 C.3   220  LEU220      0.0001
    123  N        -13.5950   22.8000  -71.7010 N.am  221  ILE221     -0.1980
    124  CA       -12.9610   21.9230  -70.7100 C.3   221  ILE221      0.1595
    125  C        -12.5110   20.6310  -71.3900 C.2   221  ILE221      0.2287
    126  O        -11.3950   20.1740  -71.1400 O.2   221  ILE221     -0.2864
    127  CB       -13.8580   21.6610  -69.4660 C.3   221  ILE221      0.0276
    128  CG1      -14.2720   22.9920  -68.7840 C.3   221  ILE221      0.0022
    129  CG2      -13.1480   20.7510  -68.4570 C.3   221  ILE221      0.0022
    130  CD1      -15.5850   22.9530  -68.0270 C.3   221  ILE221      0.0001
    131  N         -9.2320   21.0800  -72.9960 N.3   224  LEU224     -0.1245
    132  CA        -8.1920   21.1060  -71.9620 C.3   224  LEU224      0.1561
    133  C         -7.8750   19.7120  -71.4530 C.2   224  LEU224      0.2260
    134  O         -6.7050   19.4170  -71.2030 O.2   224  LEU224     -0.2867
    135  CB        -8.5790   22.0180  -70.7920 C.3   224  LEU224      0.0270
    136  CG        -8.5700   23.5190  -71.0530 C.3   224  LEU224      0.0019
    137  CD1       -9.1830   24.2630  -69.8740 C.3   224  LEU224      0.0001
    138  CD2       -7.1530   24.0230  -71.3190 C.3   224  LEU224      0.0001
    139  N         -5.8130   18.2030  -74.2450 N.3   227  ASP227     -0.1225
    140  CA        -4.5250   18.9100  -74.2360 C.3   227  ASP227      0.1805
    141  C         -3.5990   18.3680  -73.1390 C.2   227  ASP227      0.2597
    142  O         -2.4370   18.0500  -73.4220 O.2   227  ASP227     -0.2718
    143  CB        -4.7320   20.4280  -74.0870 C.3   227  ASP227      0.1424
    144  CG        -5.2310   21.1190  -75.3470 C.2   227  ASP227      0.3668
    145  OD1       -5.0490   20.5530  -76.4500 O.co2 227  ASP227     -0.2456
    146  OD2       -5.7750   22.2490  -75.2340 O.co2 227  ASP227     -0.2456
    147  N         -4.1420   18.2050  -71.9130 N.am  228  ASN228     -0.1974
    148  CA        -3.4300   17.6610  -70.7560 C.3   228  ASN228      0.1688
    149  C         -3.0220   16.2220  -70.9900 C.2   228  ASN228      0.2292
    150  O         -1.8810   15.8690  -70.7040 O.2   228  ASN228     -0.2864
    151  CB        -4.2770   17.7680  -69.4870 C.3   228  ASN228      0.1181
    152  CG        -4.3490   19.1440  -68.8790 C.2   228  ASN228      0.2629
    153  OD1       -3.7640   20.1180  -69.3690 O.2   228  ASN228     -0.2716
    154  ND2       -5.0710   19.2410  -67.7790 N.am  228  ASN228     -0.0877
    155  N         -0.1610   15.9820  -73.5160 N.3   231  LEU231     -0.1231
    156  CA         1.0470   16.4080  -72.8120 C.3   231  LEU231      0.1693
    157  C          1.5620   15.3100  -71.8760 C.2   231  LEU231      0.2592
    158  O          2.7610   15.0460  -71.8660 O.2   231  LEU231     -0.2718
    159  CB         0.7460   17.6940  -72.0180 C.3   231  LEU231      0.0284
    160  CG         1.9190   18.3760  -71.3350 C.3   231  LEU231      0.0019
    161  CD1        2.4130   19.5460  -72.1590 C.3   231  LEU231      0.0001
    162  CD2        1.5210   18.8570  -69.9620 C.3   231  LEU231      0.0001
    163  N          0.6580   14.6740  -71.1010 N.am  232  TRP232     -0.1976
    164  CA         1.0060   13.6240  -70.1440 C.3   232  TRP232      0.1640
    165  C          1.4140   12.3120  -70.8180 C.2   232  TRP232      0.2290
    166  O          2.2400   11.5960  -70.2580 O.2   232  TRP232     -0.2864
    167  CB        -0.1370   13.3860  -69.1420 C.3   232  TRP232      0.0576
    168  CG        -0.4770   14.5620  -68.2660 C.ar  232  TRP232      0.0006
    169  CD1        0.3140   15.6350  -67.9780 C.ar  232  TRP232      0.0946
    170  CD2       -1.7070   14.7690  -67.5620 C.ar  232  TRP232      0.0152
    171  NE1       -0.3460   16.4970  -67.1340 N.ar  232  TRP232     -0.2442
    172  CE2       -1.5880   15.9860  -66.8570 C.ar  232  TRP232      0.0810
    173  CE3       -2.9000   14.0350  -67.4470 C.ar  232  TRP232      0.0012
    174  CZ2       -2.6150   16.4860  -66.0440 C.ar  232  TRP232      0.0191
    175  CZ3       -3.9180   14.5340  -66.6500 C.ar  232  TRP232      0.0001
    176  CH2       -3.7740   15.7480  -65.9660 C.ar  232  TRP232      0.0015
@<TRIPOS>BOND
     1   145   144   ar
     2   144   146   ar
     3   144   143    1
     4   121   120    1
     5   139   140    1
     6   140   143    1
     7   140   141    1
     8   115   116    1
     9   116   119    1
    10   116   117    1
    11   155   156    1
    12   142   141    2
    13   141   147   am
    14   119   120    1
    15   131   132    1
    16   120   122    1
    17   118   117    2
    18   156   159    1
    19   156   157    1
    20   117   123   am
    21   161   160    1
    22   159   160    1
    23   132   133    1
    24   132   135    1
    25   147   148    1
    26   157   158    2
    27   157   163   am
    28   123   124    1
    29   133   134    2
    30   125   126    2
    31   125   124    1
    32   160   162    1
    33   138   136    1
    34   163   164    1
    35   136   135    1
    36   136   137    1
    37   149   148    1
    38   149   150    2
    39   165   166    2
    40   165   164    1
    41   148   151    1
    42   124   127    1
    43   164   167    1
    44   151   152    1
    45   127   128    1
    46   127   129    1
    47   153   152    2
    48   167   168    1
    49   152   154   am
    50   128   130    1
    51   168   169   ar
    52   168   170   ar
    53    65    66    1
    54    65    64    1
    55   169   171   ar
    56    66    60    1
    57   170   173   ar
    58   170   172   ar
    59    77    76    1
    60   173   175   ar
    61    64    61    1
    62    60    61    1
    63    61    62    1
    64   171   172   ar
    65    78    76    1
    66   172   174   ar
    67   105   104    1
    68   175   176   ar
    69    76    75    1
    70   174   176   ar
    71   104   102   ar
    72   104   103   ar
    73    75    72    1
    74    62    63    2
    75   102   100   ar
    76    67    68    1
    77   103   101   ar
    78    72    71    1
    79    72    73    1
    80   100    99   ar
    81    68    69    1
    82   101    99   ar
    83    99    98    1
    84    93    91    1
    85    74    73    2
    86    73    79   am
    87    69    70    2
    88   114   112   ar
    89    98    95    1
    90    79    80    1
    91     7     5    1
    92    85    84    2
    93    91    88    1
    94    91    92    1
    95    87    88    1
    96    16    15    1
    97     6     5    1
    98    88    89    1
    99   112   111    1
   100   112   113   ar
   101   111   110    1
   102    95    94    1
   103    95    96    1
   104     5     2    1
   105    80    83    1
   106    80    81    1
   107    84    83    1
   108    84    86   am
   109    15    14    1
   110    96   106   am
   111    96    97    2
   112    89    90    2
   113    81    82    2
   114   106   107    1
   115    36    35    1
   116    13    14    1
   117    13    12    1
   118     2     1    1
   119     2     3    1
   120    35    34    1
   121   110   107    1
   122   107   108    1
   123     4     3    2
   124    34    33    1
   125    27    25    1
   126    12     9    1
   127    26    25    1
   128    46    45    1
   129    47    45    1
   130    25    24    2
   131    10    11    2
   132    10     9    1
   133    45    44    2
   134    33    32    1
   135   108   109    2
   136    59    58    1
   137     9     8    1
   138    19    20    2
   139    19    18    1
   140    24    23    1
   141    44    43    1
   142    21    18    1
   143    21    22    1
   144    56    58   ar
   145    56    54   ar
   146    58    57   ar
   147    32    29    1
   148    23    22    1
   149    43    42    1
   150    18    17    1
   151    54    53   ar
   152    57    55   ar
   153    42    41    1
   154    29    30    1
   155    29    28    1
   156    31    30    2
   157    55    53   ar
   158    53    52    1
   159    41    38    1
   160    52    49    1
   161    40    39    2
   162    49    48    1
   163    49    50    1
   164    39    48   am
   165    39    38    1
   166    38    37    1
   167    51    50    2
