@<TRIPOS>MOLECULE
tmp/4o46F00.pdb
 111 101 0 0 0
SMALL
GASTEIGER

@<TRIPOS>ATOM
      1  N        -70.4150   76.9680  -54.5320 N.3    49  LYS49      -0.1245
      2  CA       -70.3840   76.2030  -55.7900 C.3    49  LYS49       0.1561
      3  C        -68.9450   75.7800  -56.0980 C.2    49  LYS49       0.2260
      4  O        -68.7200   74.6260  -56.4550 O.2    49  LYS49      -0.2867
      5  CB       -70.9880   77.0110  -56.9600 C.3    49  LYS49       0.0271
      6  CG       -71.0470   76.2840  -58.3050 C.3    49  LYS49       0.0035
      7  CD       -72.3230   75.4520  -58.5010 C.3    49  LYS49       0.0206
      8  CE       -72.1630   74.4070  -59.5830 C.3    49  LYS49       0.1093
      9  NZ       -72.0750   75.0080  -60.9420 N.3    49  LYS49      -0.1314
     10  N        -66.2660   67.6650  -55.9130 N.3    56  ARG56      -0.1245
     11  CA       -67.0030   66.9360  -56.9490 C.3    56  ARG56       0.1563
     12  C        -66.0460   66.4900  -58.0460 C.2    56  ARG56       0.2260
     13  O        -66.0480   65.3130  -58.4110 O.2    56  ARG56      -0.2867
     14  CB       -68.1290   67.8030  -57.5360 C.3    56  ARG56       0.0307
     15  CG       -69.3350   67.9600  -56.6180 C.3    56  ARG56       0.0489
     16  CD       -70.3720   68.8970  -57.2080 C.3    56  ARG56       0.2205
     17  NE       -71.1100   68.2890  -58.3170 N.pl3  56  ARG56      -0.0865
     18  CZ       -71.6380   68.9660  -59.3340 C.cat  56  ARG56       0.5346
     19  NH1      -71.5140   70.2870  -59.3990 N.pl3  56  ARG56       0.1354
     20  NH2      -72.3070   68.3300  -60.2860 N.pl3  56  ARG56       0.1354
     21  N        -83.9510   76.1580  -55.5890 N.3   119  LYS119     -0.1245
     22  CA       -83.1180   75.6010  -56.6630 C.3   119  LYS119      0.1561
     23  C        -81.7760   75.1620  -56.0480 C.2   119  LYS119      0.2260
     24  O        -81.3070   74.0630  -56.3480 O.2   119  LYS119     -0.2867
     25  CB       -82.8950   76.6370  -57.7830 C.3   119  LYS119      0.0271
     26  CG       -82.1490   76.1070  -58.9930 C.3   119  LYS119      0.0035
     27  CD       -81.3900   77.2100  -59.7460 C.3   119  LYS119      0.0206
     28  CE       -82.3290   77.8590  -60.6790 C.3   119  LYS119      0.1093
     29  NZ       -81.6940   79.0610  -61.2810 N.3   119  LYS119     -0.1314
     30  N        -80.0800   71.5250  -55.7920 N.3   123  ASP123     -0.1239
     31  CA       -78.7150   71.3400  -56.2950 C.3   123  ASP123      0.1674
     32  C        -77.8270   70.6120  -55.2950 C.2   123  ASP123      0.2266
     33  O        -77.1830   69.6360  -55.6660 O.2   123  ASP123     -0.2867
     34  CB       -78.0670   72.6890  -56.6650 C.3   123  ASP123      0.1410
     35  CG       -78.6090   73.3680  -57.9070 C.2   123  ASP123      0.3668
     36  OD1      -79.0700   72.6540  -58.8250 O.co2 123  ASP123     -0.2456
     37  OD2      -78.5160   74.6110  -57.9890 O.co2 123  ASP123     -0.2456
     38  N        -78.7880   67.1080  -54.7650 N.3   126  ARG126     -0.1231
     39  CA       -78.3980   66.4070  -55.9910 C.3   126  ARG126      0.1694
     40  C        -76.9080   66.0750  -55.9440 C.2   126  ARG126      0.2592
     41  O        -76.5210   65.0060  -56.4150 O.2   126  ARG126     -0.2718
     42  CB       -78.7270   67.2260  -57.2480 C.3   126  ARG126      0.0321
     43  CG       -78.7860   66.4330  -58.5410 C.3   126  ARG126      0.0489
     44  CD       -79.1720   67.3460  -59.7160 C.3   126  ARG126      0.2205
     45  NE       -78.3700   68.5890  -59.6170 N.pl3 126  ARG126     -0.0865
     46  CZ       -77.5750   69.0470  -60.5900 C.cat 126  ARG126      0.5346
     47  NH1      -77.5400   68.3960  -61.7660 N.pl3 126  ARG126      0.1354
     48  NH2      -76.8390   70.1480  -60.3900 N.pl3 126  ARG126      0.1354
     49  N        -76.0770   66.9790  -55.3550 N.am  127  TYR127     -0.1976
     50  CA       -74.6310   66.7670  -55.1800 C.3   127  TYR127      0.1639
     51  C        -74.3940   65.6510  -54.1570 C.2   127  TYR127      0.2290
     52  O        -73.4640   64.8580  -54.3240 O.2   127  TYR127     -0.2864
     53  CB       -73.8860   68.0620  -54.7790 C.3   127  TYR127      0.0560
     54  CG       -74.0670   69.2410  -55.7180 C.ar  127  TYR127     -0.0198
     55  CD1      -74.3110   69.0500  -57.0770 C.ar  127  TYR127     -0.0009
     56  CD2      -73.9560   70.5470  -55.2560 C.ar  127  TYR127     -0.0009
     57  CE1      -74.5120   70.1300  -57.9360 C.ar  127  TYR127      0.0417
     58  CE2      -74.1300   71.6360  -56.1110 C.ar  127  TYR127      0.0417
     59  CZ       -74.4010   71.4220  -57.4530 C.ar  127  TYR127      0.1957
     60  OH       -74.5740   72.4860  -58.3050 O.3   127  TYR127     -0.2866
     61  N        -82.7710   78.6060  -65.5100 N.3   155  GLY155     -0.1225
     62  CA       -81.7190   77.9380  -64.7470 C.3   155  GLY155      0.1811
     63  C        -82.2380   76.7900  -63.9030 C.2   155  GLY155      0.2280
     64  O        -81.5850   75.7460  -63.8040 O.2   155  GLY155     -0.2866
     65  N        -83.1870   73.9320  -66.2650 N.3   158  LEU158     -0.1231
     66  CA       -81.9480   73.3010  -66.7270 C.3   158  LEU158      0.1693
     67  C        -81.4540   72.2730  -65.6970 C.2   158  LEU158      0.2592
     68  O        -81.2310   71.1150  -66.0560 O.2   158  LEU158     -0.2718
     69  CB       -80.8680   74.3640  -66.9900 C.3   158  LEU158      0.0284
     70  CG       -79.4840   73.7300  -67.3460 C.3   158  LEU158      0.0019
     71  CD1      -79.5320   73.0800  -68.7070 C.3   158  LEU158      0.0001
     72  CD2      -78.4490   74.8370  -67.2340 C.3   158  LEU158      0.0001
     73  N        -81.3210   72.7020  -64.4170 N.am  159  ASN159     -0.1974
     74  CA       -80.8750   71.8850  -63.2830 C.3   159  ASN159      0.1688
     75  C        -81.8440   70.7510  -62.9590 C.2   159  ASN159      0.2292
     76  O        -81.3910   69.6600  -62.6100 O.2   159  ASN159     -0.2864
     77  CB       -80.6600   72.7510  -62.0340 C.3   159  ASN159      0.1181
     78  CG       -79.4060   73.5940  -62.0230 C.2   159  ASN159      0.2629
     79  OD1      -78.4020   73.3040  -62.6910 O.2   159  ASN159     -0.2716
     80  ND2      -79.4230   74.6390  -61.2110 N.am  159  ASN159     -0.0877
     81  N        -81.6410   68.0320  -65.7210 N.3   162  VAL162     -0.1245
     82  CA       -80.3750   67.3290  -65.4960 C.3   162  VAL162      0.1561
     83  C        -80.5600   66.2790  -64.3870 C.2   162  VAL162      0.2260
     84  O        -80.0410   65.1650  -64.5020 O.2   162  VAL162     -0.2867
     85  CB       -79.2380   68.3180  -65.1580 C.3   162  VAL162      0.0252
     86  CG1      -77.9160   67.5990  -64.9110 C.3   162  VAL162      0.0019
     87  CG2      -79.0520   69.2710  -66.3410 C.3   162  VAL162      0.0019
     88  N        -78.7030   80.6220  -70.8010 N.3   193  ILE193     -0.1245
     89  CA       -79.4190   79.5510  -70.1040 C.3   193  ILE193      0.1561
     90  C        -80.2620   78.7280  -71.0850 C.2   193  ILE193      0.2260
     91  O        -80.4950   77.5410  -70.8450 O.2   193  ILE193     -0.2867
     92  CB       -80.2810   80.1330  -68.9650 C.3   193  ILE193      0.0252
     93  CG1      -79.5470   81.2080  -68.1570 C.3   193  ILE193      0.0019
     94  CG2      -80.7640   79.0140  -68.0610 C.3   193  ILE193      0.0019
     95  CD1      -78.5430   80.6200  -67.1840 C.3   193  ILE193      0.0001
     96  N        -77.6900   76.3850  -73.2980 N.3   196  LEU196     -0.1245
     97  CA       -77.2260   75.2650  -72.4720 C.3   196  LEU196      0.1561
     98  C        -78.3280   74.2130  -72.2940 C.2   196  LEU196      0.2260
     99  O        -78.0240   73.0330  -72.1070 O.2   196  LEU196     -0.2867
    100  CB       -76.7400   75.7690  -71.1080 C.3   196  LEU196      0.0270
    101  CG       -75.4200   76.3890  -71.0120 C.3   196  LEU196      0.0019
    102  CD1      -75.0260   76.6900  -69.5670 C.3   196  LEU196      0.0001
    103  CD2      -74.3260   75.6200  -71.7190 C.3   196  LEU196      0.0001
    104  N        -78.5050   70.2680  -74.4410 N.3   200  ASN200     -0.1240
    105  CA       -78.8760   69.0610  -73.6980 C.3   200  ASN200      0.1653
    106  C        -79.9090   68.2310  -74.4630 C.2   200  ASN200      0.2266
    107  O        -79.8570   67.0010  -74.4070 O.2   200  ASN200     -0.2867
    108  CB       -79.4240   69.4240  -72.3130 C.3   200  ASN200      0.1155
    109  CG       -78.3900   69.7940  -71.2760 C.2   200  ASN200      0.2627
    110  OD1      -77.1750   69.6750  -71.4730 O.2   200  ASN200     -0.2716
    111  ND2      -78.8610   70.2300  -70.1210 N.am  200  ASN200     -0.0877
@<TRIPOS>BOND
     1   106   107    2
     2   106   105    1
     3   104   105    1
     4   105   108    1
     5    96    97    1
     6    97    98    1
     7    97   100    1
     8   108   109    1
     9    98    99    2
    10   103   101    1
    11   110   109    2
    12   109   111   am
    13   100   101    1
    14    90    91    2
    15    90    89    1
    16   101   102    1
    17    88    89    1
    18    89    92    1
    19    92    93    1
    20    92    94    1
    21    71    70    1
    22    93    95    1
    23    70    72    1
    24    70    69    1
    25    69    66    1
    26    66    65    1
    27    66    67    1
    28    87    85    1
    29    68    67    2
    30    81    82    1
    31    67    73   am
    32    61    62    1
    33    82    85    1
    34    82    83    1
    35    85    86    1
    36    62    63    1
    37    84    83    2
    38    73    74    1
    39    63    64    2
    40    74    75    1
    41    74    77    1
    42    75    76    2
    43    79    78    2
    44    77    78    1
    45    78    80   am
    46    47    46    1
    47    29    28    1
    48     9     8    1
    49    28    27    1
    50    46    48    1
    51    46    45    2
    52    20    18    1
    53    27    26    1
    54    44    45    1
    55    44    43    1
    56     8     7    1
    57    19    18    1
    58    18    17    2
    59    26    25    1
    60    36    35   ar
    61    43    42    1
    62     7     6    1
    63    13    12    2
    64    17    16    1
    65     6     5    1
    66    60    59    1
    67    12    11    1
    68    37    35   ar
    69    57    59   ar
    70    57    55   ar
    71    35    34    1
    72    25    22    1
    73    14    11    1
    74    14    15    1
    75    59    58   ar
    76    42    39    1
    77    16    15    1
    78    55    54   ar
    79     5     2    1
    80    11    10    1
    81    34    31    1
    82    22    23    1
    83    22    21    1
    84     4     3    2
    85    41    40    2
    86    24    23    2
    87    31    30    1
    88    31    32    1
    89    58    56   ar
    90     3     2    1
    91    39    40    1
    92    39    38    1
    93    40    49   am
    94     2     1    1
    95    54    56   ar
    96    54    53    1
    97    33    32    2
    98    49    50    1
    99    50    53    1
   100    50    51    1
   101    52    51    2
