@<TRIPOS>MOLECULE
tmp/4o48B00.pdb
 94 84 0 0 0
SMALL
GASTEIGER

@<TRIPOS>ATOM
      1  N         41.1480  -21.0260  -12.2450 N.3    11  GLY11      -0.1210
      2  CA        40.8980  -21.3930  -13.6350 C.3    11  GLY11       0.1956
      3  C         39.5890  -20.8910  -14.1900 C.2    11  GLY11       0.2612
      4  O         38.5280  -21.1970  -13.6520 O.2    11  GLY11      -0.2717
      5  N         39.6700  -20.1350  -15.2890 N.am   12  GLY12      -0.1956
      6  CA        38.4870  -19.6120  -15.9770 C.3    12  GLY12       0.1869
      7  C         37.5300  -20.7370  -16.3340 C.2    12  GLY12       0.2309
      8  O         37.9500  -21.7620  -16.8640 O.2    12  GLY12      -0.2863
      9  N         41.8410  -28.3580  -11.8820 N.3    63  ASN63      -0.1240
     10  CA        42.4460  -28.9720  -13.0890 C.3    63  ASN63       0.1653
     11  C         43.9570  -28.7150  -13.1330 C.2    63  ASN63       0.2266
     12  O         44.4500  -27.9090  -13.9370 O.2    63  ASN63      -0.2867
     13  CB        41.7880  -28.3970  -14.3610 C.3    63  ASN63       0.1155
     14  CG        42.3750  -28.9660  -15.6380 C.2    63  ASN63       0.2627
     15  OD1       42.8790  -30.0770  -15.6520 O.2    63  ASN63      -0.2716
     16  ND2       42.3170  -28.1980  -16.7190 N.am   63  ASN63      -0.0877
     17  N         51.0370  -29.7880  -17.7040 N.3    79  ASP79      -0.1239
     18  CA        52.0030  -28.7770  -18.0300 C.3    79  ASP79       0.1674
     19  C         52.0840  -27.8470  -16.8300 C.2    79  ASP79       0.2266
     20  O         51.0940  -27.6980  -16.0990 O.2    79  ASP79      -0.2867
     21  CB        51.5240  -27.8860  -19.1740 C.3    79  ASP79       0.1410
     22  CG        51.1100  -28.6370  -20.4370 C.2    79  ASP79       0.3668
     23  OD1       51.7210  -29.6620  -20.8270 O.co2  79  ASP79      -0.2456
     24  OD2       50.1440  -28.1400  -21.0800 O.co2  79  ASP79      -0.2456
     25  N         43.0020  -24.9350  -14.5540 N.3   157  THR157     -0.1218
     26  CA        44.2870  -24.2840  -14.4010 C.3   157  THR157      0.1862
     27  C         44.3470  -23.5060  -13.0870 C.2   157  THR157      0.2287
     28  O         43.3720  -22.8860  -12.6700 O.2   157  THR157     -0.2866
     29  CB        44.5990  -23.3680  -15.5920 C.3   157  THR157      0.1770
     30  OG1       44.4670  -24.1250  -16.8010 O.3   157  THR157     -0.2211
     31  CG2       46.0110  -22.8220  -15.5120 C.3   157  THR157      0.0375
     32  N         48.6400  -26.9590  -15.0950 N.3   175  THR175     -0.1218
     33  CA        47.3690  -27.3820  -15.6760 C.3   175  THR175      0.1862
     34  C         47.2530  -28.8460  -16.0920 C.2   175  THR175      0.2287
     35  O         48.2430  -29.5430  -16.2360 O.2   175  THR175     -0.2866
     36  CB        47.0370  -26.5210  -16.8990 C.3   175  THR175      0.1770
     37  OG1       45.6430  -26.6550  -17.2030 O.3   175  THR175     -0.2211
     38  CG2       47.8940  -26.9190  -18.0490 C.3   175  THR175      0.0375
     39  N         45.3120  -29.1400  -18.7840 N.3   177  GLY177     -0.1210
     40  CA        45.0590  -28.7920  -20.1570 C.3   177  GLY177      0.1956
     41  C         43.5920  -28.5500  -20.3830 C.2   177  GLY177      0.2611
     42  O         42.8800  -28.1240  -19.4530 O.2   177  GLY177     -0.2717
     43  N         43.1530  -28.8070  -21.6210 N.am  178  ILE178     -0.1979
     44  CA        41.7400  -28.7220  -21.9880 C.3   178  ILE178      0.1595
     45  C         41.2150  -30.1420  -22.2690 C.2   178  ILE178      0.2287
     46  O         41.9130  -30.9630  -22.8420 O.2   178  ILE178     -0.2864
     47  CB        41.5450  -27.7690  -23.1820 C.3   178  ILE178      0.0276
     48  CG1       42.0410  -26.3570  -22.8050 C.3   178  ILE178      0.0022
     49  CG2       40.0760  -27.7080  -23.5990 C.3   178  ILE178      0.0022
     50  CD1       41.8120  -25.2880  -23.8720 C.3   178  ILE178      0.0001
     51  N         49.6300  -32.6290  -26.6600 N.3   185  ARG185     -0.1245
     52  CA        49.2250  -31.2410  -26.8660 C.3   185  ARG185      0.1563
     53  C         49.7770  -30.3730  -25.7480 C.2   185  ARG185      0.2260
     54  O         49.6950  -30.7370  -24.5880 O.2   185  ARG185     -0.2867
     55  CB        47.7070  -31.1480  -26.9190 C.3   185  ARG185      0.0307
     56  CG        47.1210  -29.7720  -27.1630 C.3   185  ARG185      0.0489
     57  CD        46.6210  -29.2370  -25.8280 C.3   185  ARG185      0.2205
     58  NE        46.0540  -27.8950  -25.8660 N.pl3 185  ARG185     -0.0865
     59  CZ        45.8440  -27.1390  -24.7900 C.cat 185  ARG185      0.5346
     60  NH1       46.1640  -27.5690  -23.5630 N.pl3 185  ARG185      0.1354
     61  NH2       45.3350  -25.9270  -24.9390 N.pl3 185  ARG185      0.1354
     62  N         49.6460  -26.5090  -24.0660 N.3   187  GLY187     -0.1210
     63  CA        48.9320  -25.2520  -23.9990 C.3   187  GLY187      0.1956
     64  C         49.8710  -24.1490  -23.6690 C.2   187  GLY187      0.2612
     65  O         51.0860  -24.2660  -23.8510 O.2   187  GLY187     -0.2717
     66  N         49.2920  -23.0700  -23.1700 N.am  188  ASP188     -0.1959
     67  CA        50.0320  -21.8950  -22.7370 C.3   188  ASP188      0.1840
     68  C         50.7350  -22.0330  -21.3950 C.2   188  ASP188      0.2622
     69  O         51.7740  -21.4050  -21.1830 O.2   188  ASP188     -0.2715
     70  CB        49.0590  -20.7450  -22.5970 C.3   188  ASP188      0.1450
     71  CG        48.0390  -21.0190  -21.5510 C.2   188  ASP188      0.3671
     72  OD1       47.4780  -22.1270  -21.6370 O.co2 188  ASP188     -0.2456
     73  OD2       47.8260  -20.1820  -20.6310 O.co2 188  ASP188     -0.2456
     74  N         50.1840  -22.8380  -20.4870 N.am  189  SER189     -0.1950
     75  CA        50.6850  -22.9000  -19.0900 C.3   189  SER189      0.1924
     76  C         52.1900  -23.1860  -18.8920 C.2   189  SER189      0.2314
     77  O         52.7790  -22.6870  -17.9190 O.2   189  SER189     -0.2863
     78  CB        49.8740  -23.9370  -18.2830 C.3   189  SER189      0.2116
     79  OG        48.4700  -23.7470  -18.4950 O.3   189  SER189     -0.2180
     80  N         44.9010  -17.9230  -17.2020 N.3   208  THR208     -0.1203
     81  CA        44.0890  -19.1220  -17.4780 C.3   208  THR208      0.1994
     82  C         43.1120  -18.8500  -18.6250 C.2   208  THR208      0.2618
     83  O         42.9110  -17.6950  -18.9970 O.2   208  THR208     -0.2717
     84  CB        43.3160  -19.5710  -16.2260 C.3   208  THR208      0.1784
     85  OG1       42.4390  -20.6690  -16.5440 O.3   208  THR208     -0.2211
     86  CG2       42.5130  -18.4120  -15.6340 C.3   208  THR208      0.0376
     87  N         42.5030  -19.9050  -19.1700 N.am  209  GLY209     -0.1956
     88  CA        41.5710  -19.7930  -20.3110 C.3   209  GLY209      0.1869
     89  C         41.9290  -20.6170  -21.5340 C.2   209  GLY209      0.2309
     90  O         42.7560  -21.5130  -21.4550 O.2   209  GLY209     -0.2863
     91  N         43.8600  -21.9210  -24.1590 N.3   211  GLY211     -0.1225
     92  CA        45.3170  -21.8740  -24.2370 C.3   211  GLY211      0.1811
     93  C         45.9230  -21.4210  -25.5450 C.2   211  GLY211      0.2280
     94  O         46.9630  -20.7440  -25.5440 O.2   211  GLY211     -0.2866
@<TRIPOS>BOND
     1    56    55    1
     2    56    57    1
     3    55    52    1
     4    52    51    1
     5    52    53    1
     6    58    57    1
     7    58    59    2
     8    53    54    2
     9    93    94    2
    10    93    92    1
    11    61    59    1
    12    59    60    1
    13    92    91    1
    14    62    63    1
    15    63    64    1
    16    50    48    1
    17    65    64    2
    18    64    66   am
    19    49    47    1
    20    47    48    1
    21    47    44    1
    22    66    67    1
    23    46    45    2
    24    67    70    1
    25    67    68    1
    26    70    71    1
    27    45    44    1
    28    44    43    1
    29    72    71   ar
    30    43    41   am
    31    71    73   ar
    32    89    90    2
    33    89    88    1
    34    68    69    2
    35    68    74   am
    36    24    22   ar
    37    23    22   ar
    38    74    75    1
    39    22    21    1
    40    41    40    1
    41    41    42    2
    42    88    87    1
    43    40    39    1
    44    21    18    1
    45    87    82   am
    46    75    76    1
    47    75    78    1
    48    83    82    2
    49    76    77    2
    50    82    81    1
    51    79    78    1
    52    38    36    1
    53    18    17    1
    54    18    19    1
    55    81    80    1
    56    81    84    1
    57    37    36    1
    58    36    33    1
    59     8     7    2
    60    19    20    2
    61    30    29    1
    62    16    14   am
    63    85    84    1
    64     7     6    1
    65    35    34    2
    66    84    86    1
    67    34    33    1
    68     6     5    1
    69    33    32    1
    70    15    14    2
    71    14    13    1
    72    29    31    1
    73    29    26    1
    74     5     3   am
    75    25    26    1
    76    26    27    1
    77    13    10    1
    78     3     4    2
    79     3     2    1
    80    12    11    2
    81     2     1    1
    82    11    10    1
    83    10     9    1
    84    27    28    2
