@<TRIPOS>MOLECULE
tmp/4o4aD00.pdb
 89 86 0 0 0
SMALL
GASTEIGER

@<TRIPOS>ATOM
      1  N         21.5440   86.9700   19.6890 N.3    22  ASN22      -0.1240
      2  CA        22.6840   86.3140   19.1290 C.3    22  ASN22       0.1653
      3  C         22.9030   84.9070   19.6670 C.2    22  ASN22       0.2266
      4  O         24.0320   84.4740   19.8620 O.2    22  ASN22      -0.2867
      5  CB        23.9150   87.1660   19.3690 C.3    22  ASN22       0.1155
      6  CG        25.0830   86.7610   18.4830 C.2    22  ASN22       0.2627
      7  OD1       24.9060   86.3800   17.3280 O.2    22  ASN22      -0.2716
      8  ND2       26.2810   86.8530   19.0250 N.am   22  ASN22      -0.0877
      9  N         20.9060   88.9240   15.5720 N.3    51  LYS51      -0.1231
     10  CA        22.1820   89.4460   16.0870 C.3    51  LYS51       0.1693
     11  C         22.0740   90.4100   17.2350 C.2    51  LYS51       0.2592
     12  O         22.7480   90.2450   18.2370 O.2    51  LYS51      -0.2718
     13  CB        23.0980   89.9760   14.9720 C.3    51  LYS51       0.0285
     14  CG        23.7470   88.8350   14.2000 C.3    51  LYS51       0.0035
     15  CD        24.7650   89.3210   13.1940 C.3    51  LYS51       0.0206
     16  CE        24.9600   88.2420   12.1390 C.3    51  LYS51       0.1093
     17  NZ        25.8970   88.6740   11.0720 N.3    51  LYS51      -0.1314
     18  N         21.2240   91.4100   17.1260 N.am   52  ASN52      -0.1974
     19  CA        21.1080   92.3640   18.2160 C.3    52  ASN52       0.1688
     20  C         19.7940   93.1000   18.1480 C.2    52  ASN52       0.2292
     21  O         19.0060   92.9160   17.2190 O.2    52  ASN52      -0.2864
     22  CB        22.2730   93.3520   18.1630 C.3    52  ASN52       0.1181
     23  CG        22.5590   94.0020   19.5030 C.2    52  ASN52       0.2629
     24  OD1       21.6980   94.0560   20.3950 O.2    52  ASN52      -0.2716
     25  ND2       23.7580   94.5630   19.6310 N.am   52  ASN52      -0.0877
     26  N         17.5150   96.7330   18.2620 N.3    53  LYS53      -0.1231
     27  CA        17.5900   98.0130   17.5930 C.3    53  LYS53       0.1693
     28  C         17.8360   99.1520   18.5730 C.2    53  LYS53       0.2592
     29  O         17.4340   99.0650   19.7370 O.2    53  LYS53      -0.2718
     30  CB        16.2440   98.3080   16.9600 C.3    53  LYS53       0.0285
     31  CG        15.8280   97.3670   15.8290 C.3    53  LYS53       0.0035
     32  CD        15.9960   98.0760   14.4990 C.3    53  LYS53       0.0206
     33  CE        15.2740   97.3300   13.3950 C.3    53  LYS53       0.1093
     34  NZ        15.1630   98.1700   12.1710 N.3    53  LYS53      -0.1314
     35  N         18.4590  100.2200   18.0650 N.am   54  PHE54      -0.1976
     36  CA        18.6920  101.4510   18.8140 C.3    54  PHE54       0.1639
     37  C         18.1520  102.6490   18.0080 C.2    54  PHE54       0.2290
     38  O         18.3290  102.7320   16.7900 O.2    54  PHE54      -0.2864
     39  CB        20.1800  101.5830   19.2070 C.3    54  PHE54       0.0560
     40  CG        20.5450  102.9270   19.7610 C.ar   54  PHE54      -0.0200
     41  CD1       20.0590  103.3110   21.0010 C.ar   54  PHE54      -0.0042
     42  CD2       21.3970  103.7970   19.0760 C.ar   54  PHE54      -0.0042
     43  CE1       20.3820  104.5430   21.5430 C.ar   54  PHE54      -0.0003
     44  CE2       21.7250  105.0350   19.6220 C.ar   54  PHE54      -0.0003
     45  CZ        21.2150  105.4050   20.8530 C.ar   54  PHE54      -0.0000
     46  N         20.1660   97.2260   29.3770 N.3    83  THR83      -0.1203
     47  CA        20.6640   96.4780   28.2530 C.3    83  THR83       0.1994
     48  C         22.1340   96.2810   28.4330 C.2    83  THR83       0.2618
     49  O         22.7850   96.9930   29.1900 O.2    83  THR83      -0.2717
     50  CB        20.4370   97.2030   26.9130 C.3    83  THR83       0.1784
     51  OG1       21.0720   98.4830   26.9500 O.3    83  THR83      -0.2211
     52  CG2       18.9760   97.3850   26.6700 C.3    83  THR83       0.0376
     53  N         22.6640   95.2980   27.7270 N.am   84  GLY84      -0.1942
     54  CA        24.0740   95.0070   27.8130 C.3    84  GLY84       0.2014
     55  C         24.4560   93.8060   26.9910 C.2    84  GLY84       0.2639
     56  O         23.7440   93.4040   26.0880 O.2    84  GLY84      -0.2714
     57  N         25.6150   93.2530   27.3190 N.am   85  SER85      -0.1949
     58  CA        26.1700   92.1250   26.6290 C.3    85  SER85       0.1924
     59  C         26.8540   91.2620   27.6550 C.2    85  SER85       0.2314
     60  O         27.4250   91.7590   28.6240 O.2    85  SER85      -0.2863
     61  CB        27.1730   92.5980   25.5770 C.3    85  SER85       0.2116
     62  OG        27.7100   91.5090   24.8380 O.3    85  SER85      -0.2180
     63  N         29.5130   86.7090   22.3430 N.3    92  GLU92      -0.1245
     64  CA        28.7550   87.7840   22.9890 C.3    92  GLU92       0.1567
     65  C         27.2580   87.6600   22.8100 C.2    92  GLU92       0.2260
     66  O         26.7990   87.4640   21.7060 O.2    92  GLU92      -0.2867
     67  CB        29.2060   89.1310   22.4490 C.3    92  GLU92       0.0388
     68  CG        30.6930   89.3810   22.6460 C.3    92  GLU92       0.1160
     69  CD        31.1270   90.7330   22.1550 C.2    92  GLU92       0.3649
     70  OE1       32.2600   90.8480   21.6920 O.co2  92  GLU92      -0.2457
     71  OE2       30.3340   91.6810   22.2250 O.co2  92  GLU92      -0.2457
     72  N         24.0020   89.8660   23.4670 N.3    94  PRO94      -0.2102
     73  CA        23.3850   91.1060   23.9400 C.3    94  PRO94       0.1504
     74  C         22.0790   90.7470   24.6190 C.2    94  PRO94       0.2575
     75  O         21.4570   89.7660   24.2280 O.2    94  PRO94      -0.2718
     76  CB        23.1150   91.9020   22.6560 C.3    94  PRO94       0.0282
     77  CG        23.7870   91.1710   21.5610 C.3    94  PRO94       0.0208
     78  CD        24.0080   89.7620   22.0050 C.3    94  PRO94       0.0893
     79  N         21.6610   91.5250   25.6080 N.am   95  PHE95      -0.1977
     80  CA        20.4120   91.2540   26.2930 C.3    95  PHE95       0.1639
     81  C         19.6660   92.5070   26.7070 C.2    95  PHE95       0.2290
     82  O         20.2040   93.6160   26.7160 O.2    95  PHE95      -0.2864
     83  CB        20.6770   90.4390   27.5390 C.3    95  PHE95       0.0560
     84  CG        21.5630   91.1340   28.5300 C.ar   95  PHE95      -0.0200
     85  CD1       21.0400   92.0680   29.3900 C.ar   95  PHE95      -0.0042
     86  CD2       22.9290   90.8450   28.5960 C.ar   95  PHE95      -0.0042
     87  CE1       21.8480   92.7150   30.2910 C.ar   95  PHE95      -0.0003
     88  CE2       23.7510   91.4870   29.5080 C.ar   95  PHE95      -0.0003
     89  CZ        23.2050   92.4240   30.3530 C.ar   95  PHE95      -0.0000
@<TRIPOS>BOND
     1    17    16    1
     2    16    15    1
     3    34    33    1
     4    15    14    1
     5    33    32    1
     6    14    13    1
     7    32    31    1
     8    13    10    1
     9     9    10    1
    10    31    30    1
    11    10    11    1
    12    38    37    2
    13    30    27    1
    14    18    11   am
    15    18    19    1
    16    21    20    2
    17    11    12    2
    18     7     6    2
    19    27    26    1
    20    27    28    1
    21    37    36    1
    22    35    28   am
    23    35    36    1
    24    20    19    1
    25    22    19    1
    26    22    23    1
    27     6     8   am
    28     6     5    1
    29    28    29    2
    30    36    39    1
    31    42    44   ar
    32    42    40   ar
    33     2     5    1
    34     2     3    1
    35     2     1    1
    36    39    40    1
    37    23    25   am
    38    23    24    2
    39    44    45   ar
    40     3     4    2
    41    40    41   ar
    42    45    43   ar
    43    41    43   ar
    44    77    78    1
    45    77    76    1
    46    70    69   ar
    47    66    65    2
    48    78    72    1
    49    69    71   ar
    50    69    68    1
    51    63    64    1
    52    67    68    1
    53    67    64    1
    54    76    73    1
    55    65    64    1
    56    72    73    1
    57    73    74    1
    58    75    74    2
    59    74    79   am
    60    62    61    1
    61    61    58    1
    62    79    80    1
    63    56    55    2
    64    80    81    1
    65    80    83    1
    66    58    57    1
    67    58    59    1
    68    52    50    1
    69    81    82    2
    70    50    51    1
    71    50    47    1
    72    55    57   am
    73    55    54    1
    74    83    84    1
    75    59    60    2
    76    53    54    1
    77    53    48   am
    78    47    48    1
    79    47    46    1
    80    48    49    2
    81    84    86   ar
    82    84    85   ar
    83    86    88   ar
    84    85    87   ar
    85    88    89   ar
    86    87    89   ar
