@<TRIPOS>MOLECULE
tmp/4o4eA01.pdb
 164 155 0 0 0
SMALL
GASTEIGER

@<TRIPOS>ATOM
      1  N         32.2260   -7.6190   23.8680 N.3     1  GLY1       -0.1210
      2  CA        32.6240   -8.6860   24.8180 C.3     1  GLY1        0.1956
      3  C         34.0840   -8.6300   25.2250 C.2     1  GLY1        0.2613
      4  O         34.4120   -8.9810   26.3430 O.2     1  GLY1       -0.2717
      5  N         34.9710   -8.2130   24.3220 N.am    2  SER2       -0.1938
      6  CA        36.4090   -8.2750   24.6190 C.3     2  SER2        0.2055
      7  C         36.9310   -7.0590   25.4090 C.2     2  SER2        0.2643
      8  O         38.0790   -7.0640   25.8360 O.2     2  SER2       -0.2714
      9  CB        37.2140   -8.4910   23.3390 C.3     2  SER2        0.2130
     10  OG        37.0990   -7.4000   22.4510 O.3     2  SER2       -0.2179
     11  N         36.0920   -6.0330   25.5870 N.am    3  PHE3       -0.1973
     12  CA        36.4240   -4.8370   26.3950 C.3     3  PHE3        0.1639
     13  C         35.1270   -4.2830   27.0350 C.2     3  PHE3        0.2290
     14  O         34.0270   -4.5290   26.5240 O.2     3  PHE3       -0.2864
     15  CB        37.1090   -3.7490   25.5150 C.3     3  PHE3        0.0560
     16  CG        36.3080   -3.3660   24.2800 C.ar    3  PHE3       -0.0200
     17  CD1       35.3050   -2.4120   24.3520 C.ar    3  PHE3       -0.0042
     18  CD2       36.5340   -3.9910   23.0530 C.ar    3  PHE3       -0.0042
     19  CE1       34.5460   -2.0790   23.2380 C.ar    3  PHE3       -0.0003
     20  CE2       35.7760   -3.6560   21.9330 C.ar    3  PHE3       -0.0003
     21  CZ        34.7950   -2.6900   22.0210 C.ar    3  PHE3       -0.0000
     22  N         32.2520   -2.1590   27.2620 N.3     5  GLN5       -0.1245
     23  CA        31.7020   -1.5840   26.0160 C.3     5  GLN5        0.1566
     24  C         31.3180   -0.1140   26.0690 C.2     5  GLN5        0.2260
     25  O         30.9870    0.4800   25.0250 O.2     5  GLN5       -0.2867
     26  CB        30.5130   -2.4140   25.5100 C.3     5  GLN5        0.0367
     27  CG        30.9310   -3.7920   25.0350 C.3     5  GLN5        0.0905
     28  CD        29.8800   -4.4770   24.1790 C.2     5  GLN5        0.2608
     29  OE1       28.6880   -4.1710   24.2770 O.2     5  GLN5       -0.2717
     30  NE2       30.3180   -5.4180   23.3370 N.am    5  GLN5       -0.0878
     31  N         32.4470    6.3070   26.2690 N.3     7  PRO7       -0.2116
     32  CA        33.4950    6.6960   25.3430 C.3     7  PRO7        0.1372
     33  C         33.6650    8.2300   25.2070 C.2     7  PRO7        0.2244
     34  O         32.9030    8.8920   24.4880 O.2     7  PRO7       -0.2868
     35  CB        33.0330    6.0440   24.0300 C.3     7  PRO7        0.0268
     36  CG        32.3340    4.8070   24.4640 C.3     7  PRO7        0.0207
     37  CD        31.7280    5.1060   25.8050 C.3     7  PRO7        0.0892
     38  N         39.8520    3.6910   20.6100 N.3    12  LEU12      -0.1245
     39  CA        39.4800    2.3690   21.0920 C.3    12  LEU12       0.1561
     40  C         40.6780    1.4950   20.8110 C.2    12  LEU12       0.2260
     41  O         41.1550    1.4380   19.6870 O.2    12  LEU12      -0.2867
     42  CB        38.2690    1.8340   20.3190 C.3    12  LEU12       0.0270
     43  CG        37.8980    0.3630   20.5130 C.3    12  LEU12       0.0019
     44  CD1       37.6380    0.0720   21.9870 C.3    12  LEU12       0.0001
     45  CD2       36.6820   -0.0300   19.7030 C.3    12  LEU12       0.0001
     46  N         41.3980   -2.1400   20.7500 N.3    14  LYS14      -0.1245
     47  CA        40.6530   -3.4190   20.7430 C.3    14  LYS14       0.1561
     48  C         41.6050   -4.5950   20.6050 C.2    14  LYS14       0.2260
     49  O         42.4210   -4.6270   19.6830 O.2    14  LYS14      -0.2867
     50  CB        39.6600   -3.4250   19.5740 C.3    14  LYS14       0.0271
     51  CG        38.7020   -4.6020   19.5820 C.3    14  LYS14       0.0035
     52  CD        37.7660   -4.6200   18.3710 C.3    14  LYS14       0.0206
     53  CE        37.0180   -5.9530   18.3240 C.3    14  LYS14       0.1093
     54  NZ        36.0310   -5.9260   17.2240 N.3    14  LYS14      -0.1314
     55  N         41.8460  -11.0910   19.2430 N.3    17  LEU17      -0.1245
     56  CA        41.6670  -12.4440   19.7560 C.3    17  LEU17       0.1561
     57  C         41.7510  -13.5050   18.6420 C.2    17  LEU17       0.2260
     58  O         41.9030  -14.6840   18.9350 O.2    17  LEU17      -0.2867
     59  CB        40.3530  -12.5250   20.5370 C.3    17  LEU17       0.0270
     60  CG        40.1840  -11.5520   21.7200 C.3    17  LEU17       0.0019
     61  CD1       38.9170  -11.9250   22.4970 C.3    17  LEU17       0.0001
     62  CD2       41.3790  -11.5240   22.6670 C.3    17  LEU17       0.0001
     63  N         35.8570    2.8940   10.8660 N.3    41  PRO41      -0.2116
     64  CA        36.6380    3.7510   11.7600 C.3    41  PRO41       0.1372
     65  C         38.0760    3.9930   11.2650 C.2    41  PRO41       0.2244
     66  O         38.6680    3.1360   10.5810 O.2    41  PRO41      -0.2868
     67  CB        36.6400    2.9620   13.0680 C.3    41  PRO41       0.0268
     68  CG        35.4180    2.1120   12.9640 C.3    41  PRO41       0.0207
     69  CD        35.4310    1.6740   11.5450 C.3    41  PRO41       0.0892
     70  N         42.0180    2.1900   16.8830 N.3    61  MET61      -0.1230
     71  CA        41.0990    2.8970   16.0070 C.3    61  MET61       0.1702
     72  C         40.4880    4.0990   16.6950 C.2    61  MET61       0.2592
     73  O         40.6120    4.2720   17.9090 O.2    61  MET61      -0.2718
     74  CB        40.0490    1.9180   15.4660 C.3    61  MET61       0.0401
     75  CG        38.8790    1.6710   16.3580 C.3    61  MET61       0.0596
     76  SD        37.8010    0.3410   15.7430 S.3    61  MET61      -0.1393
     77  CE        38.6980   -1.1510   16.0790 C.3    61  MET61       0.0692
     78  N         39.8520    4.9740   15.9200 N.am   62  GLU62      -0.1966
     79  CA        39.1540    6.1080   16.5030 C.3    62  GLU62       0.1733
     80  C         37.9490    5.6490   17.3370 C.2    62  GLU62       0.2616
     81  O         37.2380    4.7000   16.9670 O.2    62  GLU62      -0.2715
     82  CB        38.7040    7.1230   15.4100 C.3    62  GLU62       0.0429
     83  CG        37.4210    6.7470   14.6810 C.3    62  GLU62       0.1163
     84  CD        36.9640    7.7120   13.5710 C.2    62  GLU62       0.3649
     85  OE1       36.9470    7.2910   12.3910 O.co2  62  GLU62      -0.2457
     86  OE2       36.6120    8.8690   13.8630 O.co2  62  GLU62      -0.2457
     87  N         37.7350    6.3370   18.4470 N.am   63  ASN63      -0.1958
     88  CA        36.4840    6.2800   19.1780 C.3    63  ASN63       0.1819
     89  C         35.4690    7.1750   18.4710 C.2    63  ASN63       0.2621
     90  O         35.6460    8.4100   18.4390 O.2    63  ASN63      -0.2715
     91  CB        36.6850    6.7860   20.6010 C.3    63  ASN63       0.1195
     92  CG        35.3910    6.8380   21.3990 C.2    63  ASN63       0.2630
     93  OD1       34.3220    6.3670   20.9660 O.2    63  ASN63      -0.2716
     94  ND2       35.4790    7.4200   22.5750 N.am   63  ASN63      -0.0877
     95  N         34.4380    6.5520   17.8940 N.am   64  LEU64      -0.1963
     96  CA        33.4310    7.2750   17.1060 C.3    64  LEU64       0.1728
     97  C         32.6010    8.2800   17.9050 C.2    64  LEU64       0.2616
     98  O         31.9930    9.1860   17.3080 O.2    64  LEU64      -0.2715
     99  CB        32.5010    6.2940   16.3600 C.3    64  LEU64       0.0311
    100  CG        33.1970    5.3360   15.4030 C.3    64  LEU64       0.0022
    101  CD1       32.2480    4.2750   14.9000 C.3    64  LEU64       0.0001
    102  CD2       33.8260    6.1080   14.2680 C.3    64  LEU64       0.0001
    103  N         32.5840    8.1580   19.2250 N.am   65  MET65      -0.1977
    104  CA        31.8490    9.0890   20.0790 C.3    65  MET65       0.1605
    105  C         32.7150   10.0210   20.9320 C.2    65  MET65       0.2287
    106  O         32.2310   10.5970   21.8890 O.2    65  MET65      -0.2864
    107  CB        30.8990    8.3030   20.9710 C.3    65  MET65       0.0413
    108  CG        29.8040    7.6530   20.1490 C.3    65  MET65       0.0598
    109  SD        28.7040    6.7220   21.1830 S.3    65  MET65      -0.1393
    110  CE        29.5980    5.1800   21.3470 C.3    65  MET65       0.0692
    111  N         23.0290    5.9820   20.1750 N.3    73  VAL73      -0.1245
    112  CA        23.7300    4.8340   19.5270 C.3    73  VAL73       0.1561
    113  C         22.7290    3.7650   19.1220 C.2    73  VAL73       0.2260
    114  O         21.8890    3.3520   19.9540 O.2    73  VAL73      -0.2867
    115  CB        24.7100    4.1700   20.4930 C.3    73  VAL73       0.0252
    116  CG1       25.5860    3.1210   19.7680 C.3    73  VAL73       0.0019
    117  CG2       25.5670    5.2320   21.1570 C.3    73  VAL73       0.0019
    118  N         22.9390   -0.0050   16.9710 N.3    75  ASP75      -0.1239
    119  CA        23.7430   -1.0360   16.3340 C.3    75  ASP75       0.1674
    120  C         22.8090   -1.9600   15.5630 C.2    75  ASP75       0.2266
    121  O         21.8750   -2.5460   16.1460 O.2    75  ASP75      -0.2867
    122  CB        24.5090   -1.8450   17.3850 C.3    75  ASP75       0.1410
    123  CG        25.4860   -2.8140   16.7620 C.2    75  ASP75       0.3668
    124  OD1       25.0590   -3.7410   16.0290 O.co2  75  ASP75      -0.2456
    125  OD2       26.7220   -2.6480   16.9720 O.co2  75  ASP75      -0.2456
    126  N         27.0260    0.8600   12.8050 N.3   187  LEU187     -0.1245
    127  CA        26.7850    1.6260   14.0130 C.3   187  LEU187      0.1561
    128  C         26.3730    3.0570   13.6020 C.2   187  LEU187      0.2260
    129  O         27.0650    3.7170   12.8050 O.2   187  LEU187     -0.2867
    130  CB        28.0450    1.6870   14.8630 C.3   187  LEU187      0.0270
    131  CG        27.9420    2.2580   16.2800 C.3   187  LEU187      0.0019
    132  CD1       27.2090    1.3000   17.1520 C.3   187  LEU187      0.0001
    133  CD2       29.3320    2.5380   16.8390 C.3   187  LEU187      0.0001
    134  N         31.4560   -1.7180   11.4590 N.3   206  ILE206     -0.1231
    135  CA        32.3400   -2.1330   12.5380 C.3   206  ILE206      0.1692
    136  C         32.2770   -3.6690   12.7610 C.2   206  ILE206      0.2592
    137  O         31.3710   -4.3610   12.2710 O.2   206  ILE206     -0.2718
    138  CB        32.0310   -1.4330   13.8870 C.3   206  ILE206      0.0266
    139  CG1       30.6250   -1.7660   14.3530 C.3   206  ILE206      0.0019
    140  CG2       32.1280    0.0800   13.7950 C.3   206  ILE206      0.0020
    141  CD1       30.4020   -1.6520   15.8250 C.3   206  ILE206      0.0001
    142  N         33.2640   -4.1660   13.5010 N.am  207  ASP207     -0.1974
    143  CA        33.3660   -5.5410   14.0150 C.3   207  ASP207      0.1709
    144  C         33.6240   -6.6040   12.9680 C.2   207  ASP207      0.2293
    145  O         32.6830   -7.2350   12.4570 O.2   207  ASP207     -0.2864
    146  CB        32.1590   -5.9100   14.8190 C.3   207  ASP207      0.1436
    147  CG        32.3500   -7.2070   15.5900 C.2   207  ASP207      0.3671
    148  OD1       33.5160   -7.7670   15.6660 O.co2 207  ASP207     -0.2456
    149  OD2       31.3000   -7.6830   16.0750 O.co2 207  ASP207     -0.2456
    150  N         35.6710   -9.3180   13.1000 N.3   209  ALA209     -0.1231
    151  CA        36.2450  -10.5720   13.5960 C.3   209  ALA209      0.1694
    152  C         35.9180  -11.7940   12.7390 C.2   209  ALA209      0.2592
    153  O         36.5710  -12.8280   12.8430 O.2   209  ALA209     -0.2718
    154  CB        35.7450  -10.8040   15.0040 C.3   209  ALA209      0.0304
    155  N         34.8890  -11.7190   11.9100 N.am  210  HIS210     -0.1976
    156  CA        34.5400  -12.8340   11.0360 C.3   210  HIS210      0.1656
    157  C         34.5050  -12.4140    9.5680 C.2   210  HIS210      0.2291
    158  O         33.6060  -12.7570    8.8230 O.2   210  HIS210     -0.2864
    159  CB        33.2240  -13.4570   11.4960 C.3   210  HIS210      0.0771
    160  CG        33.2270  -13.8090   12.9600 C.ar  210  HIS210      0.0820
    161  ND1       33.9570  -14.8650   13.4590 N.ar  210  HIS210     -0.2267
    162  CD2       32.6810  -13.1930   14.0370 C.ar  210  HIS210      0.1154
    163  CE1       33.8320  -14.9130   14.7780 C.ar  210  HIS210      0.1986
    164  NE2       33.0530  -13.9180   15.1540 N.ar  210  HIS210     -0.2212
@<TRIPOS>BOND
     1   158   157    2
     2   157   156    1
     3    66    65    2
     4    63    69    1
     5    63    64    1
     6   156   159    1
     7   156   155    1
     8    65    64    1
     9   134   135    1
    10   159   160    1
    11    69    68    1
    12    64    67    1
    13   155   152   am
    14   137   136    2
    15    85    84   ar
    16   145   144    2
    17   135   136    1
    18   135   138    1
    19   152   153    2
    20   152   151    1
    21   136   142   am
    22   126   127    1
    23   129   128    2
    24   160   161   ar
    25   160   162   ar
    26    68    67    1
    27   144   143    1
    28   150   151    1
    29   161   163   ar
    30   142   143    1
    31    84    86   ar
    32    84    83    1
    33   151   154    1
    34   128   127    1
    35   140   138    1
    36   138   139    1
    37   127   130    1
    38   143   146    1
    39   162   164   ar
    40   102   100    1
    41   139   141    1
    42    83    82    1
    43   163   164   ar
    44   146   147    1
    45   130   131    1
    46   101   100    1
    47   100    99    1
    48    82    79    1
    49    74    71    1
    50    74    75    1
    51   120   121    2
    52   120   119    1
    53   147   148   ar
    54   147   149   ar
    55    76    77    1
    56    76    75    1
    57    78    79    1
    58    78    72   am
    59    71    72    1
    60    71    70    1
    61   124   123   ar
    62   131   133    1
    63   131   132    1
    64   119   118    1
    65   119   122    1
    66    99    96    1
    67    79    80    1
    68    72    73    2
    69   123   125   ar
    70   123   122    1
    71    81    80    2
    72    96    95    1
    73    96    97    1
    74    54    53    1
    75    98    97    2
    76    80    87   am
    77    95    89   am
    78    97   103   am
    79    53    52    1
    80    52    51    1
    81    90    89    2
    82    87    88    1
    83    89    88    1
    84    57    58    2
    85    57    56    1
    86   113   112    1
    87   113   114    2
    88    88    91    1
    89   103   104    1
    90    55    56    1
    91   112   111    1
    92   112   115    1
    93    50    51    1
    94    50    47    1
    95    49    48    2
    96    41    40    2
    97    45    43    1
    98    56    59    1
    99   116   115    1
   100   104   105    1
   101   104   107    1
   102   108   107    1
   103   108   109    1
   104    42    43    1
   105    42    39    1
   106   115   117    1
   107    43    44    1
   108    59    60    1
   109    91    92    1
   110    48    47    1
   111    38    39    1
   112    47    46    1
   113    40    39    1
   114   105   106    2
   115    93    92    2
   116   109   110    1
   117    92    94   am
   118    60    61    1
   119    60    62    1
   120    20    21   ar
   121    20    18   ar
   122    21    19   ar
   123    10     9    1
   124    18    16   ar
   125    19    17   ar
   126    30    28   am
   127     9     6    1
   128     1     2    1
   129    35    36    1
   130    35    32    1
   131    28    29    2
   132    28    27    1
   133    16    17   ar
   134    16    15    1
   135     5     6    1
   136     5     3   am
   137    36    37    1
   138    34    33    2
   139     6     7    1
   140     2     3    1
   141    25    24    2
   142    27    26    1
   143    33    32    1
   144     3     4    2
   145    32    31    1
   146     7    11   am
   147     7     8    2
   148    26    23    1
   149    15    12    1
   150    11    12    1
   151    37    31    1
   152    23    24    1
   153    23    22    1
   154    12    13    1
   155    14    13    2
