@<TRIPOS>MOLECULE
tmp/4o4eA00.pdb
 98 90 0 0 0
SMALL
GASTEIGER

@<TRIPOS>ATOM
      1  N         32.2260   -7.6190   23.8680 N.3     1  GLY1       -0.1225
      2  CA        32.6240   -8.6860   24.8180 C.3     1  GLY1        0.1811
      3  C         34.0840   -8.6300   25.2250 C.2     1  GLY1        0.2280
      4  O         34.4120   -8.9810   26.3430 O.2     1  GLY1       -0.2866
      5  N         32.2520   -2.1590   27.2620 N.3     5  GLN5       -0.1245
      6  CA        31.7020   -1.5840   26.0160 C.3     5  GLN5        0.1566
      7  C         31.3180   -0.1140   26.0690 C.2     5  GLN5        0.2260
      8  O         30.9870    0.4800   25.0250 O.2     5  GLN5       -0.2867
      9  CB        30.5130   -2.4140   25.5100 C.3     5  GLN5        0.0367
     10  CG        30.9310   -3.7920   25.0350 C.3     5  GLN5        0.0905
     11  CD        29.8800   -4.4770   24.1790 C.2     5  GLN5        0.2608
     12  OE1       28.6880   -4.1710   24.2770 O.2     5  GLN5       -0.2717
     13  NE2       30.3180   -5.4180   23.3370 N.am    5  GLN5       -0.0878
     14  N         22.8740   -5.2860   13.0170 N.3    77  LYS77      -0.1245
     15  CA        23.7080   -6.3840   12.5590 C.3    77  LYS77       0.1561
     16  C         23.2900   -6.7060   11.1150 C.2    77  LYS77       0.2260
     17  O         22.0830   -6.7810   10.8140 O.2    77  LYS77      -0.2867
     18  CB        23.5120   -7.5650   13.4850 C.3    77  LYS77       0.0271
     19  CG        24.6880   -8.5020   13.5130 C.3    77  LYS77       0.0035
     20  CD        24.5310   -9.5730   14.5630 C.3    77  LYS77       0.0206
     21  CE        25.2150   -9.2000   15.8640 C.3    77  LYS77       0.1093
     22  NZ        24.6430  -10.1220   16.9140 N.3    77  LYS77      -0.1314
     23  N         27.1580  -23.2810   19.4480 N.3    91  LYS91      -0.1245
     24  CA        26.4210  -22.0320   19.2260 C.3    91  LYS91       0.1561
     25  C         25.3690  -22.1070   18.1040 C.2    91  LYS91       0.2260
     26  O         24.5570  -21.2040   17.9760 O.2    91  LYS91      -0.2867
     27  CB        27.3890  -20.9030   18.8540 C.3    91  LYS91       0.0271
     28  CG        28.4890  -20.5800   19.8700 C.3    91  LYS91       0.0035
     29  CD        27.9790  -20.6820   21.2940 C.3    91  LYS91       0.0206
     30  CE        28.9660  -20.1700   22.3490 C.3    91  LYS91       0.1093
     31  NZ        28.3650  -20.2510   23.7130 N.3    91  LYS91      -0.1314
     32  N         21.2830  -21.9830   18.4340 N.3    94  LYS94      -0.1231
     33  CA        20.8690  -20.6130   18.7680 C.3    94  LYS94       0.1693
     34  C         21.0220  -19.6480   17.5830 C.2    94  LYS94       0.2591
     35  O         20.1400  -18.8620   17.3410 O.2    94  LYS94      -0.2718
     36  CB        21.6790  -20.0990   19.9230 C.3    94  LYS94       0.0285
     37  CG        21.1590  -18.7750   20.4440 C.3    94  LYS94       0.0035
     38  CD        21.8350  -18.3650   21.7400 C.3    94  LYS94       0.0206
     39  CE        22.6020  -17.0800   21.5730 C.3    94  LYS94       0.1093
     40  NZ        22.8520  -16.4160   22.8720 N.3    94  LYS94      -0.1314
     41  N         22.1470  -19.7110   16.8640 N.am   95  ARG95      -0.1980
     42  CA        22.3680  -18.8120   15.7180 C.3    95  ARG95       0.1597
     43  C         21.2680  -19.0050   14.7000 C.2    95  ARG95       0.2287
     44  O         20.7150  -18.0300   14.1590 O.2    95  ARG95      -0.2864
     45  CB        23.7060  -19.0770   15.0350 C.3    95  ARG95       0.0334
     46  CG        24.8980  -18.7040   15.8920 C.3    95  ARG95       0.0492
     47  CD        25.0590  -17.1910   16.0230 C.3    95  ARG95       0.2205
     48  NE        26.3330  -16.9760   16.7050 N.pl3  95  ARG95      -0.0865
     49  CZ        26.5090  -17.0000   18.0160 C.cat  95  ARG95       0.5346
     50  NH1       25.4780  -17.1470   18.8580 N.pl3  95  ARG95       0.1354
     51  NH2       27.7340  -16.8710   18.5020 N.pl3  95  ARG95       0.1354
     52  N         17.8240  -17.5310   16.1620 N.3    98  VAL98      -0.1245
     53  CA        17.8260  -16.0770   16.2130 C.3    98  VAL98       0.1561
     54  C         17.7790  -15.5060   14.7830 C.2    98  VAL98       0.2260
     55  O         16.9840  -14.6090   14.5080 O.2    98  VAL98      -0.2867
     56  CB        18.9970  -15.4790   17.0360 C.3    98  VAL98       0.0252
     57  CG1       18.9490  -13.9520   16.9870 C.3    98  VAL98       0.0019
     58  CG2       18.8970  -15.8890   18.4920 C.3    98  VAL98       0.0019
     59  N         19.1690   -6.6820   11.2020 N.3   110  ARG110     -0.1245
     60  CA        18.3950   -6.7920   12.4270 C.3   110  ARG110      0.1563
     61  C         18.8300   -5.8120   13.5230 C.2   110  ARG110      0.2260
     62  O         20.0100   -5.3990   13.6030 O.2   110  ARG110     -0.2867
     63  CB        18.3880   -8.2350   12.9440 C.3   110  ARG110      0.0307
     64  CG        19.6300   -8.6950   13.6980 C.3   110  ARG110      0.0489
     65  CD        19.2220   -9.8920   14.5430 C.3   110  ARG110      0.2205
     66  NE        20.3160  -10.5560   15.2140 N.pl3 110  ARG110     -0.0865
     67  CZ        20.8680  -11.7090   14.8460 C.cat 110  ARG110      0.5346
     68  NH1       20.4820  -12.3640   13.7550 N.pl3 110  ARG110      0.1354
     69  NH2       21.8170  -12.2300   15.6130 N.pl3 110  ARG110      0.1354
     70  N         20.0840   -4.5410   16.9520 N.3   112  SER112     -0.1217
     71  CA        21.1230   -5.1050   17.8230 C.3   112  SER112      0.1889
     72  C         21.3150   -4.4490   19.2010 C.2   112  SER112      0.2288
     73  O         22.1600   -4.8900   19.9810 O.2   112  SER112     -0.2866
     74  CB        22.4640   -5.1440   17.0820 C.3   112  SER112      0.2089
     75  OG        23.0800   -6.4140   17.2090 O.3   112  SER112     -0.2183
     76  N         19.5780   -5.6480   22.8520 N.3   128  ARG128     -0.1231
     77  CA        19.6930   -6.3660   21.5650 C.3   128  ARG128      0.1694
     78  C         18.7050   -7.5260   21.4640 C.2   128  ARG128      0.2592
     79  O         18.3080   -7.9370   20.3630 O.2   128  ARG128     -0.2718
     80  CB        21.1080   -6.8950   21.3580 C.3   128  ARG128      0.0321
     81  CG        21.5940   -7.9590   22.3540 C.3   128  ARG128      0.0489
     82  CD        23.0290   -8.3760   22.0820 C.3   128  ARG128      0.2205
     83  NE        23.5390   -9.3150   23.0910 N.pl3 128  ARG128     -0.0865
     84  CZ        24.1360   -8.9860   24.2510 C.cat 128  ARG128      0.5346
     85  NH1       24.3180   -7.7210   24.5980 N.pl3 128  ARG128      0.1354
     86  NH2       24.5470   -9.9380   25.0950 N.pl3 128  ARG128      0.1354
     87  N         18.3120   -8.0840   22.6100 N.am  129  TYR129     -0.1976
     88  CA        17.3480   -9.2030   22.6010 C.3   129  TYR129      0.1639
     89  C         15.9290   -8.8480   22.1850 C.2   129  TYR129      0.2290
     90  O         15.1490   -9.7400   21.9150 O.2   129  TYR129     -0.2864
     91  CB        17.3630   -9.9600   23.9440 C.3   129  TYR129      0.0560
     92  CG        18.7280  -10.5730   24.2000 C.ar  129  TYR129     -0.0198
     93  CD1       19.2420  -11.5550   23.3470 C.ar  129  TYR129     -0.0009
     94  CD2       19.5350  -10.1190   25.2240 C.ar  129  TYR129     -0.0009
     95  CE1       20.5020  -12.0970   23.5470 C.ar  129  TYR129      0.0417
     96  CE2       20.7960  -10.6380   25.4280 C.ar  129  TYR129      0.0417
     97  CZ        21.2840  -11.6220   24.5920 C.ar  129  TYR129      0.1957
     98  OH        22.5460  -12.1500   24.8020 O.3   129  TYR129     -0.2866
@<TRIPOS>BOND
     1    17    16    2
     2    16    15    1
     3    59    60    1
     4    60    63    1
     5    60    61    1
     6    15    14    1
     7    15    18    1
     8    63    64    1
     9    18    19    1
    10    19    20    1
    11    61    62    2
    12    64    65    1
    13    68    67    1
    14    44    43    2
    15    55    54    2
    16    65    66    1
    17    20    21    1
    18    43    42    1
    19    54    53    1
    20    67    66    2
    21    67    69    1
    22    45    42    1
    23    45    46    1
    24    42    41    1
    25    21    22    1
    26    46    47    1
    27    47    48    1
    28    52    53    1
    29    53    56    1
    30    48    49    2
    31    41    34   am
    32    70    71    1
    33    57    56    1
    34    56    58    1
    35    74    75    1
    36    74    71    1
    37    35    34    2
    38    34    33    1
    39    71    72    1
    40    26    25    2
    41    49    51    1
    42    49    50    1
    43    25    24    1
    44    32    33    1
    45    33    36    1
    46    27    24    1
    47    27    28    1
    48    72    73    2
    49    24    23    1
    50    28    29    1
    51    36    37    1
    52    79    78    2
    53    37    38    1
    54    29    30    1
    55    80    77    1
    56    80    81    1
    57    78    77    1
    58    78    87   am
    59    77    76    1
    60    39    38    1
    61    39    40    1
    62    90    89    2
    63    82    81    1
    64    82    83    1
    65    89    88    1
    66    30    31    1
    67    88    87    1
    68    88    91    1
    69    83    84    2
    70    13    11   am
    71    93    95   ar
    72    93    92   ar
    73    95    97   ar
    74     1     2    1
    75    91    92    1
    76    11    12    2
    77    11    10    1
    78    92    94   ar
    79    84    85    1
    80    84    86    1
    81    97    98    1
    82    97    96   ar
    83     2     3    1
    84     8     7    2
    85    10     9    1
    86    94    96   ar
    87     3     4    2
    88     9     6    1
    89     6     7    1
    90     6     5    1
