@<TRIPOS>MOLECULE
tmp/4o4fA00.pdb
 104 95 0 0 0
SMALL
GASTEIGER

@<TRIPOS>ATOM
      1  N         32.0830   -7.8770   23.4420 N.3     1  GLY1       -0.1225
      2  CA        32.4090   -8.5060   24.7540 C.3     1  GLY1        0.1811
      3  C         33.8890   -8.5620   25.0970 C.2     1  GLY1        0.2280
      4  O         34.2440   -8.9940   26.1870 O.2     1  GLY1       -0.2866
      5  N         31.9910   -2.0720   27.0610 N.3     5  GLN5       -0.1245
      6  CA        31.3930   -1.4810   25.8460 C.3     5  GLN5        0.1566
      7  C         31.0030   -0.0030   25.9510 C.2     5  GLN5        0.2260
      8  O         30.6050    0.6030   24.9490 O.2     5  GLN5       -0.2867
      9  CB        30.2030   -2.3250   25.3620 C.3     5  GLN5        0.0367
     10  CG        30.6170   -3.7160   24.8940 C.3     5  GLN5        0.0905
     11  CD        29.6290   -4.3540   23.9260 C.2     5  GLN5        0.2608
     12  OE1       28.4320   -4.0560   23.9530 O.2     5  GLN5       -0.2717
     13  NE2       30.1290   -5.2440   23.0640 N.am    5  GLN5       -0.0878
     14  N         22.7130   -5.2050   12.8190 N.3    77  LYS77      -0.1245
     15  CA        23.5400   -6.3050   12.3580 C.3    77  LYS77       0.1561
     16  C         23.1200   -6.6280   10.9180 C.2    77  LYS77       0.2260
     17  O         21.9140   -6.7240   10.6300 O.2    77  LYS77      -0.2867
     18  CB        23.3570   -7.5020   13.2900 C.3    77  LYS77       0.0271
     19  CG        24.5210   -8.4550   13.3100 C.3    77  LYS77       0.0035
     20  CD        24.3560   -9.5420   14.3530 C.3    77  LYS77       0.0206
     21  CE        24.7820   -9.0770   15.7410 C.3    77  LYS77       0.1093
     22  NZ        24.4110  -10.1130   16.7480 N.3    77  LYS77      -0.1314
     23  N         26.8230  -23.1890   19.2220 N.3    91  LYS91      -0.1245
     24  CA        26.0810  -21.9320   18.9900 C.3    91  LYS91       0.1561
     25  C         25.0230  -21.9470   17.8800 C.2    91  LYS91       0.2260
     26  O         24.2410  -21.0090   17.7710 O.2    91  LYS91      -0.2867
     27  CB        27.0630  -20.8060   18.6730 C.3    91  LYS91       0.0271
     28  CG        28.1780  -20.6240   19.6960 C.3    91  LYS91       0.0035
     29  CD        27.6110  -20.2910   21.0650 C.3    91  LYS91       0.0206
     30  CE        28.6940  -20.1940   22.1280 C.3    91  LYS91       0.1093
     31  NZ        28.0860  -20.0740   23.4800 N.3    91  LYS91      -0.1314
     32  N         20.9980  -21.8020   18.2610 N.3    94  LYS94      -0.1231
     33  CA        20.5840  -20.4390   18.6020 C.3    94  LYS94       0.1693
     34  C         20.7500  -19.4900   17.4170 C.2    94  LYS94       0.2591
     35  O         19.9050  -18.6400   17.1920 O.2    94  LYS94      -0.2718
     36  CB        21.4230  -19.9250   19.7440 C.3    94  LYS94       0.0285
     37  CG        21.0490  -18.5190   20.1440 C.3    94  LYS94       0.0035
     38  CD        21.5090  -18.1890   21.5380 C.3    94  LYS94       0.0206
     39  CE        22.8490  -17.5090   21.5640 C.3    94  LYS94       0.1093
     40  NZ        22.7640  -16.3080   22.4440 N.3    94  LYS94      -0.1314
     41  N         21.8670  -19.5920   16.6930 N.am   95  ARG95      -0.1980
     42  CA        22.1180  -18.6680   15.5800 C.3    95  ARG95       0.1597
     43  C         21.0130  -18.8070   14.5440 C.2    95  ARG95       0.2287
     44  O         20.5090  -17.8250   14.0210 O.2    95  ARG95      -0.2864
     45  CB        23.4660  -18.9150   14.8770 C.3    95  ARG95       0.0334
     46  CG        24.6970  -18.5490   15.6990 C.3    95  ARG95       0.0492
     47  CD        24.9730  -17.0480   15.7930 C.3    95  ARG95       0.2205
     48  NE        26.2550  -16.8970   16.4810 N.pl3  95  ARG95      -0.0865
     49  CZ        26.4350  -16.9580   17.8010 C.cat  95  ARG95       0.5346
     50  NH1       25.3960  -17.0440   18.6360 N.pl3  95  ARG95       0.1354
     51  NH2       27.6660  -16.8800   18.3010 N.pl3  95  ARG95       0.1354
     52  N         17.6290  -17.3380   15.9610 N.3    98  VAL98      -0.1245
     53  CA        17.6350  -15.8760   16.0540 C.3    98  VAL98       0.1561
     54  C         17.5860  -15.2820   14.6470 C.2    98  VAL98       0.2260
     55  O         16.8200  -14.3260   14.4140 O.2    98  VAL98      -0.2867
     56  CB        18.7970  -15.3090   16.8950 C.3    98  VAL98       0.0252
     57  CG1       18.8030  -13.7820   16.8690 C.3    98  VAL98       0.0019
     58  CG2       18.7040  -15.7800   18.3350 C.3    98  VAL98       0.0019
     59  N         18.9780   -6.5790   11.0140 N.3   110  ARG110     -0.1245
     60  CA        18.1920   -6.6770   12.2390 C.3   110  ARG110      0.1563
     61  C         18.6450   -5.6970   13.3210 C.2   110  ARG110      0.2260
     62  O         19.8270   -5.3030   13.4080 O.2   110  ARG110     -0.2867
     63  CB        18.1700   -8.1150   12.7650 C.3   110  ARG110      0.0307
     64  CG        19.4600   -8.6180   13.4230 C.3   110  ARG110      0.0489
     65  CD        19.0870   -9.7740   14.3540 C.3   110  ARG110      0.2205
     66  NE        20.2110  -10.4480   15.0060 N.pl3 110  ARG110     -0.0865
     67  CZ        20.7130  -11.6300   14.6570 C.cat 110  ARG110      0.5346
     68  NH1       20.2780  -12.2740   13.5960 N.pl3 110  ARG110      0.1354
     69  NH2       21.7080  -12.1680   15.3680 N.pl3 110  ARG110      0.1354
     70  N         19.8790   -4.5070   16.7040 N.3   112  SER112     -0.1217
     71  CA        20.8590   -5.0610   17.6040 C.3   112  SER112      0.1889
     72  C         21.2900   -4.1910   18.7610 C.2   112  SER112      0.2288
     73  O         22.3890   -4.2390   19.1580 O.2   112  SER112     -0.2866
     74  CB        22.0550   -5.6120   16.8410 C.3   112  SER112      0.2089
     75  OG        22.6660   -6.6570   17.5180 O.3   112  SER112     -0.2183
     76  N         19.4120   -5.5810   22.6480 N.3   128  ARG128     -0.1231
     77  CA        19.5690   -6.2790   21.3600 C.3   128  ARG128      0.1694
     78  C         18.5790   -7.4280   21.1950 C.2   128  ARG128      0.2592
     79  O         18.1650   -7.7760   20.0860 O.2   128  ARG128     -0.2718
     80  CB        20.9980   -6.7780   21.2110 C.3   128  ARG128      0.0321
     81  CG        21.4190   -7.8360   22.2170 C.3   128  ARG128      0.0489
     82  CD        22.8800   -8.2070   22.0570 C.3   128  ARG128      0.2205
     83  NE        23.2810   -9.2400   23.0160 N.pl3 128  ARG128     -0.0865
     84  CZ        24.1540   -9.0800   24.0200 C.cat 128  ARG128      0.5346
     85  NH1       24.7900   -7.9310   24.2050 N.pl3 128  ARG128      0.1354
     86  NH2       24.4250  -10.1000   24.8390 N.pl3 128  ARG128      0.1354
     87  N         18.1670   -8.0210   22.3150 N.am  129  TYR129     -0.1976
     88  CA        17.2170   -9.1420   22.2740 C.3   129  TYR129      0.1639
     89  C         15.7880   -8.8030   21.8280 C.2   129  TYR129      0.2290
     90  O         14.9850   -9.6980   21.5580 O.2   129  TYR129     -0.2864
     91  CB        17.2370   -9.8960   23.6180 C.3   129  TYR129      0.0560
     92  CG        18.6030  -10.4880   23.8890 C.ar  129  TYR129     -0.0198
     93  CD1       19.1110  -11.4740   23.0620 C.ar  129  TYR129     -0.0009
     94  CD2       19.4060  -10.0270   24.9230 C.ar  129  TYR129     -0.0009
     95  CE1       20.3680  -12.0020   23.2600 C.ar  129  TYR129      0.0417
     96  CE2       20.6760  -10.5520   25.1350 C.ar  129  TYR129      0.0417
     97  CZ        21.1470  -11.5470   24.3100 C.ar  129  TYR129      0.1957
     98  OH        22.4170  -12.1000   24.4850 O.3   129  TYR129     -0.2866
     99  N         28.0130  -11.1900   10.9320 N.3   183  SER183     -0.1217
    100  CA        27.8180  -10.6050   12.2620 C.3   183  SER183      0.1889
    101  C         28.4610   -9.2230   12.4050 C.2   183  SER183      0.2288
    102  O         28.6970   -8.7610   13.5280 O.2   183  SER183     -0.2866
    103  CB        28.3080  -11.5540   13.3830 C.3   183  SER183      0.2089
    104  OG        27.4990  -12.7120   13.5120 O.3   183  SER183     -0.2183
@<TRIPOS>BOND
     1    17    16    2
     2    16    15    1
     3    99   100    1
     4    59    60    1
     5    60    63    1
     6    60    61    1
     7   100   101    1
     8   100   103    1
     9    15    14    1
    10    15    18    1
    11   101   102    2
    12    63    64    1
    13    18    19    1
    14    19    20    1
    15    61    62    2
    16   103   104    1
    17    64    65    1
    18    68    67    1
    19    44    43    2
    20    20    21    1
    21    65    66    1
    22    55    54    2
    23    43    42    1
    24    54    53    1
    25    67    66    2
    26    67    69    1
    27    45    42    1
    28    45    46    1
    29    42    41    1
    30    46    47    1
    31    21    22    1
    32    47    48    1
    33    52    53    1
    34    53    56    1
    35    48    49    2
    36    41    34   am
    37    70    71    1
    38    74    75    1
    39    74    71    1
    40    57    56    1
    41    56    58    1
    42    35    34    2
    43    34    33    1
    44    71    72    1
    45    26    25    2
    46    49    51    1
    47    49    50    1
    48    25    24    1
    49    32    33    1
    50    33    36    1
    51    27    24    1
    52    27    28    1
    53    72    73    2
    54    24    23    1
    55    28    29    1
    56    36    37    1
    57    79    78    2
    58    37    38    1
    59    29    30    1
    60    78    77    1
    61    78    87   am
    62    80    77    1
    63    80    81    1
    64    77    76    1
    65    38    39    1
    66    90    89    2
    67    39    40    1
    68    89    88    1
    69    82    81    1
    70    82    83    1
    71    30    31    1
    72    88    87    1
    73    88    91    1
    74    83    84    2
    75    93    95   ar
    76    93    92   ar
    77    13    11   am
    78    95    97   ar
    79     1     2    1
    80    91    92    1
    81    92    94   ar
    82    11    12    2
    83    11    10    1
    84    84    85    1
    85    84    86    1
    86    97    98    1
    87    97    96   ar
    88     2     3    1
    89    10     9    1
    90    94    96   ar
    91     8     7    2
    92     3     4    2
    93     9     6    1
    94     6     7    1
    95     6     5    1
