@<TRIPOS>MOLECULE
tmp/4o4hB01.pdb
 144 141 0 0 0
SMALL
GASTEIGER

@<TRIPOS>ATOM
      1  N         -0.1410   62.2920   42.9130 N.3   286  THR286     -0.1203
      2  CA         0.7240   61.5520   43.8170 C.3   286  THR286      0.1994
      3  C          0.3650   60.0750   43.8950 C.2   286  THR286      0.2617
      4  O          1.2420   59.2150   43.8200 O.2   286  THR286     -0.2717
      5  CB         0.6870   62.1590   45.2250 C.3   286  THR286      0.1784
      6  OG1        1.1020   63.5280   45.1600 O.3   286  THR286     -0.2211
      7  CG2        1.6200   61.4020   46.1440 C.3   286  THR286      0.0376
      8  N         -0.9180   59.7890   44.0400 N.am  287  GLN287     -0.1979
      9  CA        -1.3920   58.4190   44.0930 C.3   287  GLN287      0.1601
     10  C         -1.0490   57.6940   42.8090 C.2   287  GLN287      0.2287
     11  O         -0.6040   56.5620   42.8250 O.2   287  GLN287     -0.2864
     12  CB        -2.9060   58.3800   44.2780 C.3   287  GLN287      0.0394
     13  CG        -3.4370   59.1540   45.4670 C.3   287  GLN287      0.0908
     14  CD        -4.9380   59.0040   45.6150 C.2   287  GLN287      0.2608
     15  OE1       -5.4210   57.9830   46.0930 O.2   287  GLN287     -0.2717
     16  NE2       -5.6810   60.0160   45.1900 N.am  287  GLN287     -0.0878
     17  N          2.8960   56.9150   41.8070 N.3   290  PHE290     -0.1227
     18  CA         3.5400   55.8690   42.5700 C.3   290  PHE290      0.1736
     19  C          2.8900   54.5220   42.3450 C.2   290  PHE290      0.2595
     20  O          3.3730   53.5160   42.8250 O.2   290  PHE290     -0.2718
     21  CB         3.5330   56.2090   44.0540 C.3   290  PHE290      0.0547
     22  CG         4.6370   57.1300   44.4620 C.ar  290  PHE290     -0.0202
     23  CD1        5.8620   56.6310   44.8390 C.ar  290  PHE290     -0.0042
     24  CD2        4.4480   58.4910   44.4630 C.ar  290  PHE290     -0.0042
     25  CE1        6.8810   57.4730   45.2140 C.ar  290  PHE290     -0.0003
     26  CE2        5.4620   59.3430   44.8370 C.ar  290  PHE290     -0.0003
     27  CZ         6.6820   58.8320   45.2130 C.ar  290  PHE290     -0.0000
     28  N          1.7840   54.5100   41.6200 N.am  291  ASP291     -0.1960
     29  CA         1.0960   53.2680   41.3170 C.3   291  ASP291      0.1840
     30  C          1.9560   52.4230   40.4000 C.2   291  ASP291      0.2623
     31  O          2.5280   52.9270   39.4560 O.2   291  ASP291     -0.2715
     32  CB        -0.2390   53.5640   40.6350 C.3   291  ASP291      0.1450
     33  CG        -1.1910   52.3910   40.6740 C.2   291  ASP291      0.3671
     34  OD1       -0.7720   51.2610   40.3760 O.co2 291  ASP291     -0.2456
     35  OD2       -2.3660   52.6030   41.0080 O.co2 291  ASP291     -0.2456
     36  N          2.0240   51.1300   40.6620 N.am  292  SER292     -0.1936
     37  CA         2.8140   50.2520   39.8170 C.3   292  SER292      0.2055
     38  C          2.3750   50.3610   38.3590 C.2   292  SER292      0.2642
     39  O          3.1840   50.2450   37.4560 O.2   292  SER292     -0.2714
     40  CB         2.7690   48.8130   40.3270 C.3   292  SER292      0.2130
     41  OG         1.8610   48.0160   39.5990 O.3   292  SER292     -0.2179
     42  N          1.0880   50.6070   38.1480 N.am  293  LYS293     -0.1977
     43  CA         0.5420   50.7450   36.7990 C.3   293  LYS293      0.1596
     44  C          1.0840   51.9450   36.0350 C.2   293  LYS293      0.2287
     45  O          0.9370   52.0250   34.8170 O.2   293  LYS293     -0.2864
     46  CB        -0.9790   50.8580   36.8430 C.3   293  LYS293      0.0298
     47  CG        -1.6610   49.6780   37.4820 C.3   293  LYS293      0.0038
     48  CD        -3.0530   49.5010   36.9140 C.3   293  LYS293      0.0206
     49  CE        -4.0850   50.2580   37.7170 C.3   293  LYS293      0.1093
     50  NZ        -5.0190   49.2980   38.3680 N.3   293  LYS293     -0.1314
     51  N          7.0580   47.7740   42.3190 N.3   301  PRO301     -0.2102
     52  CA         7.8100   48.4330   43.3940 C.3   301  PRO301      0.1504
     53  C          7.5410   47.7820   44.7470 C.2   301  PRO301      0.2575
     54  O          8.3800   47.8740   45.6400 O.2   301  PRO301     -0.2718
     55  CB         7.2480   49.8570   43.4080 C.3   301  PRO301      0.0282
     56  CG         6.5640   50.0350   42.1220 C.3   301  PRO301      0.0208
     57  CD         6.1170   48.6910   41.6550 C.3   301  PRO301      0.0893
     58  N          6.4020   47.1190   44.8910 N.am  302  ARG302     -0.1980
     59  CA         6.0750   46.4430   46.1380 C.3   302  ARG302      0.1597
     60  C          6.9170   45.1970   46.3400 C.2   302  ARG302      0.2287
     61  O          6.9230   44.6260   47.4130 O.2   302  ARG302     -0.2864
     62  CB         4.5920   46.0800   46.1880 C.3   302  ARG302      0.0334
     63  CG         3.6560   47.2720   46.2030 C.3   302  ARG302      0.0492
     64  CD         2.2280   46.8630   45.8870 C.3   302  ARG302      0.2205
     65  NE         2.0890   46.3570   44.5260 N.pl3 302  ARG302     -0.0865
     66  CZ         0.9420   46.2880   43.8640 C.cat 302  ARG302      0.5346
     67  NH1       -0.1780   46.6940   44.4380 N.pl3 302  ARG302      0.1354
     68  NH2        0.9110   45.8130   42.6290 N.pl3 302  ARG302      0.1354
     69  N         12.6970   51.2560   47.7630 N.3   306  TYR306     -0.1241
     70  CA        13.3140   52.4320   47.1690 C.3   306  TYR306      0.1605
     71  C         14.5630   52.8680   47.9260 C.2   306  TYR306      0.2264
     72  O         14.5060   53.1600   49.1220 O.2   306  TYR306     -0.2867
     73  CB        12.3150   53.5900   47.1290 C.3   306  TYR306      0.0534
     74  CG        11.2110   53.4020   46.1160 C.ar  306  TYR306     -0.0201
     75  CD1       11.4930   53.4110   44.7580 C.ar  306  TYR306     -0.0009
     76  CD2        9.8930   53.2170   46.5160 C.ar  306  TYR306     -0.0009
     77  CE1       10.5010   53.2410   43.8250 C.ar  306  TYR306      0.0417
     78  CE2        8.8850   53.0470   45.5840 C.ar  306  TYR306      0.0417
     79  CZ         9.1990   53.0620   44.2390 C.ar  306  TYR306      0.1957
     80  OH         8.2170   52.8960   43.2940 O.3   306  TYR306     -0.2866
     81  N          1.3060   65.9160   50.4100 N.3   325  GLN325     -0.1245
     82  CA         1.0040   64.6520   49.7460 C.3   325  GLN325      0.1566
     83  C          2.2230   63.7550   49.6370 C.2   325  GLN325      0.2260
     84  O          2.1350   62.5480   49.8630 O.2   325  GLN325     -0.2867
     85  CB         0.4070   64.8890   48.3610 C.3   325  GLN325      0.0367
     86  CG        -0.9950   65.4440   48.4110 C.3   325  GLN325      0.0905
     87  CD        -1.8930   64.6400   49.3270 C.2   325  GLN325      0.2608
     88  OE1       -2.2340   63.4960   49.0310 O.2   325  GLN325     -0.2717
     89  NE2       -2.2720   65.2330   50.4540 N.am  325  GLN325     -0.0878
     90  N          2.8650   62.3460   52.8600 N.3   328  ASN328     -0.1225
     91  CA         1.8520   61.3480   53.1470 C.3   328  ASN328      0.1785
     92  C          2.1570   60.0030   52.5030 C.2   328  ASN328      0.2597
     93  O          1.9800   58.9520   53.1200 O.2   328  ASN328     -0.2718
     94  CB         0.4880   61.8300   52.6870 C.3   328  ASN328      0.1169
     95  CG        -0.6280   61.0550   53.3240 C.2   328  ASN328      0.2627
     96  OD1       -0.8400   61.1460   54.5310 O.2   328  ASN328     -0.2716
     97  ND2       -1.3440   60.2760   52.5240 N.am  328  ASN328     -0.0877
     98  N          2.6130   60.0430   51.2570 N.am  329  VAL329     -0.1980
     99  CA         2.9050   58.8200   50.5220 C.3   329  VAL329      0.1595
    100  C          4.0330   58.0190   51.1920 C.2   329  VAL329      0.2287
    101  O          3.9530   56.7940   51.2950 O.2   329  VAL329     -0.2864
    102  CB         3.1620   59.1010   49.0100 C.3   329  VAL329      0.0276
    103  CG1        4.6400   59.2990   48.7080 C.3   329  VAL329      0.0022
    104  CG2        2.5910   57.9860   48.1660 C.3   329  VAL329      0.0022
    105  N          2.8570   56.7150   54.8880 N.3   332  LYS332     -0.1231
    106  CA         1.8770   55.6340   54.8620 C.3   332  LYS332      0.1693
    107  C          2.3800   54.3980   54.1180 C.2   332  LYS332      0.2592
    108  O          1.6660   53.4070   53.9880 O.2   332  LYS332     -0.2718
    109  CB         0.5490   56.1190   54.2720 C.3   332  LYS332      0.0285
    110  CG        -0.4710   56.5790   55.3160 C.3   332  LYS332      0.0035
    111  CD        -0.0760   57.8910   55.9820 C.3   332  LYS332      0.0206
    112  CE        -1.0130   58.2180   57.1370 C.3   332  LYS332      0.1093
    113  NZ        -0.2880   58.7830   58.3090 N.3   332  LYS332     -0.1314
    114  N          3.6130   54.4680   53.6390 N.am  333  ASN333     -0.1974
    115  CA         4.2260   53.3560   52.9420 C.3   333  ASN333      0.1688
    116  C          5.7030   53.2610   53.2710 C.2   333  ASN333      0.2292
    117  O          6.5060   52.8660   52.4370 O.2   333  ASN333     -0.2864
    118  CB         4.0310   53.5010   51.4390 C.3   333  ASN333      0.1181
    119  CG         2.5930   53.3200   51.0210 C.2   333  ASN333      0.2629
    120  OD1        2.0220   52.2500   51.1770 O.2   333  ASN333     -0.2716
    121  ND2        2.0010   54.3680   50.4880 N.am  333  ASN333     -0.0877
    122  N          8.4590   50.5640   52.3140 N.3   336  TYR336     -0.1227
    123  CA         9.0430   50.4120   50.9880 C.3   336  TYR336      0.1736
    124  C         10.1780   51.3880   50.7200 C.2   336  TYR336      0.2595
    125  O         10.6680   51.4950   49.5990 O.2   336  TYR336     -0.2718
    126  CB         7.9630   50.5520   49.9180 C.3   336  TYR336      0.0548
    127  CG         6.9480   49.4460   49.9840 C.ar  336  TYR336     -0.0200
    128  CD1        7.2900   48.1510   49.6180 C.ar  336  TYR336     -0.0009
    129  CD2        5.6550   49.6890   50.4220 C.ar  336  TYR336     -0.0009
    130  CE1        6.3730   47.1320   49.6840 C.ar  336  TYR336      0.0417
    131  CE2        4.7270   48.6730   50.4890 C.ar  336  TYR336      0.0417
    132  CZ         5.0920   47.3980   50.1190 C.ar  336  TYR336      0.1957
    133  OH         4.1670   46.3840   50.1860 O.3   336  TYR336     -0.2866
    134  N         10.5940   52.1010   51.7530 N.am  337  PHE337     -0.1976
    135  CA        11.7020   53.0260   51.6200 C.3   337  PHE337      0.1639
    136  C         12.7750   52.5930   52.5870 C.2   337  PHE337      0.2290
    137  O         12.4920   52.4220   53.7680 O.2   337  PHE337     -0.2864
    138  CB        11.2330   54.4380   51.9410 C.3   337  PHE337      0.0560
    139  CG        10.2360   54.9600   50.9660 C.ar  337  PHE337     -0.0200
    140  CD1        8.8950   54.6480   51.0900 C.ar  337  PHE337     -0.0042
    141  CD2       10.6440   55.7400   49.9020 C.ar  337  PHE337     -0.0042
    142  CE1        7.9770   55.1200   50.1770 C.ar  337  PHE337     -0.0003
    143  CE2        9.7310   56.2120   48.9880 C.ar  337  PHE337     -0.0003
    144  CZ         8.3960   55.9050   49.1260 C.ar  337  PHE337     -0.0000
@<TRIPOS>BOND
     1    45    44    2
     2    44    43    1
     3    43    46    1
     4    43    42    1
     5    46    47    1
     6    48    47    1
     7    48    49    1
     8    39    38    2
     9    49    50    1
    10    42    38   am
    11    38    37    1
    12    31    30    2
    13    41    40    1
    14    37    40    1
    15    37    36    1
    16    34    33   ar
    17    30    36   am
    18    30    29    1
    19    32    33    1
    20    32    29    1
    21    33    35   ar
    22    29    28    1
    23    28    19   am
    24    57    56    1
    25    57    51    1
    26    17    18    1
    27    56    55    1
    28    51    52    1
    29    19    18    1
    30    19    20    2
    31    18    21    1
    32    68    66    1
    33    10    11    2
    34    10     9    1
    35     1     2    1
    36    80    79    1
    37    52    55    1
    38    52    53    1
    39     2     3    1
    40     2     5    1
    41     4     3    2
    42    77    79   ar
    43    77    75   ar
    44    66    67    1
    45    66    65    2
    46     3     8   am
    47     8     9    1
    48    21    22    1
    49     9    12    1
    50    79    78   ar
    51    12    13    1
    52    22    24   ar
    53    22    23   ar
    54    24    26   ar
    55    65    64    1
    56    53    58   am
    57    53    54    2
    58    75    74   ar
    59    26    27   ar
    60    23    25   ar
    61    58    59    1
    62     6     5    1
    63    16    14   am
    64    27    25   ar
    65     5     7    1
    66    13    14    1
    67    78    76   ar
    68    14    15    2
    69    64    63    1
    70    74    76   ar
    71    74    73    1
    72    59    62    1
    73    59    60    1
    74    62    63    1
    75    60    61    2
    76    73    70    1
    77    70    69    1
    78    70    71    1
    79    71    72    2
    80   104   102    1
    81    85    86    1
    82    85    82    1
    83    86    87    1
    84   103   102    1
    85   143   144   ar
    86   143   141   ar
    87   102    99    1
    88    88    87    2
    89   144   142   ar
    90    87    89   am
    91   125   124    2
    92   128   130   ar
    93   128   127   ar
    94    83    82    1
    95    83    84    2
    96   130   132   ar
    97    82    81    1
    98   141   139   ar
    99   126   127    1
   100   126   123    1
   101   127   129   ar
   102   132   133    1
   103   132   131   ar
   104   142   140   ar
   105   129   131   ar
   106   121   119   am
   107    99   100    1
   108    99    98    1
   109   124   123    1
   110   124   134   am
   111   139   140   ar
   112   139   138    1
   113   123   122    1
   114   119   120    2
   115   119   118    1
   116   100   101    2
   117    98    92   am
   118   118   115    1
   119   135   134    1
   120   135   138    1
   121   135   136    1
   122   117   116    2
   123    92    93    2
   124    92    91    1
   125    97    95   am
   126   136   137    2
   127    94    91    1
   128    94    95    1
   129    90    91    1
   130   115   116    1
   131   115   114    1
   132    95    96    2
   133   114   107   am
   134   108   107    2
   135   107   106    1
   136   109   106    1
   137   109   110    1
   138   106   105    1
   139   110   111    1
   140   111   112    1
   141   112   113    1
