@<TRIPOS>MOLECULE
tmp/4o4jD01.pdb
 129 127 0 0 0
SMALL
GASTEIGER

@<TRIPOS>ATOM
      1  N         -1.4500   -2.3170  -21.2190 N.3   291  GLN291     -0.1231
      2  CA        -1.3740   -3.7440  -20.9480 C.3   291  GLN291      0.1698
      3  C         -0.6750   -4.4900  -22.0860 C.2   291  GLN291      0.2592
      4  O          0.1740   -5.3520  -21.8520 O.2   291  GLN291     -0.2718
      5  CB        -2.7770   -4.3080  -20.7060 C.3   291  GLN291      0.0381
      6  CG        -3.4570   -3.7180  -19.4770 C.3   291  GLN291      0.0905
      7  CD        -4.8670   -4.2410  -19.2600 C.2   291  GLN291      0.2608
      8  OE1       -5.6550   -4.3620  -20.2000 O.2   291  GLN291     -0.2717
      9  NE2       -5.1910   -4.5530  -18.0100 N.am  291  GLN291     -0.0878
     10  N         -1.0280   -4.1450  -23.3200 N.am  292  GLN292     -0.1979
     11  CA        -0.4150   -4.7660  -24.4930 C.3   292  GLN292      0.1601
     12  C          1.0840   -4.4680  -24.5840 C.2   292  GLN292      0.2287
     13  O          1.8670   -5.3210  -24.9990 O.2   292  GLN292     -0.2864
     14  CB        -1.1300   -4.3260  -25.7720 C.3   292  GLN292      0.0394
     15  CG        -2.5640   -4.8520  -25.8910 C.3   292  GLN292      0.0908
     16  CD        -3.1780   -4.6060  -27.2630 C.2   292  GLN292      0.2608
     17  OE1       -2.6720   -3.8050  -28.0480 O.2   292  GLN292     -0.2717
     18  NE2       -4.2710   -5.3050  -27.5580 N.am  292  GLN292     -0.0878
     19  N          3.1630   -4.0600  -22.1830 N.3   294  PHE294     -0.1227
     20  CA         3.8730   -4.8480  -21.1830 C.3   294  PHE294      0.1736
     21  C          3.7630   -6.3500  -21.4450 C.2   294  PHE294      0.2595
     22  O          4.4320   -7.1440  -20.7850 O.2   294  PHE294     -0.2718
     23  CB         3.3670   -4.5320  -19.7710 C.3   294  PHE294      0.0547
     24  CG         4.0460   -3.3530  -19.1300 C.ar  294  PHE294     -0.0202
     25  CD1        5.3440   -3.4610  -18.6560 C.ar  294  PHE294     -0.0042
     26  CD2        3.3840   -2.1440  -18.9880 C.ar  294  PHE294     -0.0042
     27  CE1        5.9720   -2.3790  -18.0590 C.ar  294  PHE294     -0.0003
     28  CE2        4.0060   -1.0550  -18.3870 C.ar  294  PHE294     -0.0003
     29  CZ         5.3020   -1.1740  -17.9240 C.ar  294  PHE294     -0.0000
     30  N          2.9250   -6.7360  -22.4050 N.am  295  ASP295     -0.1960
     31  CA         2.7080   -8.1530  -22.6950 C.3   295  ASP295      0.1840
     32  C          3.9500   -8.8040  -23.2800 C.2   295  ASP295      0.2623
     33  O          4.5770   -8.2710  -24.1910 O.2   295  ASP295     -0.2715
     34  CB         1.5170   -8.3490  -23.6390 C.3   295  ASP295      0.1450
     35  CG         1.1520   -9.8230  -23.8410 C.2   295  ASP295      0.3671
     36  OD1        1.9450  -10.7200  -23.4800 O.co2 295  ASP295     -0.2456
     37  OD2        0.0550  -10.0870  -24.3750 O.co2 295  ASP295     -0.2456
     38  N          4.2710   -9.9810  -22.7550 N.am  296  SER296     -0.1936
     39  CA         5.3870  -10.7860  -23.2380 C.3   296  SER296      0.2055
     40  C          5.3180  -11.0450  -24.7440 C.2   296  SER296      0.2642
     41  O          6.3500  -11.1640  -25.4060 O.2   296  SER296     -0.2714
     42  CB         5.4250  -12.1180  -22.4830 C.3   296  SER296      0.2130
     43  OG         6.7240  -12.6820  -22.4920 O.3   296  SER296     -0.2179
     44  N          4.1020  -11.1270  -25.2820 N.am  297  LYS297     -0.1977
     45  CA         3.9050  -11.3800  -26.7130 C.3   297  LYS297      0.1596
     46  C          4.4000  -10.2380  -27.5930 C.2   297  LYS297      0.2287
     47  O          4.8830  -10.4690  -28.6970 O.2   297  LYS297     -0.2864
     48  CB         2.4290  -11.6320  -27.0320 C.3   297  LYS297      0.0298
     49  CG         1.8160  -12.8260  -26.3430 C.3   297  LYS297      0.0038
     50  CD         0.4830  -13.1850  -26.9940 C.3   297  LYS297      0.0206
     51  CE        -0.5090  -12.0290  -26.9540 C.3   297  LYS297      0.1093
     52  NZ        -1.0450  -11.8080  -25.5820 N.3   297  LYS297     -0.1314
     53  N          9.7810  -11.8110  -20.0070 N.3   305  PRO305     -0.2102
     54  CA        10.1150  -10.9470  -18.8740 C.3   305  PRO305      0.1504
     55  C          9.3830  -11.3390  -17.5950 C.2   305  PRO305      0.2575
     56  O          9.7600  -10.8430  -16.5310 O.2   305  PRO305     -0.2718
     57  CB         9.6740   -9.5580  -19.3450 C.3   305  PRO305      0.0282
     58  CG         8.6450   -9.8170  -20.3710 C.3   305  PRO305      0.0208
     59  CD         9.0500  -11.0810  -21.0550 C.3   305  PRO305      0.0893
     60  N          8.3750  -12.2100  -17.6790 N.am  306  ARG306     -0.1980
     61  CA         7.7370  -12.7010  -16.4580 C.3   306  ARG306      0.1597
     62  C          8.6490  -13.6900  -15.7420 C.2   306  ARG306      0.2287
     63  O          8.3360  -14.1370  -14.6380 O.2   306  ARG306     -0.2864
     64  CB         6.4000  -13.3980  -16.7140 C.3   306  ARG306      0.0334
     65  CG         5.6050  -12.9800  -17.9260 C.3   306  ARG306      0.0492
     66  CD         4.9170  -14.2290  -18.4590 C.3   306  ARG306      0.2205
     67  NE         3.7430  -13.9650  -19.2750 N.pl3 306  ARG306     -0.0865
     68  CZ         3.4930  -14.5830  -20.4220 C.cat 306  ARG306      0.5346
     69  NH1        2.3930  -14.2970  -21.1050 N.pl3 306  ARG306      0.1354
     70  NH2        4.3490  -15.4840  -20.8870 N.pl3 306  ARG306      0.1354
     71  N         12.7650   -6.3280  -14.2370 N.3   310  TYR310     -0.1241
     72  CA        13.2040   -5.1330  -14.9510 C.3   310  TYR310      0.1605
     73  C         14.1190   -4.2880  -14.0790 C.2   310  TYR310      0.2264
     74  O         13.7460   -3.8700  -12.9820 O.2   310  TYR310     -0.2867
     75  CB        12.0070   -4.2790  -15.3620 C.3   310  TYR310      0.0534
     76  CG        11.1540   -4.8750  -16.4530 C.ar  310  TYR310     -0.0201
     77  CD1       11.6390   -5.0030  -17.7490 C.ar  310  TYR310     -0.0009
     78  CD2        9.8570   -5.2910  -16.1950 C.ar  310  TYR310     -0.0009
     79  CE1       10.8600   -5.5410  -18.7520 C.ar  310  TYR310      0.0417
     80  CE2        9.0680   -5.8300  -17.1940 C.ar  310  TYR310      0.0417
     81  CZ         9.5730   -5.9510  -18.4690 C.ar  310  TYR310      0.1957
     82  OH         8.7890   -6.4880  -19.4660 O.3   310  TYR310     -0.2866
     83  N          0.1480   -0.6630  -13.2940 N.3   333  VAL333     -0.1245
     84  CA         0.9790   -1.7920  -13.7030 C.3   333  VAL333      0.1561
     85  C          2.0950   -2.0540  -12.7040 C.2   333  VAL333      0.2260
     86  O          2.3200   -3.1950  -12.3030 O.2   333  VAL333     -0.2867
     87  CB         1.6140   -1.5470  -15.0830 C.3   333  VAL333      0.0252
     88  CG1        2.6360   -2.6300  -15.3960 C.3   333  VAL333      0.0019
     89  CG2        0.5450   -1.4870  -16.1610 C.3   333  VAL333      0.0019
     90  N          0.5030   -3.3180   -9.1750 N.3   336  LYS336     -0.1231
     91  CA        -0.0880   -4.6470   -9.1920 C.3   336  LYS336      0.1693
     92  C          0.9340   -5.7100   -9.5840 C.2   336  LYS336      0.2592
     93  O          0.7220   -6.8970   -9.3510 O.2   336  LYS336     -0.2718
     94  CB        -1.2800   -4.6780  -10.1490 C.3   336  LYS336      0.0285
     95  CG        -2.5220   -3.9580   -9.6390 C.3   336  LYS336      0.0035
     96  CD        -3.5210   -3.7150  -10.7660 C.3   336  LYS336      0.0206
     97  CE        -3.7590   -4.9750  -11.5900 C.3   336  LYS336      0.1093
     98  NZ        -4.6010   -4.7110  -12.7920 N.3   336  LYS336     -0.1314
     99  N          2.0410   -5.2810  -10.1800 N.am  337  ASN337     -0.1974
    100  CA         3.0680   -6.2160  -10.6230 C.3   337  ASN337      0.1688
    101  C          4.4360   -5.8330  -10.0890 C.2   337  ASN337      0.2292
    102  O          5.4430   -5.9290  -10.7960 O.2   337  ASN337     -0.2864
    103  CB         3.1000   -6.2910  -12.1500 C.3   337  ASN337      0.1181
    104  CG         1.7510   -6.6510  -12.7480 C.2   337  ASN337      0.2629
    105  OD1        1.1270   -5.8340  -13.4220 O.2   337  ASN337     -0.2716
    106  ND2        1.3000   -7.8820  -12.5110 N.am  337  ASN337     -0.0877
    107  N          8.0130   -7.5980  -10.4150 N.3   340  TYR340     -0.1227
    108  CA         8.7740   -7.6260  -11.6660 C.3   340  TYR340      0.1736
    109  C          9.6480   -6.3900  -11.8840 C.2   340  TYR340      0.2595
    110  O         10.2030   -6.2050  -12.9660 O.2   340  TYR340     -0.2718
    111  CB         7.8460   -7.8320  -12.8670 C.3   340  TYR340      0.0548
    112  CG         7.1510   -9.1690  -12.8520 C.ar  340  TYR340     -0.0200
    113  CD1        7.8520  -10.3390  -13.1040 C.ar  340  TYR340     -0.0009
    114  CD2        5.7980   -9.2640  -12.5710 C.ar  340  TYR340     -0.0009
    115  CE1        7.2210  -11.5670  -13.0820 C.ar  340  TYR340      0.0417
    116  CE2        5.1600  -10.4870  -12.5500 C.ar  340  TYR340      0.0417
    117  CZ         5.8760  -11.6330  -12.8070 C.ar  340  TYR340      0.1957
    118  OH         5.2410  -12.8500  -12.7830 O.3   340  TYR340     -0.2866
    119  N          9.7630   -5.5540  -10.8560 N.am  341  PHE341     -0.1976
    120  CA        10.6410   -4.3920  -10.8940 C.3   341  PHE341      0.1639
    121  C         11.5280   -4.4090   -9.6530 C.2   341  PHE341      0.2290
    122  O         11.0180   -4.4070   -8.5360 O.2   341  PHE341     -0.2864
    123  CB         9.8240   -3.0950  -10.9210 C.3   341  PHE341      0.0560
    124  CG         8.8200   -3.0230  -12.0440 C.ar  341  PHE341     -0.0200
    125  CD1        7.5360   -3.5170  -11.8800 C.ar  341  PHE341     -0.0042
    126  CD2        9.1570   -2.4550  -13.2570 C.ar  341  PHE341     -0.0042
    127  CE1        6.6110   -3.4520  -12.9100 C.ar  341  PHE341     -0.0003
    128  CE2        8.2340   -2.3860  -14.2900 C.ar  341  PHE341     -0.0003
    129  CZ         6.9630   -2.8840  -14.1150 C.ar  341  PHE341     -0.0000
@<TRIPOS>BOND
     1    47    46    2
     2    17    16    2
     3    46    45    1
     4    18    16   am
     5    16    15    1
     6    48    45    1
     7    48    49    1
     8    50    51    1
     9    50    49    1
    10    51    52    1
    11    45    44    1
    12    15    14    1
    13    14    11    1
    14    41    40    2
    15    44    40   am
    16    13    12    2
    17    40    39    1
    18    12    11    1
    19    11    10    1
    20    37    35   ar
    21    33    32    2
    22    35    34    1
    23    35    36   ar
    24    34    31    1
    25    10     3   am
    26    32    38   am
    27    32    31    1
    28    39    38    1
    29    39    42    1
    30    31    30    1
    31    43    42    1
    32    30    21   am
    33    19    20    1
    34     3     4    2
    35     3     2    1
    36    21    20    1
    37    21    22    2
    38     1     2    1
    39    20    23    1
    40    69    68    1
    41    59    58    1
    42    59    53    1
    43     2     5    1
    44    70    68    1
    45     5     6    1
    46    68    67    2
    47    58    57    1
    48     8     7    2
    49    53    54    1
    50    23    24    1
    51     6     7    1
    52    82    81    1
    53    57    54    1
    54    67    66    1
    55     7     9   am
    56    24    26   ar
    57    24    25   ar
    58    26    28   ar
    59    54    55    1
    60    79    81   ar
    61    79    77   ar
    62    25    27   ar
    63    81    80   ar
    64    66    65    1
    65    28    29   ar
    66    27    29   ar
    67    65    64    1
    68    77    76   ar
    69    60    55   am
    70    60    61    1
    71    55    56    2
    72    80    78   ar
    73    64    61    1
    74    61    62    1
    75    76    78   ar
    76    76    75    1
    77    89    87    1
    78    62    63    2
    79    88    87    1
    80    75    72    1
    81    87    84    1
    82    72    71    1
    83    72    73    1
    84   128   129   ar
    85   128   126   ar
    86   129   127   ar
    87    73    74    2
    88    84    83    1
    89    84    85    1
    90   105   104    2
    91   126   124   ar
    92   113   115   ar
    93   113   112   ar
    94   115   117   ar
    95   110   109    2
    96   127   125   ar
    97   111   112    1
    98   111   108    1
    99   112   114   ar
   100   117   118    1
   101   117   116   ar
   102    98    97    1
   103   104   106   am
   104   104   103    1
   105    85    86    2
   106   114   116   ar
   107   103   100    1
   108   124   125   ar
   109   124   123    1
   110   109   108    1
   111   109   119   am
   112   108   107    1
   113    97    96    1
   114   123   120    1
   115   120   119    1
   116   120   121    1
   117   102   101    2
   118    96    95    1
   119   100    99    1
   120   100   101    1
   121    99    92   am
   122    94    95    1
   123    94    91    1
   124   121   122    2
   125    92    93    2
   126    92    91    1
   127    91    90    1
