@<TRIPOS>MOLECULE
tmp/4o4kB00.pdb
 140 140 0 0 0
SMALL
GASTEIGER

@<TRIPOS>ATOM
      1  N         27.3520  454.2830    3.4810 N.3    54  GLY54      -0.1210
      2  CA        26.9330  455.4960    2.8150 C.3    54  GLY54       0.1956
      3  C         25.8260  456.2350    3.5340 C.2    54  GLY54       0.2612
      4  O         25.5400  455.9850    4.6880 O.2    54  GLY54      -0.2717
      5  N         25.2220  457.1790    2.8390 N.am   55  ASP55      -0.1959
      6  CA        24.2720  458.0750    3.4650 C.3    55  ASP55       0.1840
      7  C         22.8380  457.5080    3.3560 C.2    55  ASP55       0.2622
      8  O         22.1580  457.7300    2.3470 O.2    55  ASP55      -0.2715
      9  CB        24.3870  459.4540    2.7960 C.3    55  ASP55       0.1450
     10  CG        25.8170  459.9630    2.7520 C.2    55  ASP55       0.3671
     11  OD1       26.3310  460.2610    1.6530 O.co2  55  ASP55      -0.2456
     12  OD2       26.4410  460.0720    3.8190 O.co2  55  ASP55      -0.2456
     13  N         22.4080  456.7570    4.3740 N.am   56  LEU56      -0.1963
     14  CA        21.0380  456.2170    4.4390 C.3    56  LEU56       0.1728
     15  C         20.0220  457.3360    4.5760 C.2    56  LEU56       0.2616
     16  O         18.8860  457.2450    4.1000 O.2    56  LEU56      -0.2715
     17  CB        20.9040  455.2150    5.5880 C.3    56  LEU56       0.0311
     18  CG        21.9190  454.0690    5.5040 C.3    56  LEU56       0.0022
     19  CD1       21.6750  453.0410    6.5760 C.3    56  LEU56       0.0001
     20  CD2       21.9100  453.4230    4.1400 C.3    56  LEU56       0.0001
     21  N         20.4350  458.4080    5.2290 N.am   57  LEU57      -0.1963
     22  CA        19.5900  459.5740    5.3350 C.3    57  LEU57       0.1728
     23  C         20.1520  460.6890    4.4890 C.2    57  LEU57       0.2616
     24  O         21.3590  460.8480    4.4090 O.2    57  LEU57      -0.2715
     25  CB        19.5130  460.0250    6.7860 C.3    57  LEU57       0.0311
     26  CG        18.8110  459.0360    7.6990 C.3    57  LEU57       0.0022
     27  CD1       18.9890  459.4570    9.1390 C.3    57  LEU57       0.0001
     28  CD2       17.3350  458.9570    7.3100 C.3    57  LEU57       0.0001
     29  N         19.2770  461.4540    3.8510 N.am   58  HIS58      -0.1959
     30  CA        19.7110  462.6090    3.0790 C.3    58  HIS58       0.1787
     31  C         20.2190  463.7660    3.9610 C.2    58  HIS58       0.2621
     32  O         21.2590  464.3570    3.6780 O.2    58  HIS58      -0.2715
     33  CB        18.5800  463.1070    2.2050 C.3    58  HIS58       0.0785
     34  CG        18.9840  464.2000    1.2690 C.ar   58  HIS58       0.0821
     35  ND1       19.9710  464.0380    0.3200 N.ar   58  HIS58      -0.2267
     36  CD2       18.5360  465.4680    1.1370 C.ar   58  HIS58       0.1154
     37  CE1       20.1090  465.1600   -0.3580 C.ar   58  HIS58       0.1986
     38  NE2       19.2530  466.0450    0.1180 N.ar   58  HIS58      -0.2212
     39  N         19.4870  464.0890    5.0270 N.am   59  SER59      -0.1936
     40  CA        19.8510  465.2290    5.8610 C.3    59  SER59       0.2055
     41  C         20.9080  464.8940    6.9150 C.2    59  SER59       0.2642
     42  O         20.6930  464.0280    7.7640 O.2    59  SER59      -0.2714
     43  CB        18.6150  465.8080    6.5460 C.3    59  SER59       0.2130
     44  OG        18.9530  466.9990    7.2320 O.3    59  SER59      -0.2179
     45  N         22.0330  465.6050    6.8670 N.am   60  ARG60      -0.1977
     46  CA        23.1330  465.4240    7.8220 C.3    60  ARG60       0.1597
     47  C         22.7400  465.7250    9.2690 C.2    60  ARG60       0.2287
     48  O         22.8460  464.8630   10.1430 O.2    60  ARG60      -0.2864
     49  CB        24.3340  466.2900    7.4300 C.3    60  ARG60       0.0334
     50  CG        25.5210  466.1670    8.3840 C.3    60  ARG60       0.0492
     51  CD        26.7660  466.8740    7.8380 C.3    60  ARG60       0.2205
     52  NE        26.6950  468.3290    7.9660 N.pl3  60  ARG60      -0.0865
     53  CZ        26.6680  468.9830    9.1290 C.cat  60  ARG60       0.5346
     54  NH1       26.6940  468.3220   10.2930 N.pl3  60  ARG60       0.1354
     55  NH2       26.6580  470.3110    9.1300 N.pl3  60  ARG60       0.1354
     56  N         13.6310  454.9600    7.7890 N.3    71  LEU71      -0.1245
     57  CA        14.9140  454.2720    8.0190 C.3    71  LEU71       0.1561
     58  C         14.7540  453.1080    8.9840 C.2    71  LEU71       0.2260
     59  O         15.1060  451.9650    8.6740 O.2    71  LEU71      -0.2867
     60  CB        15.9660  455.2400    8.5700 C.3    71  LEU71       0.0270
     61  CG        17.3560  454.6580    8.9490 C.3    71  LEU71       0.0019
     62  CD1       17.9610  453.8630    7.8120 C.3    71  LEU71       0.0001
     63  CD2       18.3230  455.7440    9.3810 C.3    71  LEU71       0.0001
     64  N         25.8870  448.1210   10.0640 N.3    86  VAL86      -0.1231
     65  CA        25.6740  449.4600    9.5560 C.3    86  VAL86       0.1692
     66  C         26.8790  450.3160    9.8290 C.2    86  VAL86       0.2592
     67  O         27.2950  450.4600   10.9810 O.2    86  VAL86      -0.2718
     68  CB        24.4650  450.1390   10.2280 C.3    86  VAL86       0.0266
     69  CG1       24.2180  451.4970    9.5820 C.3    86  VAL86       0.0020
     70  CG2       23.2400  449.2580   10.1240 C.3    86  VAL86       0.0020
     71  N         27.4580  450.8620    8.7640 N.am   87  LEU87      -0.1966
     72  CA        28.5050  451.8470    8.9110 C.3    87  LEU87       0.1713
     73  C         27.8960  453.1920    8.5870 C.2    87  LEU87       0.2458
     74  O         27.5960  453.4680    7.4400 O.2    87  LEU87      -0.2730
     75  CB        29.6780  451.5690    7.9610 C.3    87  LEU87       0.0310
     76  CG        30.7310  452.6760    7.9590 C.3    87  LEU87       0.0022
     77  CD1       31.5510  452.6070    9.2330 C.3    87  LEU87       0.0001
     78  CD2       31.6490  452.6060    6.7190 C.3    87  LEU87       0.0001
     79  N         27.7250  454.0470    9.5970 N.am   88  PRO88      -0.2716
     80  CA        27.1200  455.3620    9.3610 C.3    88  PRO88       0.1536
     81  C         28.0620  456.3390    8.6740 C.2    88  PRO88       0.2599
     82  O         29.2720  456.2240    8.8160 O.2    88  PRO88      -0.2715
     83  CB        26.8000  455.8590   10.7750 C.3    88  PRO88       0.0310
     84  CG        26.8060  454.6090   11.6400 C.3    88  PRO88       0.0237
     85  CD        27.8860  453.7620   11.0280 C.3    88  PRO88       0.0939
     86  N         27.5020  457.2970    7.9440 N.am   89  GLY89      -0.1941
     87  CA        28.3060  458.2850    7.2530 C.3    89  GLY89       0.2014
     88  C         28.8140  459.3960    8.1530 C.2    89  GLY89       0.2639
     89  O         29.5900  459.1530    9.0750 O.2    89  GLY89      -0.2714
     90  N         28.3870  460.6230    7.8720 N.am   90  ASN90      -0.1958
     91  CA        28.7710  461.7790    8.6750 C.3    90  ASN90       0.1819
     92  C         27.5510  462.3890    9.3660 C.2    90  ASN90       0.2621
     93  O         26.5200  462.6110    8.7330 O.2    90  ASN90      -0.2715
     94  CB        29.4760  462.8230    7.8020 C.3    90  ASN90       0.1195
     95  CG        29.8550  464.0680    8.5740 C.2    90  ASN90       0.2630
     96  OD1       29.9980  464.0340    9.7960 O.2    90  ASN90      -0.2716
     97  ND2       30.0150  465.1790    7.8650 N.am   90  ASN90      -0.0877
     98  N         27.6730  462.6660   10.6620 N.am   91  HIS91      -0.1973
     99  CA        26.5190  463.0660   11.4610 C.3    91  HIS91       0.1656
    100  C         26.7780  464.1270   12.5220 C.2    91  HIS91       0.2291
    101  O         27.6870  464.0140   13.3460 O.2    91  HIS91      -0.2864
    102  CB        25.9100  461.8430   12.1360 C.3    91  HIS91       0.0771
    103  CG        25.3160  460.8660   11.1790 C.ar   91  HIS91       0.0820
    104  ND1       23.9790  460.8700   10.8670 N.ar   91  HIS91      -0.2267
    105  CD2       25.8740  459.8570   10.4700 C.ar   91  HIS91       0.1154
    106  CE1       23.7310  459.8990   10.0080 C.ar   91  HIS91       0.1986
    107  NE2       24.8650  459.2700    9.7500 N.ar   91  HIS91      -0.2212
    108  N         24.1680  465.0810   14.7350 N.3    93  TRP93      -0.1241
    109  CA        23.4020  464.6310   15.9050 C.3    93  TRP93       0.1605
    110  C         24.1380  463.6690   16.8560 C.2    93  TRP93       0.2264
    111  O         24.3580  462.4970   16.5440 O.2    93  TRP93      -0.2867
    112  CB        21.9990  464.1050   15.5210 C.3    93  TRP93       0.0550
    113  CG        21.8630  463.3610   14.1910 C.ar   93  TRP93       0.0003
    114  CD1       22.4400  463.6800   12.9890 C.ar   93  TRP93       0.0946
    115  CD2       21.0690  462.1910   13.9480 C.ar   93  TRP93       0.0152
    116  NE1       22.0660  462.7740   12.0260 N.ar   93  TRP93      -0.2442
    117  CE2       21.2260  461.8500   12.5900 C.ar   93  TRP93       0.0810
    118  CE3       20.2490  461.3920   14.7520 C.ar   93  TRP93       0.0012
    119  CZ2       20.5960  460.7480   12.0210 C.ar   93  TRP93       0.0191
    120  CZ3       19.6220  460.3000   14.1820 C.ar   93  TRP93       0.0001
    121  CH2       19.8000  459.9880   12.8330 C.ar   93  TRP93       0.0015
    122  N         23.1580  459.9320   17.9680 N.3    96  LEU96      -0.1245
    123  CA        23.3540  458.7680   17.1010 C.3    96  LEU96       0.1561
    124  C         24.3410  457.7130   17.6130 C.2    96  LEU96       0.2260
    125  O         24.0880  456.5160   17.4770 O.2    96  LEU96      -0.2867
    126  CB        23.7230  459.2070   15.6830 C.3    96  LEU96       0.0270
    127  CG        23.6310  458.1210   14.6100 C.3    96  LEU96       0.0019
    128  CD1       22.3990  457.2510   14.8090 C.3    96  LEU96       0.0001
    129  CD2       23.5840  458.7680   13.2530 C.3    96  LEU96       0.0001
    130  N         25.8150  448.5190   14.8200 N.3   112  PHE112     -0.1241
    131  CA        26.2280  449.7930   14.2940 C.3   112  PHE112      0.1605
    132  C         27.7360  449.9500   14.5810 C.2   112  PHE112      0.2264
    133  O         28.1580  449.9290   15.7310 O.2   112  PHE112     -0.2867
    134  CB        25.4420  450.9130   14.9420 C.3   112  PHE112      0.0534
    135  CG        24.0300  451.0640   14.4200 C.ar  112  PHE112     -0.0203
    136  CD1       23.0140  450.2500   14.8830 C.ar  112  PHE112     -0.0042
    137  CD2       23.7210  452.0510   13.5030 C.ar  112  PHE112     -0.0042
    138  CE1       21.7040  450.4020   14.4270 C.ar  112  PHE112     -0.0003
    139  CE2       22.4330  452.2070   13.0370 C.ar  112  PHE112     -0.0003
    140  CZ        21.4180  451.3820   13.5050 C.ar  112  PHE112     -0.0000
@<TRIPOS>BOND
     1    37    38   ar
     2    37    35   ar
     3    38    36   ar
     4    35    34   ar
     5    36    34   ar
     6    34    33    1
     7    11    10   ar
     8    33    30    1
     9     8     7    2
    10    10     9    1
    11    10    12   ar
    12     9     6    1
    13     2     1    1
    14     2     3    1
    15     5     6    1
    16     5     3   am
    17    30    29    1
    18    30    31    1
    19     7     6    1
    20     7    13   am
    21     3     4    2
    22    32    31    2
    23    29    23   am
    24    31    39   am
    25    16    15    2
    26    20    18    1
    27    13    14    1
    28    24    23    2
    29    14    15    1
    30    14    17    1
    31    23    22    1
    32    15    21   am
    33    39    40    1
    34    21    22    1
    35    22    25    1
    36    18    17    1
    37    18    19    1
    38    40    43    1
    39    40    41    1
    40    43    44    1
    41    78    76    1
    42    25    26    1
    43    45    41   am
    44    45    46    1
    45    41    42    2
    46    87    86    1
    47    87    88    1
    48    28    26    1
    49    49    46    1
    50    49    50    1
    51    74    73    2
    52    26    27    1
    53    56    57    1
    54    94    95    1
    55    94    91    1
    56    62    61    1
    57    46    47    1
    58    51    52    1
    59    51    50    1
    60    97    95   am
    61    90    88   am
    62    90    91    1
    63    86    81   am
    64    76    75    1
    65    76    77    1
    66    75    72    1
    67    52    53    2
    68    57    60    1
    69    57    58    1
    70    88    89    2
    71    60    61    1
    72    95    96    2
    73    73    72    1
    74    73    79   am
    75    59    58    2
    76    81    82    2
    77    81    80    1
    78    91    92    1
    79    93    92    2
    80    71    72    1
    81    71    66   am
    82    61    63    1
    83    53    55    1
    84    53    54    1
    85    47    48    2
    86    80    79    1
    87    80    83    1
    88    92    98   am
    89    65    66    1
    90    65    64    1
    91    65    68    1
    92    69    68    1
    93    79    85    1
    94   107   106   ar
    95   107   105   ar
    96    66    67    2
    97   106   104   ar
    98    70    68    1
    99   105   103   ar
   100    98    99    1
   101    83    84    1
   102   104   103   ar
   103    85    84    1
   104   103   102    1
   105    99   102    1
   106    99   100    1
   107   119   117   ar
   108   119   121   ar
   109   116   117   ar
   110   116   114   ar
   111   100   101    2
   112   117   115   ar
   113   121   120   ar
   114   114   113   ar
   115   139   137   ar
   116   139   140   ar
   117   129   127    1
   118   137   135   ar
   119   140   138   ar
   120   115   113   ar
   121   115   118   ar
   122   120   118   ar
   123   113   112    1
   124   131   132    1
   125   131   130    1
   126   131   134    1
   127   135   136   ar
   128   135   134    1
   129   138   136   ar
   130   132   133    2
   131   127   128    1
   132   127   126    1
   133   108   109    1
   134   112   109    1
   135   126   123    1
   136   109   110    1
   137   111   110    2
   138   123   124    1
   139   123   122    1
   140   125   124    2
