@<TRIPOS>MOLECULE
tmp/4o4qA01.pdb
 132 127 0 0 0
SMALL
GASTEIGER

@<TRIPOS>ATOM
      1  N        -21.7550  -19.4500  -14.0570 N.3    69  VAL69      -0.1231
      2  CA       -21.3650  -18.1300  -14.5910 C.3    69  VAL69       0.1692
      3  C        -19.9540  -17.7000  -14.1640 C.2    69  VAL69       0.2592
      4  O        -19.6470  -16.5000  -14.0880 O.2    69  VAL69      -0.2718
      5  CB       -22.3850  -17.0140  -14.2470 C.3    69  VAL69       0.0266
      6  CG1      -22.4740  -16.0230  -15.3980 C.3    69  VAL69       0.0020
      7  CG2      -23.7710  -17.5890  -13.9650 C.3    69  VAL69       0.0020
      8  N        -19.0960  -18.6780  -13.8970 N.am   70  TYR70      -0.1962
      9  CA       -17.7230  -18.3840  -13.5390 C.3    70  TYR70       0.1771
     10  C        -16.8840  -18.2540  -14.8000 C.2    70  TYR70       0.2619
     11  O        -16.9360  -19.1010  -15.6900 O.2    70  TYR70      -0.2715
     12  CB       -17.1240  -19.4710  -12.6460 C.3    70  TYR70       0.0574
     13  CG       -17.7350  -19.6640  -11.2640 C.ar   70  TYR70      -0.0198
     14  CD1      -17.4400  -20.8070  -10.5210 C.ar   70  TYR70      -0.0009
     15  CD2      -18.6050  -18.7350  -10.7040 C.ar   70  TYR70      -0.0009
     16  CE1      -17.9880  -21.0150   -9.2650 C.ar   70  TYR70       0.0417
     17  CE2      -19.1590  -18.9320   -9.4450 C.ar   70  TYR70       0.0417
     18  CZ       -18.8490  -20.0760   -8.7320 C.ar   70  TYR70       0.1957
     19  OH       -19.3860  -20.2890   -7.4810 O.3    70  TYR70      -0.2866
     20  N        -16.1340  -17.1660  -14.8870 N.am   71  ILE71      -0.1963
     21  CA       -15.1760  -16.9760  -15.9660 C.3    71  ILE71       0.1727
     22  C        -13.9960  -17.9270  -15.7760 C.2    71  ILE71       0.2616
     23  O        -13.3790  -17.9410  -14.7210 O.2    71  ILE71      -0.2715
     24  CB       -14.6850  -15.5140  -16.0090 C.3    71  ILE71       0.0290
     25  CG1      -15.8530  -14.5980  -16.4110 C.3    71  ILE71       0.0022
     26  CG2      -13.5060  -15.3750  -16.9650 C.3    71  ILE71       0.0023
     27  CD1      -15.5280  -13.1200  -16.4000 C.3    71  ILE71       0.0001
     28  N        -13.6920  -18.7180  -16.7990 N.am   72  MET72      -0.1977
     29  CA       -12.6010  -19.6990  -16.7260 C.3    72  MET72       0.1605
     30  C        -11.2810  -19.1580  -17.2750 C.2    72  MET72       0.2287
     31  O        -10.2020  -19.5150  -16.8020 O.2    72  MET72      -0.2864
     32  CB       -12.9810  -20.9530  -17.5110 C.3    72  MET72       0.0413
     33  CG       -14.1360  -21.7410  -16.9130 C.3    72  MET72       0.0598
     34  SD       -13.7230  -22.4930  -15.3310 S.3    72  MET72      -0.1393
     35  CE       -14.4260  -21.3430  -14.1590 C.3    72  MET72       0.0692
     36  N         -7.3450  -19.1920  -15.4080 N.3    83  PHE83      -0.1241
     37  CA        -7.1080  -19.1230  -13.9750 C.3    83  PHE83       0.1605
     38  C         -6.3970  -20.3790  -13.5010 C.2    83  PHE83       0.2264
     39  O         -6.5410  -21.4530  -14.0920 O.2    83  PHE83      -0.2867
     40  CB        -8.4150  -18.9550  -13.2000 C.3    83  PHE83       0.0534
     41  CG        -9.0020  -17.5770  -13.2950 C.ar   83  PHE83      -0.0203
     42  CD1       -8.2990  -16.4790  -12.8170 C.ar   83  PHE83      -0.0042
     43  CD2      -10.2600  -17.3760  -13.8490 C.ar   83  PHE83      -0.0042
     44  CE1       -8.8360  -15.2050  -12.8980 C.ar   83  PHE83      -0.0003
     45  CE2      -10.8090  -16.1060  -13.9210 C.ar   83  PHE83      -0.0003
     46  CZ       -10.0940  -15.0180  -13.4490 C.ar   83  PHE83      -0.0000
     47  N         -6.6480  -22.8890  -11.4580 N.3    85  GLU85      -0.1245
     48  CA        -7.5580  -23.7360  -10.6910 C.3    85  GLU85       0.1567
     49  C         -8.0900  -24.8930  -11.5300 C.2    85  GLU85       0.2260
     50  O         -8.1580  -24.7980  -12.7100 O.2    85  GLU85      -0.2867
     51  CB        -8.7000  -22.9290  -10.1200 C.3    85  GLU85       0.0388
     52  CG        -9.5100  -22.2660  -11.1850 C.3    85  GLU85       0.1160
     53  CD       -10.6400  -21.4870  -10.6210 C.2    85  GLU85       0.3649
     54  OE1      -11.6370  -22.1210  -10.3100 O.co2  85  GLU85      -0.2457
     55  OE2      -10.5260  -20.3060  -10.4340 O.co2  85  GLU85      -0.2457
     56  N        -10.9520  -26.2130  -12.3470 N.3    87  ALA87      -0.1245
     57  CA       -12.0730  -25.9670  -13.2590 C.3    87  ALA87       0.1562
     58  C        -11.6340  -25.2560  -14.5440 C.2    87  ALA87       0.2260
     59  O        -12.1650  -25.5220  -15.6200 O.2    87  ALA87      -0.2867
     60  CB       -13.1620  -25.1710  -12.5600 C.3    87  ALA87       0.0290
     61  N         -6.0920  -18.0520   -8.8350 N.3   108  SER108     -0.1202
     62  CA        -7.4230  -18.5720   -9.1400 C.3   108  SER108      0.2020
     63  C         -8.3780  -17.4080   -9.3890 C.2   108  SER108      0.2619
     64  O         -8.0000  -16.2420   -9.2400 O.2   108  SER108     -0.2717
     65  CB        -7.9400  -19.4090   -7.9770 C.3   108  SER108      0.2103
     66  OG        -8.1470  -18.5950   -6.8400 O.3   108  SER108     -0.2182
     67  N         -9.6180  -17.7260   -9.7520 N.am  109  GLY109     -0.1942
     68  CA       -10.5920  -16.7040  -10.1290 C.3   109  GLY109      0.2014
     69  C        -11.4830  -16.1760   -9.0190 C.2   109  GLY109      0.2639
     70  O        -12.3720  -15.3680   -9.2730 O.2   109  GLY109     -0.2714
     71  N        -11.2630  -16.6030   -7.7840 N.am  110  ASN110     -0.1958
     72  CA       -12.1080  -16.1160   -6.7020 C.3   110  ASN110      0.1819
     73  C        -11.6910  -14.7150   -6.2550 C.2   110  ASN110      0.2621
     74  O        -10.5500  -14.2860   -6.4680 O.2   110  ASN110     -0.2715
     75  CB       -12.1450  -17.0990   -5.5360 C.3   110  ASN110      0.1195
     76  CG       -10.8330  -17.1780   -4.8000 C.2   110  ASN110      0.2630
     77  OD1      -10.5560  -16.3720   -3.9120 O.2   110  ASN110     -0.2716
     78  ND2      -10.0210  -18.1660   -5.1520 N.am  110  ASN110     -0.0877
     79  N        -12.6280  -14.0160   -5.6260 N.am  111  TYR111     -0.1960
     80  CA       -12.4960  -12.5850   -5.3690 C.3   111  TYR111      0.1771
     81  C        -11.3390  -12.3410   -4.4240 C.2   111  TYR111      0.2619
     82  O        -10.5610  -11.4120   -4.6160 O.2   111  TYR111     -0.2715
     83  CB       -13.7790  -11.9870   -4.7620 C.3   111  TYR111      0.0574
     84  CG       -14.8650  -11.5960   -5.7630 C.ar  111  TYR111     -0.0198
     85  CD1      -14.5540  -10.9550   -6.9560 C.ar  111  TYR111     -0.0009
     86  CD2      -16.2150  -11.8460   -5.4920 C.ar  111  TYR111     -0.0009
     87  CE1      -15.5440  -10.5890   -7.8570 C.ar  111  TYR111      0.0417
     88  CE2      -17.2090  -11.4890   -6.3920 C.ar  111  TYR111      0.0417
     89  CZ       -16.8700  -10.8580   -7.5700 C.ar  111  TYR111      0.1957
     90  OH       -17.8530  -10.4910   -8.4660 O.3   111  TYR111     -0.2866
     91  N        -11.2300  -13.1870   -3.4070 N.am  112  GLU112     -0.1977
     92  CA       -10.1730  -13.0520   -2.4170 C.3   112  GLU112      0.1602
     93  C         -8.7950  -13.0540   -3.0880 C.2   112  GLU112      0.2287
     94  O         -8.0080  -12.1330   -2.8820 O.2   112  GLU112     -0.2864
     95  CB       -10.2920  -14.1610   -1.3650 C.3   112  GLU112      0.0415
     96  CG        -9.1470  -14.2350   -0.3670 C.3   112  GLU112      0.1163
     97  CD        -9.3690  -15.3090    0.6830 C.2   112  GLU112      0.3649
     98  OE1      -10.3680  -15.2100    1.4320 O.co2 112  GLU112     -0.2457
     99  OE2       -8.5450  -16.2490    0.7650 O.co2 112  GLU112     -0.2457
    100  N        -15.5750   -9.4590  -14.2990 N.3   155  ILE155     -0.1245
    101  CA       -16.4850  -10.3840  -13.6190 C.3   155  ILE155      0.1561
    102  C        -17.7600   -9.6710  -13.1690 C.2   155  ILE155      0.2260
    103  O        -18.8750  -10.1690  -13.3750 O.2   155  ILE155     -0.2867
    104  CB       -15.7830  -11.0360  -12.4150 C.3   155  ILE155      0.0252
    105  CG1      -14.7770  -12.0810  -12.9170 C.3   155  ILE155      0.0019
    106  CG2      -16.7960  -11.6340  -11.4500 C.3   155  ILE155      0.0019
    107  CD1      -13.7550  -12.5060  -11.8860 C.3   155  ILE155      0.0001
    108  N        -20.7410  -11.3780  -15.3800 N.3   159  ALA159     -0.1231
    109  CA       -21.4210  -12.3780  -14.5990 C.3   159  ALA159      0.1694
    110  C        -22.3430  -11.7910  -13.5330 C.2   159  ALA159      0.2591
    111  O        -23.4640  -12.1690  -13.4410 O.2   159  ALA159     -0.2718
    112  CB       -20.4330  -13.3390  -13.9820 C.3   159  ALA159      0.0304
    113  N        -21.8450  -10.8720  -12.7310 N.am  160  GLU160     -0.1979
    114  CA       -22.6170  -10.4030  -11.5840 C.3   160  GLU160      0.1602
    115  C        -23.8550   -9.6430  -12.0480 C.2   160  GLU160      0.2287
    116  O        -24.9240   -9.8010  -11.4640 O.2   160  GLU160     -0.2864
    117  CB       -21.7730   -9.5580  -10.6180 C.3   160  GLU160      0.0415
    118  CG       -20.5580  -10.2780  -10.0370 C.3   160  GLU160      0.1163
    119  CD       -20.8960  -11.3730   -9.0280 C.2   160  GLU160      0.3649
    120  OE1      -22.0650  -11.8100   -8.9550 O.co2 160  GLU160     -0.2457
    121  OE2      -19.9850  -11.8060   -8.2900 O.co2 160  GLU160     -0.2457
    122  N        -26.5050  -12.0820  -13.0810 N.3   163  ARG163     -0.1245
    123  CA       -27.1100  -12.7050  -11.9320 C.3   163  ARG163      0.1563
    124  C        -28.0830  -11.8210  -11.1730 C.2   163  ARG163      0.2260
    125  O        -28.9650  -12.3420  -10.5880 O.2   163  ARG163     -0.2867
    126  CB       -26.1030  -13.1930  -10.9480 C.3   163  ARG163      0.0307
    127  CG       -25.1190  -14.2140  -11.4670 C.3   163  ARG163      0.0489
    128  CD       -23.9680  -14.3940  -10.5280 C.3   163  ARG163      0.2205
    129  NE       -23.1650  -15.5670  -10.8200 N.pl3 163  ARG163     -0.0865
    130  CZ       -21.8790  -15.6380  -10.5750 C.cat 163  ARG163      0.5346
    131  NH1      -21.2870  -14.5950  -10.0560 N.pl3 163  ARG163      0.1354
    132  NH2      -21.1730  -16.6980  -10.8370 N.pl3 163  ARG163      0.1354
@<TRIPOS>BOND
     1    32    33    1
     2    32    29    1
     3    30    31    2
     4    30    29    1
     5    26    24    1
     6    33    34    1
     7    28    29    1
     8    28    22   am
     9    25    27    1
    10    25    24    1
    11    24    21    1
    12    21    22    1
    13    21    20    1
    14    22    23    2
    15    11    10    2
    16    59    58    2
    17    36    37    1
    18     6     5    1
    19   108   109    1
    20    34    35    1
    21    20    10   am
    22    10     9    1
    23   109   112    1
    24   109   110    1
    25     2     5    1
    26     2     3    1
    27     2     1    1
    28    58    57    1
    29   100   101    1
    30     5     7    1
    31     3     4    2
    32     3     8   am
    33    39    38    2
    34    37    38    1
    35    37    40    1
    36    45    43   ar
    37    45    46   ar
    38     8     9    1
    39    43    41   ar
    40   101   102    1
    41   101   104    1
    42     9    12    1
    43   110   111    2
    44   110   113   am
    45    46    44   ar
    46   103   102    2
    47    41    40    1
    48    41    42   ar
    49    57    60    1
    50    57    56    1
    51   122   123    1
    52   105   104    1
    53   105   107    1
    54    44    42   ar
    55   113   114    1
    56    50    49    2
    57    12    13    1
    58   104   106    1
    59   115   114    1
    60   115   116    2
    61   123   124    1
    62   123   126    1
    63   114   117    1
    64    49    48    1
    65   127   126    1
    66   127   128    1
    67    47    48    1
    68    13    15   ar
    69    13    14   ar
    70    52    53    1
    71    52    51    1
    72   124   125    2
    73   132   130    1
    74   129   130    2
    75   129   128    1
    76    15    17   ar
    77    48    51    1
    78    53    55   ar
    79    53    54   ar
    80   117   118    1
    81   130   131    1
    82    14    16   ar
    83    68    67    1
    84    68    69    1
    85   118   119    1
    86    67    63   am
    87    17    18   ar
    88    63    64    2
    89    63    62    1
    90    70    69    2
    91    16    18   ar
    92    62    61    1
    93    62    65    1
    94   119   120   ar
    95   119   121   ar
    96    69    71   am
    97    18    19    1
    98    90    89    1
    99    65    66    1
   100    87    89   ar
   101    87    85   ar
   102    71    72    1
   103    89    88   ar
   104    85    84   ar
   105    72    73    1
   106    72    75    1
   107    74    73    2
   108    88    86   ar
   109    73    79   am
   110    84    86   ar
   111    84    83    1
   112    79    80    1
   113    75    76    1
   114    80    83    1
   115    80    81    1
   116    78    76   am
   117    76    77    2
   118    82    81    2
   119    81    91   am
   120    91    92    1
   121    93    94    2
   122    93    92    1
   123    92    95    1
   124    95    96    1
   125    96    97    1
   126    97    99   ar
   127    97    98   ar
