@<TRIPOS>MOLECULE
tmp/4o4rC01.pdb
 171 164 0 0 0
SMALL
GASTEIGER

@<TRIPOS>ATOM
      1  N         40.2810  -59.6770   85.8040 N.3    24  MET24      -0.1230
      2  CA        41.0250  -60.5020   84.8560 C.3    24  MET24       0.1702
      3  C         42.3850  -59.9200   84.4810 C.2    24  MET24       0.2592
      4  O         43.1260  -60.5560   83.7410 O.2    24  MET24      -0.2718
      5  CB        40.2120  -60.7210   83.5750 C.3    24  MET24       0.0401
      6  CG        40.0310  -59.4720   82.7090 C.3    24  MET24       0.0596
      7  SD        38.8930  -59.6810   81.3180 S.3    24  MET24      -0.1393
      8  CE        37.3510  -60.0330   82.1640 C.3    24  MET24       0.0692
      9  N         42.7210  -58.7180   84.9350 N.am   25  PHE25      -0.1976
     10  CA        43.9850  -58.1130   84.4840 C.3    25  PHE25       0.1639
     11  C         45.1560  -58.4740   85.3680 C.2    25  PHE25       0.2290
     12  O         45.0410  -58.4750   86.5950 O.2    25  PHE25      -0.2864
     13  CB        43.8830  -56.5870   84.3870 C.3    25  PHE25       0.0560
     14  CG        42.8540  -56.1110   83.4090 C.ar   25  PHE25      -0.0200
     15  CD1       43.1480  -56.0200   82.0530 C.ar   25  PHE25      -0.0042
     16  CD2       41.5910  -55.7490   83.8460 C.ar   25  PHE25      -0.0042
     17  CE1       42.1800  -55.5930   81.1550 C.ar   25  PHE25      -0.0003
     18  CE2       40.6250  -55.3120   82.9610 C.ar   25  PHE25      -0.0003
     19  CZ        40.9160  -55.2430   81.6120 C.ar   25  PHE25      -0.0000
     20  N         31.3650  -53.5020   85.3230 N.3   162  LYS162     -0.1231
     21  CA        32.3750  -53.8860   84.3600 C.3   162  LYS162      0.1693
     22  C         33.7610  -53.8860   84.9760 C.2   162  LYS162      0.2592
     23  O         34.1640  -52.9190   85.6070 O.2   162  LYS162     -0.2718
     24  CB        32.3380  -52.9620   83.1410 C.3   162  LYS162      0.0285
     25  CG        33.1780  -53.4440   81.9660 C.3   162  LYS162      0.0035
     26  CD        33.0250  -52.5320   80.7550 C.3   162  LYS162      0.0206
     27  CE        34.0740  -52.8110   79.6820 C.3   162  LYS162      0.1093
     28  NZ        33.7070  -53.9820   78.8410 N.3   162  LYS162     -0.1314
     29  N         34.4710  -54.9900   84.7550 N.am  163  ASP163     -0.1960
     30  CA        35.8740  -55.1410   85.1090 C.3   163  ASP163      0.1840
     31  C         36.7160  -54.6340   83.9640 C.2   163  ASP163      0.2622
     32  O         36.8380  -55.3030   82.9370 O.2   163  ASP163     -0.2715
     33  CB        36.1580  -56.6310   85.3480 C.3   163  ASP163      0.1450
     34  CG        37.6170  -56.9240   85.6010 C.2   163  ASP163      0.3671
     35  OD1       38.3280  -56.0430   86.1300 O.co2 163  ASP163     -0.2456
     36  OD2       38.0460  -58.0540   85.2740 O.co2 163  ASP163     -0.2456
     37  N         37.2960  -53.4520   84.1070 N.am  164  GLU164     -0.1963
     38  CA        38.0940  -52.8770   83.0060 C.3   164  GLU164      0.1733
     39  C         39.1710  -51.9930   83.5680 C.2   164  GLU164      0.2616
     40  O         39.1330  -51.6630   84.7550 O.2   164  GLU164     -0.2715
     41  CB        37.1980  -52.0780   82.0440 C.3   164  GLU164      0.0429
     42  CG        36.8310  -50.6690   82.5020 C.3   164  GLU164      0.1163
     43  CD        35.5470  -50.1540   81.8720 C.2   164  GLU164      0.3649
     44  OE1       35.4490  -50.1330   80.6300 O.co2 164  GLU164     -0.2457
     45  OE2       34.6310  -49.7680   82.6190 O.co2 164  GLU164     -0.2457
     46  N         40.1320  -51.6040   82.7400 N.am  165  LEU165     -0.1977
     47  CA        41.0970  -50.6000   83.1800 C.3   165  LEU165      0.1596
     48  C         40.3970  -49.2460   83.3060 C.2   165  LEU165      0.2287
     49  O         39.5270  -48.8920   82.4970 O.2   165  LEU165     -0.2864
     50  CB        42.2870  -50.5040   82.2370 C.3   165  LEU165      0.0297
     51  CG        43.4530  -51.4340   82.5620 C.3   165  LEU165      0.0022
     52  CD1       42.9920  -52.7430   83.1670 C.3   165  LEU165      0.0001
     53  CD2       44.3010  -51.6930   81.3330 C.3   165  LEU165      0.0001
     54  N         29.5110  -50.1370   63.2440 N.3   213  VAL213     -0.1245
     55  CA        29.8140  -51.3310   64.0170 C.3   213  VAL213      0.1561
     56  C         30.0620  -52.5040   63.0890 C.2   213  VAL213      0.2260
     57  O         29.3390  -52.6980   62.1220 O.2   213  VAL213     -0.2867
     58  CB        28.7220  -51.6920   65.0310 C.3   213  VAL213      0.0252
     59  CG1       29.1800  -52.8700   65.8850 C.3   213  VAL213      0.0019
     60  CG2       28.4210  -50.5020   65.9260 C.3   213  VAL213      0.0019
     61  N         24.4150  -52.2450   70.5700 N.3   302  THR302     -0.1218
     62  CA        25.3030  -51.2470   69.9300 C.3   302  THR302      0.1862
     63  C         24.6580  -50.6410   68.6640 C.2   302  THR302      0.2287
     64  O         24.8710  -49.4760   68.3580 O.2   302  THR302     -0.2866
     65  CB        26.7250  -51.7800   69.5980 C.3   302  THR302      0.1770
     66  OG1       27.3300  -52.3320   70.7680 O.3   302  THR302     -0.2211
     67  CG2       27.6310  -50.6640   69.1760 C.3   302  THR302      0.0375
     68  N         29.2060  -45.0020   66.4570 N.3   337  TYR337     -0.1241
     69  CA        29.5780  -46.2900   67.0100 C.3   337  TYR337      0.1605
     70  C         29.1810  -46.2580   68.4780 C.2   337  TYR337      0.2264
     71  O         29.9890  -45.8870   69.3340 O.2   337  TYR337     -0.2867
     72  CB        31.0890  -46.5050   66.8510 C.3   337  TYR337      0.0534
     73  CG        31.5790  -47.9210   66.9820 C.ar  337  TYR337     -0.0201
     74  CD1       31.2440  -48.7080   68.0760 C.ar  337  TYR337     -0.0009
     75  CD2       32.4290  -48.4710   66.0180 C.ar  337  TYR337     -0.0009
     76  CE1       31.7140  -50.0100   68.1940 C.ar  337  TYR337      0.0417
     77  CE2       32.9090  -49.7700   66.1290 C.ar  337  TYR337      0.0417
     78  CZ        32.5450  -50.5350   67.2180 C.ar  337  TYR337      0.1957
     79  OH        33.0120  -51.8180   67.3490 O.3   337  TYR337     -0.2866
     80  N         36.8610  -43.6890   68.3290 N.3   382  LEU382     -0.1231
     81  CA        37.1080  -44.7500   69.2850 C.3   382  LEU382      0.1693
     82  C         38.4060  -44.3440   69.9660 C.2   382  LEU382      0.2591
     83  O         38.5180  -43.1940   70.3650 O.2   382  LEU382     -0.2718
     84  CB        37.1580  -46.1290   68.5980 C.3   382  LEU382      0.0284
     85  CG        35.9280  -46.4300   67.7350 C.3   382  LEU382      0.0019
     86  CD1       36.0850  -47.7410   66.9750 C.3   382  LEU382      0.0001
     87  CD2       34.6620  -46.4600   68.5830 C.3   382  LEU382      0.0001
     88  N         39.3870  -45.2390   70.0700 N.am  383  ARG383     -0.1980
     89  CA        40.6560  -44.8970   70.7220 C.3   383  ARG383      0.1597
     90  C         41.7430  -44.4420   69.7580 C.2   383  ARG383      0.2287
     91  O         42.9080  -44.3470   70.1470 O.2   383  ARG383     -0.2864
     92  CB        41.1490  -46.0810   71.5480 C.3   383  ARG383      0.0334
     93  CG        40.1440  -46.4700   72.6210 C.3   383  ARG383      0.0492
     94  CD        40.6540  -47.6280   73.4410 C.3   383  ARG383      0.2205
     95  NE        39.6220  -48.1120   74.3420 N.pl3 383  ARG383     -0.0865
     96  CZ        38.6080  -48.8970   73.9880 C.cat 383  ARG383      0.5346
     97  NH1       38.4620  -49.3090   72.7300 N.pl3 383  ARG383      0.1354
     98  NH2       37.7230  -49.2700   74.9030 N.pl3 383  ARG383      0.1354
     99  N         46.4450  -45.5420   66.8870 N.3   397  LEU397     -0.1245
    100  CA        46.1460  -45.7630   68.3040 C.3   397  LEU397      0.1561
    101  C         47.0400  -44.8640   69.1750 C.2   397  LEU397      0.2260
    102  O         48.2560  -44.8040   68.9530 O.2   397  LEU397     -0.2867
    103  CB        46.3510  -47.2440   68.6410 C.3   397  LEU397      0.0270
    104  CG        45.8840  -47.7540   70.0010 C.3   397  LEU397      0.0019
    105  CD1       44.3780  -47.6870   70.1270 C.3   397  LEU397      0.0001
    106  CD2       46.3740  -49.1780   70.2070 C.3   397  LEU397      0.0001
    107  N         47.2140  -45.7630   75.0710 N.3   401  SER401     -0.1217
    108  CA        46.6960  -47.1170   74.9390 C.3   401  SER401      0.1889
    109  C         47.7900  -48.1300   74.6120 C.2   401  SER401      0.2288
    110  O         47.7180  -49.2790   75.0520 O.2   401  SER401     -0.2866
    111  CB        45.5940  -47.1780   73.8800 C.3   401  SER401      0.2089
    112  OG        44.3490  -46.7650   74.4130 O.3   401  SER401     -0.2183
    113  N         49.4740  -48.8060   77.9480 N.3   404  ARG404     -0.1231
    114  CA        48.5670  -49.6020   78.7570 C.3   404  ARG404      0.1694
    115  C         48.5640  -51.1000   78.4310 C.2   404  ARG404      0.2591
    116  O         48.2370  -51.9130   79.2930 O.2   404  ARG404     -0.2718
    117  CB        47.1470  -49.0740   78.6130 C.3   404  ARG404      0.0321
    118  CG        46.7120  -48.1410   79.7180 C.3   404  ARG404      0.0489
    119  CD        45.2300  -47.8300   79.5980 C.3   404  ARG404      0.2205
    120  NE        44.9790  -46.5840   78.8730 N.pl3 404  ARG404     -0.0865
    121  CZ        43.8430  -46.2890   78.2370 C.cat 404  ARG404      0.5346
    122  NH1       42.8260  -47.1510   78.2060 N.pl3 404  ARG404      0.1354
    123  NH2       43.7250  -45.1230   77.6120 N.pl3 404  ARG404      0.1354
    124  N         48.9000  -51.4590   77.1950 N.am  405  GLN405     -0.1979
    125  CA        48.9450  -52.8590   76.7830 C.3   405  GLN405      0.1601
    126  C         50.2760  -53.4780   77.0980 C.2   405  GLN405      0.2287
    127  O         50.3720  -54.6960   77.2710 O.2   405  GLN405     -0.2864
    128  CB        48.6660  -52.9900   75.2880 C.3   405  GLN405      0.0394
    129  CG        47.2100  -52.7590   74.9440 C.3   405  GLN405      0.0908
    130  CD        46.9010  -53.0720   73.5030 C.2   405  GLN405      0.2608
    131  OE1       47.4920  -53.9820   72.9220 O.2   405  GLN405     -0.2717
    132  NE2       45.9640  -52.3200   72.9130 N.am  405  GLN405     -0.0878
    133  N         49.6550  -54.0450   81.2590 N.3   408  TRP408     -0.1227
    134  CA        48.6410  -55.0130   81.6380 C.3   408  TRP408      0.1737
    135  C         48.4430  -56.1290   80.6050 C.2   408  TRP408      0.2596
    136  O         48.8620  -56.0290   79.4500 O.2   408  TRP408     -0.2718
    137  CB        47.3110  -54.3120   81.8380 C.3   408  TRP408      0.0564
    138  CG        47.3160  -53.3330   82.9540 C.ar  408  TRP408      0.0003
    139  CD1       47.4520  -51.9840   82.8570 C.ar  408  TRP408      0.0946
    140  CD2       47.1770  -53.6260   84.3450 C.ar  408  TRP408      0.0152
    141  NE1       47.4040  -51.4140   84.1010 N.ar  408  TRP408     -0.2442
    142  CE2       47.2340  -52.3980   85.0360 C.ar  408  TRP408      0.0810
    143  CE3       47.0090  -54.8070   85.0760 C.ar  408  TRP408      0.0012
    144  CZ2       47.1210  -52.3120   86.4220 C.ar  408  TRP408      0.0191
    145  CZ3       46.9010  -54.7230   86.4530 C.ar  408  TRP408      0.0001
    146  CH2       46.9600  -53.4810   87.1130 C.ar  408  TRP408      0.0015
    147  N         47.7990  -57.2030   81.0530 N.am  409  THR409     -0.1939
    148  CA        47.3450  -58.2610   80.1650 C.3   409  THR409      0.2028
    149  C         46.2230  -59.0670   80.7780 C.2   409  THR409      0.2642
    150  O         46.0110  -59.0300   81.9910 O.2   409  THR409     -0.2714
    151  CB        48.4480  -59.2410   79.7750 C.3   409  THR409      0.1808
    152  OG1       47.8540  -60.2320   78.9510 O.3   409  THR409     -0.2208
    153  CG2       49.0700  -59.9170   80.9870 C.3   409  THR409      0.0379
    154  N         45.5190  -59.8090   79.9290 N.am  410  LYS410     -0.1977
    155  CA        44.3660  -60.5550   80.3820 C.3   410  LYS410      0.1596
    156  C         44.7850  -61.9160   80.9140 C.2   410  LYS410      0.2287
    157  O         45.8440  -62.4450   80.5570 O.2   410  LYS410     -0.2864
    158  CB        43.3230  -60.6800   79.2790 C.3   410  LYS410      0.0298
    159  CG        42.1910  -59.6750   79.4080 C.3   410  LYS410      0.0038
    160  CD        41.2240  -59.7690   78.2390 C.3   410  LYS410      0.0206
    161  CE        40.4850  -61.1030   78.1770 C.3   410  LYS410      0.1093
    162  NZ        39.4080  -61.1320   77.1430 N.3   410  LYS410     -0.1314
    163  N         49.7190  -60.3120   69.6140 N.3   430  GLN430     -0.1245
    164  CA        49.5350  -58.9860   70.2200 C.3   430  GLN430      0.1566
    165  C         50.8100  -58.1570   70.2360 C.2   430  GLN430      0.2260
    166  O         50.7660  -56.9580   69.9900 O.2   430  GLN430     -0.2867
    167  CB        49.0040  -59.0900   71.6420 C.3   430  GLN430      0.0367
    168  CG        48.6440  -57.7420   72.2560 C.3   430  GLN430      0.0905
    169  CD        48.0350  -57.8590   73.6420 C.2   430  GLN430      0.2608
    170  OE1       47.8450  -58.9620   74.1620 O.2   430  GLN430     -0.2717
    171  NE2       47.7280  -56.7160   74.2520 N.am  430  GLN430     -0.0878
@<TRIPOS>BOND
     1    57    56    2
     2    56    55    1
     3    54    55    1
     4    55    58    1
     5    58    59    1
     6    58    60    1
     7    75    77   ar
     8    75    73   ar
     9    77    78   ar
    10    68    69    1
    11    72    73    1
    12    72    69    1
    13    99   100    1
    14    86    85    1
    15    73    74   ar
    16    69    70    1
    17    78    79    1
    18    78    76   ar
    19    85    87    1
    20    85    84    1
    21    74    76   ar
    22   100   103    1
    23   100   101    1
    24    80    81    1
    25    64    63    2
    26    70    71    2
    27    84    81    1
    28   103   104    1
    29    63    62    1
    30   102   101    2
    31    67    65    1
    32    81    82    1
    33    65    62    1
    34    65    66    1
    35   163   164    1
    36    90    91    2
    37    90    89    1
    38    62    61    1
    39    82    88   am
    40    82    83    2
    41   166   165    2
    42   104   105    1
    43   104   106    1
    44    88    89    1
    45   164   165    1
    46   164   167    1
    47    89    92    1
    48    92    93    1
    49   167   168    1
    50   168   169    1
    51    93    94    1
    52    97    96    1
    53   132   130   am
    54   131   130    2
    55    94    95    1
    56   130   129    1
    57   169   170    2
    58   169   171   am
    59   111   112    1
    60   111   108    1
    61    96    95    2
    62    96    98    1
    63   109   108    1
    64   109   110    2
    65   108   107    1
    66   129   128    1
    67   128   125    1
    68   125   126    1
    69   125   124    1
    70   126   127    2
    71   162   161    1
    72   124   115   am
    73   123   121    1
    74   113   114    1
    75   161   160    1
    76   122   121    1
    77   121   120    2
    78   160   159    1
    79   115   114    1
    80   115   116    2
    81   117   114    1
    82   117   118    1
    83    28    27    1
    84   120   119    1
    85   152   151    1
    86   158   159    1
    87   158   155    1
    88   136   135    2
    89   119   118    1
    90    27    26    1
    91   151   148    1
    92   151   153    1
    93   154   155    1
    94   154   149   am
    95   148   149    1
    96   148   147    1
    97   155   156    1
    98   157   156    2
    99   135   147   am
   100   135   134    1
   101    44    43   ar
   102    26    25    1
   103   149   150    2
   104    17    19   ar
   105    17    15   ar
   106   133   134    1
   107     7     8    1
   108     7     6    1
   109    53    51    1
   110    19    18   ar
   111   134   137    1
   112   137   138    1
   113    43    42    1
   114    43    45   ar
   115    25    24    1
   116    41    42    1
   117    41    38    1
   118    15    14   ar
   119    50    51    1
   120    50    47    1
   121    49    48    2
   122    51    52    1
   123     6     5    1
   124    46    47    1
   125    46    39   am
   126   139   138   ar
   127   139   141   ar
   128    32    31    2
   129   138   140   ar
   130    18    16   ar
   131    38    39    1
   132    38    37    1
   133    24    21    1
   134    47    48    1
   135    14    16   ar
   136    14    13    1
   137    39    40    2
   138     5     2    1
   139     4     3    2
   140    31    37   am
   141    31    30    1
   142   141   142   ar
   143   140   142   ar
   144   140   143   ar
   145    21    22    1
   146    21    20    1
   147    13    10    1
   148     3     2    1
   149     3     9   am
   150    10     9    1
   151    10    11    1
   152    29    22   am
   153    29    30    1
   154     2     1    1
   155    22    23    2
   156   142   144   ar
   157   143   145   ar
   158    30    33    1
   159    36    34   ar
   160    33    34    1
   161    11    12    2
   162    34    35   ar
   163   144   146   ar
   164   145   146   ar
