@<TRIPOS>MOLECULE
tmp/4o4rC00.pdb
 115 108 0 0 0
SMALL
GASTEIGER

@<TRIPOS>ATOM
      1  N         42.7210  -58.7180   84.9350 N.3    25  PHE25      -0.1241
      2  CA        43.9850  -58.1130   84.4840 C.3    25  PHE25       0.1605
      3  C         45.1560  -58.4740   85.3680 C.2    25  PHE25       0.2264
      4  O         45.0410  -58.4750   86.5950 O.2    25  PHE25      -0.2867
      5  CB        43.8830  -56.5870   84.3870 C.3    25  PHE25       0.0534
      6  CG        42.8540  -56.1110   83.4090 C.ar   25  PHE25      -0.0203
      7  CD1       43.1480  -56.0200   82.0530 C.ar   25  PHE25      -0.0042
      8  CD2       41.5910  -55.7490   83.8460 C.ar   25  PHE25      -0.0042
      9  CE1       42.1800  -55.5930   81.1550 C.ar   25  PHE25      -0.0003
     10  CE2       40.6250  -55.3120   82.9610 C.ar   25  PHE25      -0.0003
     11  CZ        40.9160  -55.2430   81.6120 C.ar   25  PHE25      -0.0000
     12  N         31.1250  -53.2520   63.3770 N.3   214  GLY214     -0.1210
     13  CA        31.5380  -54.3950   62.5560 C.3   214  GLY214      0.1956
     14  C         32.6570  -54.0620   61.5990 C.2   214  GLY214      0.2611
     15  O         33.2030  -54.9480   60.9410 O.2   214  GLY214     -0.2717
     16  N         32.9860  -52.7810   61.4820 N.am  215  MET215     -0.1979
     17  CA        34.0780  -52.3750   60.6290 C.3   215  MET215      0.1605
     18  C         35.3690  -52.9730   61.1740 C.2   215  MET215      0.2287
     19  O         35.4430  -53.3280   62.3430 O.2   215  MET215     -0.2864
     20  CB        34.2200  -50.8490   60.6200 C.3   215  MET215      0.0413
     21  CG        34.7810  -50.2600   61.9110 C.3   215  MET215      0.0598
     22  SD        34.9720  -48.4610   61.8730 S.3   215  MET215     -0.1393
     23  CE        36.7320  -48.3110   61.5900 C.3   215  MET215      0.0692
     24  N         39.1780  -51.6000   61.5970 N.3   217  MET217     -0.1245
     25  CA        39.9360  -50.3350   61.5380 C.3   217  MET217      0.1570
     26  C         40.9800  -50.3240   60.4310 C.2   217  MET217      0.2261
     27  O         41.1300  -49.3170   59.7270 O.2   217  MET217     -0.2867
     28  CB        40.6300  -50.0270   62.8670 C.3   217  MET217      0.0387
     29  CG        41.3500  -48.6800   62.8780 C.3   217  MET217      0.0595
     30  SD        40.2420  -47.2640   62.6430 S.3   217  MET217     -0.1393
     31  CE        39.2720  -47.3620   64.1200 C.3   217  MET217      0.0692
     32  N         29.2060  -45.0020   66.4570 N.3   337  TYR337     -0.1241
     33  CA        29.5780  -46.2900   67.0100 C.3   337  TYR337      0.1605
     34  C         29.1810  -46.2580   68.4780 C.2   337  TYR337      0.2264
     35  O         29.9890  -45.8870   69.3340 O.2   337  TYR337     -0.2867
     36  CB        31.0890  -46.5050   66.8510 C.3   337  TYR337      0.0534
     37  CG        31.5790  -47.9210   66.9820 C.ar  337  TYR337     -0.0201
     38  CD1       31.2440  -48.7080   68.0760 C.ar  337  TYR337     -0.0009
     39  CD2       32.4290  -48.4710   66.0180 C.ar  337  TYR337     -0.0009
     40  CE1       31.7140  -50.0100   68.1940 C.ar  337  TYR337      0.0417
     41  CE2       32.9090  -49.7700   66.1290 C.ar  337  TYR337      0.0417
     42  CZ        32.5450  -50.5350   67.2180 C.ar  337  TYR337      0.1957
     43  OH        33.0120  -51.8180   67.3490 O.3   337  TYR337     -0.2866
     44  N         36.8610  -43.6890   68.3290 N.3   382  LEU382     -0.1231
     45  CA        37.1080  -44.7500   69.2850 C.3   382  LEU382      0.1693
     46  C         38.4060  -44.3440   69.9660 C.2   382  LEU382      0.2592
     47  O         38.5180  -43.1940   70.3650 O.2   382  LEU382     -0.2718
     48  CB        37.1580  -46.1290   68.5980 C.3   382  LEU382      0.0284
     49  CG        35.9280  -46.4300   67.7350 C.3   382  LEU382      0.0019
     50  CD1       36.0850  -47.7410   66.9750 C.3   382  LEU382      0.0001
     51  CD2       34.6620  -46.4600   68.5830 C.3   382  LEU382      0.0001
     52  N         39.3870  -45.2390   70.0700 N.am  383  ARG383     -0.1966
     53  CA        40.6560  -44.8970   70.7220 C.3   383  ARG383      0.1729
     54  C         41.7430  -44.4420   69.7580 C.2   383  ARG383      0.2616
     55  O         42.9080  -44.3470   70.1470 O.2   383  ARG383     -0.2715
     56  CB        41.1490  -46.0810   71.5480 C.3   383  ARG383      0.0348
     57  CG        40.1440  -46.4700   72.6210 C.3   383  ARG383      0.0492
     58  CD        40.6540  -47.6280   73.4410 C.3   383  ARG383      0.2205
     59  NE        39.6220  -48.1120   74.3420 N.pl3 383  ARG383     -0.0865
     60  CZ        38.6080  -48.8970   73.9880 C.cat 383  ARG383      0.5346
     61  NH1       38.4620  -49.3090   72.7300 N.pl3 383  ARG383      0.1354
     62  NH2       37.7230  -49.2700   74.9030 N.pl3 383  ARG383      0.1354
     63  N         41.3740  -44.1260   68.5180 N.am  384  ARG384     -0.1977
     64  CA        42.3700  -43.7110   67.5430 C.3   384  ARG384      0.1597
     65  C         42.3400  -42.2230   67.2600 C.2   384  ARG384      0.2287
     66  O         41.4120  -41.4920   67.6160 O.2   384  ARG384     -0.2864
     67  CB        42.2100  -44.4370   66.2150 C.3   384  ARG384      0.0334
     68  CG        41.4790  -45.7720   66.2280 C.3   384  ARG384      0.0492
     69  CD        42.2290  -46.8960   66.8940 C.3   384  ARG384      0.2205
     70  NE        43.3260  -47.3580   66.0750 N.pl3 384  ARG384     -0.0865
     71  CZ        43.7750  -48.6140   66.0340 C.cat 384  ARG384      0.5346
     72  NH1       43.2210  -49.5800   66.7600 N.pl3 384  ARG384      0.1354
     73  NH2       44.8030  -48.9000   65.2470 N.pl3 384  ARG384      0.1354
     74  N         46.4450  -45.5420   66.8870 N.3   397  LEU397     -0.1245
     75  CA        46.1460  -45.7630   68.3040 C.3   397  LEU397      0.1561
     76  C         47.0400  -44.8640   69.1750 C.2   397  LEU397      0.2260
     77  O         48.2560  -44.8040   68.9530 O.2   397  LEU397     -0.2867
     78  CB        46.3510  -47.2440   68.6410 C.3   397  LEU397      0.0270
     79  CG        45.8840  -47.7540   70.0010 C.3   397  LEU397      0.0019
     80  CD1       44.3780  -47.6870   70.1270 C.3   397  LEU397      0.0001
     81  CD2       46.3740  -49.1780   70.2070 C.3   397  LEU397      0.0001
     82  N         48.9000  -51.4590   77.1950 N.3   405  GLN405     -0.1245
     83  CA        48.9450  -52.8590   76.7830 C.3   405  GLN405      0.1566
     84  C         50.2760  -53.4780   77.0980 C.2   405  GLN405      0.2260
     85  O         50.3720  -54.6960   77.2710 O.2   405  GLN405     -0.2867
     86  CB        48.6660  -52.9900   75.2880 C.3   405  GLN405      0.0367
     87  CG        47.2100  -52.7590   74.9440 C.3   405  GLN405      0.0905
     88  CD        46.9010  -53.0720   73.5030 C.2   405  GLN405      0.2608
     89  OE1       47.4920  -53.9820   72.9220 O.2   405  GLN405     -0.2717
     90  NE2       45.9640  -52.3200   72.9130 N.am  405  GLN405     -0.0878
     91  N         47.7990  -57.2030   81.0530 N.3   409  THR409     -0.1203
     92  CA        47.3450  -58.2610   80.1650 C.3   409  THR409      0.1994
     93  C         46.2230  -59.0670   80.7780 C.2   409  THR409      0.2617
     94  O         46.0110  -59.0300   81.9910 O.2   409  THR409     -0.2717
     95  CB        48.4480  -59.2410   79.7750 C.3   409  THR409      0.1784
     96  OG1       47.8540  -60.2320   78.9510 O.3   409  THR409     -0.2211
     97  CG2       49.0700  -59.9170   80.9870 C.3   409  THR409      0.0376
     98  N         45.5190  -59.8090   79.9290 N.am  410  LYS410     -0.1979
     99  CA        44.3660  -60.5550   80.3820 C.3   410  LYS410      0.1596
    100  C         44.7850  -61.9160   80.9140 C.2   410  LYS410      0.2287
    101  O         45.8440  -62.4450   80.5570 O.2   410  LYS410     -0.2864
    102  CB        43.3230  -60.6800   79.2790 C.3   410  LYS410      0.0298
    103  CG        42.1910  -59.6750   79.4080 C.3   410  LYS410      0.0038
    104  CD        41.2240  -59.7690   78.2390 C.3   410  LYS410      0.0206
    105  CE        40.4850  -61.1030   78.1770 C.3   410  LYS410      0.1093
    106  NZ        39.4080  -61.1320   77.1430 N.3   410  LYS410     -0.1314
    107  N         49.7190  -60.3120   69.6140 N.3   430  GLN430     -0.1245
    108  CA        49.5350  -58.9860   70.2200 C.3   430  GLN430      0.1566
    109  C         50.8100  -58.1570   70.2360 C.2   430  GLN430      0.2260
    110  O         50.7660  -56.9580   69.9900 O.2   430  GLN430     -0.2867
    111  CB        49.0040  -59.0900   71.6420 C.3   430  GLN430      0.0367
    112  CG        48.6440  -57.7420   72.2560 C.3   430  GLN430      0.0905
    113  CD        48.0350  -57.8590   73.6420 C.2   430  GLN430      0.2608
    114  OE1       47.8450  -58.9620   74.1620 O.2   430  GLN430     -0.2717
    115  NE2       47.7280  -56.7160   74.2520 N.am  430  GLN430     -0.0878
@<TRIPOS>BOND
     1    27    26    2
     2    26    25    1
     3    20    17    1
     4    20    21    1
     5    17    18    1
     6    17    16    1
     7    15    14    2
     8    18    19    2
     9    16    14   am
    10    25    24    1
    11    25    28    1
    12    23    22    1
    13    14    13    1
    14    22    21    1
    15    13    12    1
    16    30    29    1
    17    30    31    1
    18    28    29    1
    19    73    71    1
    20    39    41   ar
    21    39    37   ar
    22    71    70    2
    23    71    72    1
    24    70    69    1
    25    41    42   ar
    26    67    68    1
    27    67    64    1
    28    68    69    1
    29    32    33    1
    30    36    37    1
    31    36    33    1
    32    74    75    1
    33    50    49    1
    34    37    38   ar
    35    33    34    1
    36    42    43    1
    37    42    40   ar
    38    65    64    1
    39    65    66    2
    40    64    63    1
    41    49    51    1
    42    49    48    1
    43    38    40   ar
    44    75    78    1
    45    75    76    1
    46    44    45    1
    47    34    35    2
    48    63    54   am
    49    48    45    1
    50    78    79    1
    51    77    76    2
    52    45    46    1
    53   107   108    1
    54    54    55    2
    55    54    53    1
    56    46    52   am
    57    46    47    2
    58   110   109    2
    59    79    80    1
    60    79    81    1
    61    52    53    1
    62   108   109    1
    63   108   111    1
    64    53    56    1
    65    56    57    1
    66   111   112    1
    67   112   113    1
    68    57    58    1
    69    61    60    1
    70    90    88   am
    71    89    88    2
    72    58    59    1
    73    88    87    1
    74   113   114    2
    75   113   115   am
    76    60    59    2
    77    60    62    1
    78    87    86    1
    79    86    83    1
    80    83    84    1
    81    83    82    1
    82    84    85    2
    83   106   105    1
    84   105   104    1
    85   104   103    1
    86    96    95    1
    87   102   103    1
    88   102    99    1
    89    95    92    1
    90    95    97    1
    91    98    99    1
    92    98    93   am
    93    92    93    1
    94    92    91    1
    95    99   100    1
    96   101   100    2
    97    93    94    2
    98     9    11   ar
    99     9     7   ar
   100    11    10   ar
   101     7     6   ar
   102    10     8   ar
   103     6     8   ar
   104     6     5    1
   105     5     2    1
   106     2     1    1
   107     2     3    1
   108     3     4    2
