@<TRIPOS>MOLECULE
tmp/4o4yB00.pdb
 124 123 0 0 0
SMALL
GASTEIGER

@<TRIPOS>ATOM
      1  N         -4.9910   17.3030  -45.9600 N.3    31  PRO31      -0.2116
      2  CA        -3.9340   17.4940  -44.9810 C.3    31  PRO31       0.1372
      3  C         -4.2820   16.8140  -43.6540 C.2    31  PRO31       0.2244
      4  O         -5.4750   16.7140  -43.3030 O.2    31  PRO31      -0.2868
      5  CB        -3.8930   19.0100  -44.7830 C.3    31  PRO31       0.0268
      6  CG        -4.5350   19.5790  -45.9570 C.3    31  PRO31       0.0207
      7  CD        -5.6150   18.5830  -46.3220 C.3    31  PRO31       0.0892
      8  N         -2.9100   16.7260  -39.4530 N.3    33  ASN33      -0.1240
      9  CA        -2.1270   17.4770  -38.4720 C.3    33  ASN33       0.1653
     10  C         -2.1540   16.8530  -37.0760 C.2    33  ASN33       0.2266
     11  O         -3.1440   16.2400  -36.6860 O.2    33  ASN33      -0.2867
     12  CB        -2.6250   18.9230  -38.3820 C.3    33  ASN33       0.1155
     13  CG        -2.3460   19.7060  -39.6490 C.2    33  ASN33       0.2627
     14  OD1       -1.2200   20.1500  -39.8600 O.2    33  ASN33      -0.2716
     15  ND2       -3.3770   19.8810  -40.5130 N.am   33  ASN33      -0.0877
     16  N          0.4640   23.5010  -32.3490 N.3    45  TRP45      -0.1241
     17  CA         0.6450   22.7240  -33.5610 C.3    45  TRP45       0.1605
     18  C          2.0340   22.0640  -33.5890 C.2    45  TRP45       0.2264
     19  O          3.0240   22.7340  -33.3710 O.2    45  TRP45      -0.2867
     20  CB         0.4320   23.6020  -34.7890 C.3    45  TRP45       0.0550
     21  CG         0.6280   22.8530  -36.0890 C.ar   45  TRP45       0.0003
     22  CD1       -0.1750   21.8850  -36.6080 C.ar   45  TRP45       0.0946
     23  CD2        1.6990   23.0280  -37.0080 C.ar   45  TRP45       0.0152
     24  NE1        0.3160   21.4480  -37.8010 N.ar   45  TRP45      -0.2442
     25  CE2        1.4860   22.1200  -38.0660 C.ar   45  TRP45       0.0810
     26  CE3        2.8280   23.8570  -37.0430 C.ar   45  TRP45       0.0012
     27  CZ2        2.3590   22.0130  -39.1440 C.ar   45  TRP45       0.0191
     28  CZ3        3.7090   23.7520  -38.1440 C.ar   45  TRP45       0.0001
     29  CH2        3.4690   22.8400  -39.1600 C.ar   45  TRP45       0.0015
     30  N          2.4730   18.3010  -39.5860 N.3    48  GLY48      -0.1210
     31  CA         1.4620   17.6780  -40.4000 C.3    48  GLY48       0.1956
     32  C          1.9630   17.2740  -41.7520 C.2    48  GLY48       0.2612
     33  O          3.1450   17.4640  -42.1160 O.2    48  GLY48      -0.2717
     34  N          1.0460   16.6960  -42.5110 N.am   49  ILE49      -0.1965
     35  CA         1.3410   16.1290  -43.8190 C.3    49  ILE49       0.1727
     36  C          0.4420   16.7950  -44.8110 C.2    49  ILE49       0.2617
     37  O         -0.8020   16.7380  -44.6810 O.2    49  ILE49      -0.2715
     38  CB         1.0710   14.5810  -43.8610 C.3    49  ILE49       0.0290
     39  CG1        1.8060   13.8550  -42.7460 C.3    49  ILE49       0.0022
     40  CG2        1.4450   13.9790  -45.2250 C.3    49  ILE49       0.0023
     41  CD1        1.7320   12.3500  -42.8420 C.3    49  ILE49       0.0001
     42  N          1.0320   17.4140  -45.8220 N.am   50  GLY50      -0.1940
     43  CA         0.2310   18.0440  -46.8730 C.3    50  GLY50       0.2014
     44  C         -0.3730   16.9980  -47.8130 C.2    50  GLY50       0.2640
     45  O          0.0610   15.8520  -47.8420 O.2    50  GLY50      -0.2714
     46  N         -1.3520   17.4000  -48.6120 N.am   51  THR51      -0.1936
     47  CA        -1.8690   16.5090  -49.6660 C.3    51  THR51       0.2028
     48  C         -0.7540   16.1580  -50.6600 C.2    51  THR51       0.2642
     49  O         -0.7760   15.1050  -51.2820 O.2    51  THR51      -0.2714
     50  CB        -3.0820   17.1000  -50.4150 C.3    51  THR51       0.1808
     51  OG1       -2.7430   18.3640  -51.0090 O.3    51  THR51      -0.2208
     52  CG2       -4.2800   17.2490  -49.4660 C.3    51  THR51       0.0379
     53  N          0.2370   17.0380  -50.7900 N.am   52  SER52      -0.1949
     54  CA         1.5030   16.7750  -51.5400 C.3    52  SER52       0.1924
     55  C          2.2340   15.4820  -51.0890 C.2    52  SER52       0.2314
     56  O          2.9800   14.8870  -51.8670 O.2    52  SER52      -0.2863
     57  CB         2.4620   17.9600  -51.2690 C.3    52  SER52       0.2116
     58  OG         2.6410   18.1490  -49.8130 O.3    52  SER52      -0.2180
     59  N          4.2220   16.0020  -48.4530 N.3    54  ASN54      -0.1240
     60  CA         5.2970   16.6670  -47.7190 C.3    54  ASN54       0.1653
     61  C          4.9840   16.7240  -46.2280 C.2    54  ASN54       0.2266
     62  O          3.8500   17.0160  -45.8260 O.2    54  ASN54      -0.2867
     63  CB         5.5210   18.0880  -48.2600 C.3    54  ASN54       0.1155
     64  CG         5.9580   18.1180  -49.7100 C.2    54  ASN54       0.2627
     65  OD1        6.5050   17.1430  -50.2500 O.2    54  ASN54      -0.2716
     66  ND2        5.7730   19.2720  -50.3360 N.am   54  ASN54      -0.0877
     67  N          5.6910   18.3780  -42.6020 N.3    56  TRP56      -0.1241
     68  CA         6.1540   19.6410  -42.0350 C.3    56  TRP56       0.1605
     69  C          6.0910   19.6080  -40.5300 C.2    56  TRP56       0.2264
     70  O          5.2130   18.9720  -39.9440 O.2    56  TRP56      -0.2867
     71  CB         5.2700   20.7880  -42.5080 C.3    56  TRP56       0.0550
     72  CG         5.2750   20.9910  -43.9840 C.ar   56  TRP56       0.0003
     73  CD1        4.4250   20.4270  -44.9000 C.ar   56  TRP56       0.0946
     74  CD2        6.1740   21.8150  -44.7230 C.ar   56  TRP56       0.0152
     75  NE1        4.7270   20.8770  -46.1760 N.ar   56  TRP56      -0.2442
     76  CE2        5.8220   21.7030  -46.0990 C.ar   56  TRP56       0.0810
     77  CE3        7.2600   22.6160  -44.3700 C.ar   56  TRP56       0.0012
     78  CZ2        6.5060   22.3840  -47.0960 C.ar   56  TRP56       0.0191
     79  CZ3        7.9330   23.2980  -45.3640 C.ar   56  TRP56       0.0001
     80  CH2        7.5640   23.1710  -46.7130 C.ar   56  TRP56       0.0015
     81  N         -7.3250   18.2890  -41.8190 N.3    95  GLY95      -0.1210
     82  CA        -7.3620   19.7410  -41.9580 C.3    95  GLY95       0.1956
     83  C         -6.9740   20.4570  -40.6800 C.2    95  GLY95       0.2612
     84  O         -6.2340   19.9370  -39.8640 O.2    95  GLY95      -0.2717
     85  N         -7.4920   21.6650  -40.5510 N.am   96  LEU96      -0.1965
     86  CA        -7.3280   22.5340  -39.4000 C.3    96  LEU96       0.1728
     87  C         -8.1040   23.8180  -39.5770 C.2    96  LEU96       0.2616
     88  O         -8.5240   24.3730  -38.5850 O.2    96  LEU96      -0.2715
     89  CB        -5.8370   22.8550  -39.1210 C.3    96  LEU96       0.0311
     90  CG        -5.4450   22.8910  -37.6460 C.3    96  LEU96       0.0022
     91  CD1       -5.6600   21.5210  -36.9860 C.3    96  LEU96       0.0001
     92  CD2       -3.9820   23.3030  -37.5320 C.3    96  LEU96       0.0001
     93  N         -8.3440   24.2920  -40.8000 N.am   97  TYR97      -0.1960
     94  CA        -9.2690   25.4400  -40.9880 C.3    97  TYR97       0.1771
     95  C        -10.3930   25.2740  -42.0370 C.2    97  TYR97       0.2619
     96  O        -11.4070   25.9310  -41.9280 O.2    97  TYR97      -0.2715
     97  CB        -8.5090   26.7950  -41.1950 C.3    97  TYR97       0.0574
     98  CG        -7.5810   26.7860  -42.3510 C.ar   97  TYR97      -0.0198
     99  CD1       -8.0630   26.7050  -43.6550 C.ar   97  TYR97      -0.0009
    100  CD2       -6.1780   26.8330  -42.1600 C.ar   97  TYR97      -0.0009
    101  CE1       -7.1910   26.6780  -44.7630 C.ar   97  TYR97       0.0417
    102  CE2       -5.3090   26.8010  -43.2490 C.ar   97  TYR97       0.0417
    103  CZ        -5.8190   26.6950  -44.5400 C.ar   97  TYR97       0.1957
    104  OH        -4.9610   26.6070  -45.6080 O.3    97  TYR97      -0.2866
    105  N        -10.2320   24.3920  -43.0180 N.am   98  ASN98      -0.1972
    106  CA       -11.2580   24.2050  -44.0420 C.3    98  ASN98       0.1688
    107  C        -12.4770   23.4380  -43.5510 C.2    98  ASN98       0.2292
    108  O        -12.4940   22.9340  -42.4380 O.2    98  ASN98      -0.2864
    109  CB       -10.6910   23.5860  -45.3090 C.3    98  ASN98       0.1181
    110  CG        -9.9610   24.6160  -46.1640 C.2    98  ASN98       0.2629
    111  OD1      -10.3210   25.7860  -46.1530 O.2    98  ASN98      -0.2716
    112  ND2       -8.9180   24.1880  -46.8770 N.am   98  ASN98      -0.0877
    113  N        -13.7510   20.5990  -44.2650 N.3   100  TYR100     -0.1241
    114  CA       -13.5350   19.1780  -43.9610 C.3   100  TYR100      0.1605
    115  C        -12.8370   18.8880  -42.6450 C.2   100  TYR100      0.2264
    116  O        -12.5940   17.7080  -42.3330 O.2   100  TYR100     -0.2867
    117  CB       -12.7520   18.4650  -45.0700 C.3   100  TYR100      0.0534
    118  CG       -11.5010   19.1680  -45.5140 C.ar  100  TYR100     -0.0201
    119  CD1      -10.3920   19.2780  -44.6800 C.ar  100  TYR100     -0.0009
    120  CD2      -11.4410   19.7730  -46.7690 C.ar  100  TYR100     -0.0009
    121  CE1       -9.2470   19.9090  -45.0980 C.ar  100  TYR100      0.0417
    122  CE2      -10.2950   20.4440  -47.1800 C.ar  100  TYR100      0.0417
    123  CZ        -9.2060   20.5110  -46.3470 C.ar  100  TYR100      0.1957
    124  OH        -8.0590   21.1880  -46.7200 O.3   100  TYR100     -0.2866
@<TRIPOS>BOND
     1    56    55    2
     2    54    57    1
     3    54    55    1
     4    54    53    1
     5    49    48    2
     6    57    58    1
     7    51    50    1
     8    53    48   am
     9    48    47    1
    10    50    47    1
    11    50    52    1
    12    66    64   am
    13    65    64    2
    14    64    63    1
    15    47    46    1
    16    46    44   am
    17    59    60    1
    18    63    60    1
    19    45    44    2
    20    44    43    1
    21    60    61    1
    22   122   120   ar
    23   122   123   ar
    24    78    80   ar
    25    78    76   ar
    26   112   110   am
    27    43    42    1
    28   120   118   ar
    29   124   123    1
    30    80    79   ar
    31   123   121   ar
    32     7     1    1
    33     7     6    1
    34    61    62    2
    35    75    76   ar
    36    75    73   ar
    37   110   111    2
    38   110   109    1
    39    76    74   ar
    40     1     2    1
    41     6     5    1
    42    42    36   am
    43   104   103    1
    44   118   117    1
    45   118   119   ar
    46    79    77   ar
    47   109   106    1
    48    40    38    1
    49   121   119   ar
    50   117   114    1
    51     2     5    1
    52     2     3    1
    53    73    72   ar
    54    36    37    2
    55    36    35    1
    56   101   103   ar
    57   101    99   ar
    58    74    77   ar
    59    74    72   ar
    60   103   102   ar
    61   113   114    1
    62   106   107    1
    63   106   105    1
    64    72    71    1
    65   114   115    1
    66    38    35    1
    67    38    39    1
    68    35    34    1
    69    99    98   ar
    70     3     4    2
    71   107   108    2
    72   102   100   ar
    73   105    95   am
    74    41    39    1
    75   115   116    2
    76    67    68    1
    77    34    32   am
    78    71    68    1
    79    98   100   ar
    80    98    97    1
    81    33    32    2
    82    95    96    2
    83    95    94    1
    84    68    69    1
    85    82    81    1
    86    82    83    1
    87    32    31    1
    88    97    94    1
    89    94    93    1
    90    93    87   am
    91    83    85   am
    92    83    84    2
    93    85    86    1
    94    69    70    2
    95    15    13   am
    96    31    30    1
    97    14    13    2
    98    13    12    1
    99    87    86    1
   100    87    88    2
   101     8     9    1
   102    86    89    1
   103    29    27   ar
   104    29    28   ar
   105    27    25   ar
   106    89    90    1
   107     9    12    1
   108     9    10    1
   109    28    26   ar
   110    25    24   ar
   111    25    23   ar
   112    24    22   ar
   113    90    92    1
   114    90    91    1
   115    10    11    2
   116    26    23   ar
   117    23    21   ar
   118    22    21   ar
   119    21    20    1
   120    20    17    1
   121    18    17    1
   122    18    19    2
   123    17    16    1
