@<TRIPOS>MOLECULE
tmp/4o51K00.pdb
 131 130 0 0 0
SMALL
GASTEIGER

@<TRIPOS>ATOM
      1  N         33.8240   71.3090   23.5840 N.3    31  PRO31      -0.2116
      2  CA        34.9210   71.9330   22.8440 C.3    31  PRO31       0.1372
      3  C         34.6460   71.9440   21.3360 C.2    31  PRO31       0.2244
      4  O         34.0280   71.0140   20.8290 O.2    31  PRO31      -0.2868
      5  CB        36.1170   71.0450   23.1830 C.3    31  PRO31       0.0268
      6  CG        35.5170   69.7060   23.4430 C.3    31  PRO31       0.0207
      7  CD        34.1600   69.9480   24.0410 C.3    31  PRO31       0.0892
      8  N         36.0230   72.4940   17.2650 N.3    33  ASN33      -0.1240
      9  CA        37.1950   72.3290   16.4090 C.3    33  ASN33       0.1653
     10  C         36.9820   72.8070   14.9750 C.2    33  ASN33       0.2266
     11  O         35.8670   72.8090   14.4650 O.2    33  ASN33      -0.2867
     12  CB        37.6320   70.8640   16.3990 C.3    33  ASN33       0.1155
     13  CG        38.2630   70.4370   17.7070 C.2    33  ASN33       0.2627
     14  OD1       39.4300   70.7260   17.9680 O.2    33  ASN33      -0.2716
     15  ND2       37.4940   69.7440   18.5380 N.am   33  ASN33      -0.0877
     16  N         43.6040   69.1210   10.8610 N.3    45  TRP45      -0.1241
     17  CA        43.1000   69.8470   12.0200 C.3    45  TRP45       0.1605
     18  C         43.8080   71.1860   12.0930 C.2    45  TRP45       0.2264
     19  O         45.0370   71.2390   12.1210 O.2    45  TRP45      -0.2867
     20  CB        43.3260   69.0350   13.2970 C.3    45  TRP45       0.0550
     21  CG        42.8310   69.6860   14.5510 C.ar   45  TRP45       0.0003
     22  CD1       41.5520   69.6980   15.0240 C.ar   45  TRP45       0.0946
     23  CD2       43.6190   70.4050   15.5060 C.ar   45  TRP45       0.0152
     24  NE1       41.4930   70.3890   16.2100 N.ar   45  TRP45      -0.2442
     25  CE2       42.7510   70.8330   16.5280 C.ar   45  TRP45       0.0810
     26  CE3       44.9760   70.7340   15.5930 C.ar   45  TRP45       0.0012
     27  CZ2       43.1930   71.5680   17.6230 C.ar   45  TRP45       0.0191
     28  CZ3       45.4130   71.4650   16.6810 C.ar   45  TRP45       0.0001
     29  CH2       44.5250   71.8750   17.6800 C.ar   45  TRP45       0.0015
     30  N         41.2170   74.5940   17.5990 N.3    48  GLY48      -0.1210
     31  CA        39.9970   74.3370   18.3310 C.3    48  GLY48       0.1956
     32  C         39.9790   75.0920   19.6410 C.2    48  GLY48       0.2612
     33  O         41.0160   75.5430   20.1000 O.2    48  GLY48      -0.2717
     34  N         38.7890   75.2600   20.2100 N.am   49  ILE49      -0.1965
     35  CA        38.5970   75.9470   21.4890 C.3    49  ILE49       0.1727
     36  C         38.0440   74.9920   22.5430 C.2    49  ILE49       0.2617
     37  O         37.1530   74.2010   22.2460 O.2    49  ILE49      -0.2715
     38  CB        37.6370   77.1490   21.3750 C.3    49  ILE49       0.0290
     39  CG1       38.0770   78.1040   20.2720 C.3    49  ILE49       0.0022
     40  CG2       37.5530   77.9070   22.6930 C.3    49  ILE49       0.0023
     41  CD1       36.9960   79.0770   19.8890 C.3    49  ILE49       0.0001
     42  N         38.5550   75.0780   23.7690 N.am   50  GLY50      -0.1940
     43  CA        38.0540   74.2830   24.8830 C.3    50  GLY50       0.2014
     44  C         36.8270   74.8450   25.6000 C.2    50  GLY50       0.2640
     45  O         36.2270   75.8240   25.1570 O.2    50  GLY50      -0.2714
     46  N         36.4740   74.2370   26.7340 N.am   51  THR51      -0.1936
     47  CA        35.3240   74.6730   27.5310 C.3    51  THR51       0.2028
     48  C         35.6040   75.9590   28.3420 C.2    51  THR51       0.2642
     49  O         34.7070   76.7840   28.5510 O.2    51  THR51      -0.2714
     50  CB        34.8610   73.5710   28.5030 C.3    51  THR51       0.1808
     51  OG1       35.9500   73.1910   29.3530 O.3    51  THR51      -0.2208
     52  CG2       34.3750   72.3520   27.7370 C.3    51  THR51       0.0379
     53  N         36.8390   76.1200   28.8110 N.am   52  SER52      -0.1949
     54  CA        37.2240   77.3080   29.5590 C.3    52  SER52       0.1924
     55  C         37.3430   78.5110   28.6420 C.2    52  SER52       0.2314
     56  O         36.9320   79.6210   28.9910 O.2    52  SER52      -0.2863
     57  CB        38.5440   77.0740   30.2950 C.3    52  SER52       0.2116
     58  OG        39.6260   76.9860   29.3840 O.3    52  SER52      -0.2180
     59  N         40.4150   78.5570   26.3370 N.3    54  ASN54      -0.1240
     60  CA        41.7600   78.4790   25.7650 C.3    54  ASN54       0.1653
     61  C         41.7170   77.8910   24.3600 C.2    54  ASN54       0.2266
     62  O         40.8080   77.1400   24.0290 O.2    54  ASN54      -0.2867
     63  CB        42.6790   77.6510   26.6640 C.3    54  ASN54       0.1155
     64  CG        42.6410   78.1030   28.1110 C.2    54  ASN54       0.2627
     65  OD1       42.3550   77.3150   29.0130 O.2    54  ASN54      -0.2716
     66  ND2       42.9300   79.3780   28.3410 N.am   54  ASN54      -0.0877
     67  N         43.8750   76.2310   20.8320 N.3    56  TRP56      -0.1241
     68  CA        45.0600   75.5300   20.3360 C.3    56  TRP56       0.1605
     69  C         45.0870   75.5560   18.8180 C.2    56  TRP56       0.2264
     70  O         44.0450   75.6400   18.1830 O.2    56  TRP56      -0.2867
     71  CB        45.1020   74.0840   20.8350 C.3    56  TRP56       0.0550
     72  CG        45.5780   73.9480   22.2440 C.ar   56  TRP56       0.0003
     73  CD1       46.8310   73.5980   22.6520 C.ar   56  TRP56       0.0946
     74  CD2       44.8110   74.1560   23.4340 C.ar   56  TRP56       0.0152
     75  NE1       46.8940   73.5790   24.0240 N.ar   56  TRP56      -0.2442
     76  CE2       45.6660   73.9170   24.5270 C.ar   56  TRP56       0.0810
     77  CE3       43.4850   74.5220   23.6820 C.ar   56  TRP56       0.0012
     78  CZ2       45.2390   74.0330   25.8460 C.ar   56  TRP56       0.0191
     79  CZ3       43.0640   74.6340   24.9920 C.ar   56  TRP56       0.0001
     80  CH2       43.9380   74.3920   26.0570 C.ar   56  TRP56       0.0015
     81  N         33.4700   68.7970   19.3140 N.3    95  GLY95      -0.1210
     82  CA        34.4170   67.7510   19.6550 C.3    95  GLY95       0.1956
     83  C         35.1600   67.2880   18.4210 C.2    95  GLY95       0.2612
     84  O         35.3310   68.0590   17.4840 O.2    95  GLY95      -0.2717
     85  N         35.6210   66.0380   18.4330 N.am   96  LEU96      -0.1965
     86  CA        36.3410   65.4530   17.3020 C.3    96  LEU96       0.1728
     87  C         36.5440   63.9590   17.5380 C.2    96  LEU96       0.2616
     88  O         36.7100   63.1810   16.5900 O.2    96  LEU96      -0.2715
     89  CB        37.6950   66.1420   17.1020 C.3    96  LEU96       0.0311
     90  CG        38.3070   66.0840   15.7020 C.3    96  LEU96       0.0022
     91  CD1       37.4230   66.8100   14.7020 C.3    96  LEU96       0.0001
     92  CD2       39.7120   66.6650   15.7030 C.3    96  LEU96       0.0001
     93  N         36.4700   63.5640   18.8060 N.am   97  TYR97      -0.1960
     94  CA        36.9550   62.2630   19.2380 C.3    97  TYR97       0.1771
     95  C         35.9020   61.4660   19.9610 C.2    97  TYR97       0.2619
     96  O         35.6050   60.3480   19.5670 O.2    97  TYR97      -0.2715
     97  CB        38.1810   62.4650   20.1330 C.3    97  TYR97       0.0574
     98  CG        38.7920   61.2070   20.7040 C.ar   97  TYR97      -0.0198
     99  CD1       39.6680   60.4340   19.9520 C.ar   97  TYR97      -0.0009
    100  CD2       38.5110   60.8050   22.0030 C.ar   97  TYR97      -0.0009
    101  CE1       40.2360   59.2910   20.4750 C.ar   97  TYR97       0.0417
    102  CE2       39.0750   59.6640   22.5330 C.ar   97  TYR97       0.0417
    103  CZ        39.9360   58.9120   21.7650 C.ar   97  TYR97       0.1957
    104  OH        40.5010   57.7780   22.2920 O.3    97  TYR97      -0.2866
    105  N         35.3350   62.0410   21.0180 N.am   98  ASN98      -0.1972
    106  CA        34.3480   61.3300   21.8280 C.3    98  ASN98       0.1688
    107  C         33.0270   61.1490   21.1060 C.2    98  ASN98       0.2292
    108  O         32.8330   61.7040   20.0220 O.2    98  ASN98      -0.2864
    109  CB        34.1210   62.0580   23.1510 C.3    98  ASN98       0.1181
    110  CG        35.3090   61.9510   24.0870 C.2    98  ASN98       0.2629
    111  OD1       35.9090   60.8850   24.2250 O.2    98  ASN98      -0.2716
    112  ND2       35.6530   63.0570   24.7350 N.am   98  ASN98      -0.0877
    113  N         30.1690   62.3420   21.6000 N.3   100  TYR100     -0.1227
    114  CA        29.3640   63.5450   21.4540 C.3   100  TYR100      0.1736
    115  C         29.7230   64.3560   20.2040 C.2   100  TYR100      0.2596
    116  O         29.2350   65.4730   20.0210 O.2   100  TYR100     -0.2718
    117  CB        29.4640   64.4310   22.7070 C.3   100  TYR100      0.0548
    118  CG        30.8570   64.8770   23.1090 C.ar  100  TYR100     -0.0200
    119  CD1       31.5280   65.8700   22.4030 C.ar  100  TYR100     -0.0009
    120  CD2       31.4790   64.3400   24.2290 C.ar  100  TYR100     -0.0009
    121  CE1       32.7920   66.2870   22.7800 C.ar  100  TYR100      0.0417
    122  CE2       32.7390   64.7570   24.6170 C.ar  100  TYR100      0.0417
    123  CZ        33.3920   65.7260   23.8870 C.ar  100  TYR100      0.1957
    124  OH        34.6480   66.1390   24.2700 O.3   100  TYR100     -0.2866
    125  N         30.5760   63.7920   19.3530 N.am  101  THR101     -0.1953
    126  CA        31.0500   64.4560   18.1330 C.3   101  THR101      0.1897
    127  C         30.0140   64.6110   17.0310 C.2   101  THR101      0.2313
    128  O         29.3940   63.6360   16.6090 O.2   101  THR101     -0.2863
    129  CB        32.2590   63.7040   17.5430 C.3   101  THR101      0.1794
    130  OG1       33.2850   63.5920   18.5360 O.3   101  THR101     -0.2208
    131  CG2       32.8090   64.4390   16.3300 C.3   101  THR101      0.0378
@<TRIPOS>BOND
     1    16    17    1
     2    17    18    1
     3    17    20    1
     4    18    19    2
     5    20    21    1
     6    11    10    2
     7    21    22   ar
     8    21    23   ar
     9    91    90    1
    10    10     9    1
    11    22    24   ar
    12    23    26   ar
    13    23    25   ar
    14    26    28   ar
    15    90    92    1
    16    90    89    1
    17    24    25   ar
    18   131   129    1
    19    12     9    1
    20    12    13    1
    21     9     8    1
    22    25    27   ar
    23    88    87    2
    24   128   127    2
    25    28    29   ar
    26   127   126    1
    27    89    86    1
    28    86    87    1
    29    86    85    1
    30    84    83    2
    31    87    93   am
    32   129   126    1
    33   129   130    1
    34    30    31    1
    35    27    29   ar
    36    13    14    2
    37    13    15   am
    38   126   125    1
    39    70    69    2
    40    31    32    1
    41    83    85   am
    42    83    82    1
    43    93    94    1
    44    69    68    1
    45    94    95    1
    46    94    97    1
    47    81    82    1
    48   125   115   am
    49    96    95    2
    50    32    33    2
    51    32    34   am
    52    41    39    1
    53    99   101   ar
    54    99    98   ar
    55    95   105   am
    56   116   115    2
    57   108   107    2
    58    97    98    1
    59   115   114    1
    60    34    35    1
    61    39    38    1
    62    68    67    1
    63    68    71    1
    64   101   103   ar
    65    98   100   ar
    66     4     3    2
    67    71    72    1
    68   105   106    1
    69   107   106    1
    70     3     2    1
    71    38    35    1
    72    38    40    1
    73   114   113    1
    74   114   117    1
    75    35    36    1
    76   103   104    1
    77   103   102   ar
    78   106   109    1
    79   100   102   ar
    80    72    73   ar
    81    72    74   ar
    82    37    36    2
    83   119   121   ar
    84   119   118   ar
    85    36    42   am
    86    73    75   ar
    87   117   118    1
    88   121   123   ar
    89     2     5    1
    90     2     1    1
    91   118   120   ar
    92   109   110    1
    93     5     6    1
    94    74    77   ar
    95    74    76   ar
    96     6     7    1
    97     1     7    1
    98    77    79   ar
    99    42    43    1
   100   123   124    1
   101   123   122   ar
   102    75    76   ar
   103    62    61    2
   104   110   111    2
   105   110   112   am
   106   120   122   ar
   107    61    60    1
   108    76    78   ar
   109    43    44    1
   110    79    80   ar
   111    45    44    2
   112    44    46   am
   113    60    59    1
   114    60    63    1
   115    78    80   ar
   116    63    64    1
   117    46    47    1
   118    47    48    1
   119    47    50    1
   120    52    50    1
   121    64    66   am
   122    64    65    2
   123    48    49    2
   124    48    53   am
   125    50    51    1
   126    55    56    2
   127    55    54    1
   128    53    54    1
   129    58    57    1
   130    54    57    1
