@<TRIPOS>MOLECULE
tmp/4o55A00.pdb
 86 85 0 0 0
SMALL
GASTEIGER

@<TRIPOS>ATOM
      1  N        -34.6660   33.6860  -20.9010 N.3    39  GLN39      -0.1245
      2  CA       -33.8510   34.0990  -22.0310 C.3    39  GLN39       0.1566
      3  C        -32.3550   34.0380  -21.6900 C.2    39  GLN39       0.2260
      4  O        -31.5550   33.5670  -22.4830 O.2    39  GLN39      -0.2867
      5  CB       -34.1900   35.5340  -22.3890 C.3    39  GLN39       0.0367
      6  CG       -35.1050   35.8140  -23.5800 C.3    39  GLN39       0.0905
      7  CD       -34.6030   37.0530  -24.3560 C.2    39  GLN39       0.2608
      8  OE1      -33.5730   37.6730  -23.9900 O.2    39  GLN39      -0.2717
      9  NE2      -35.2920   37.3990  -25.4350 N.am   39  GLN39      -0.0878
     10  N        -31.4740   30.2330  -21.2480 N.3    42  ALA42      -0.1231
     11  CA       -31.4640   29.5650  -22.5860 C.3    42  ALA42       0.1694
     12  C        -30.1340   29.8210  -23.3180 C.2    42  ALA42       0.2592
     13  O        -29.4710   28.9180  -23.8520 O.2    42  ALA42      -0.2718
     14  CB       -32.6270   30.0980  -23.4330 C.3    42  ALA42       0.0304
     15  N        -29.7560   31.0860  -23.3050 N.am   43  TYR43      -0.1976
     16  CA       -28.5730   31.5670  -23.9840 C.3    43  TYR43       0.1639
     17  C        -27.3130   30.9930  -23.3770 C.2    43  TYR43       0.2290
     18  O        -26.3760   30.6070  -24.0860 O.2    43  TYR43      -0.2864
     19  CB       -28.5550   33.1050  -23.8950 C.3    43  TYR43       0.0560
     20  CG       -27.3840   33.6490  -24.6380 C.ar   43  TYR43      -0.0198
     21  CD1      -27.3310   33.5590  -26.0400 C.ar   43  TYR43      -0.0009
     22  CD2      -26.3100   34.2400  -23.9620 C.ar   43  TYR43      -0.0009
     23  CE1      -26.2490   34.0570  -26.7440 C.ar   43  TYR43       0.0417
     24  CE2      -25.2090   34.7430  -24.6590 C.ar   43  TYR43       0.0417
     25  CZ       -25.1730   34.6360  -26.0380 C.ar   43  TYR43       0.1957
     26  OH       -24.1000   35.0860  -26.7320 O.3    43  TYR43      -0.2866
     27  N        -27.0230   27.3480  -24.3120 N.3    46  LEU46      -0.1245
     28  CA       -26.4260   27.1760  -25.6710 C.3    46  LEU46       0.1561
     29  C        -24.9000   27.3810  -25.6910 C.2    46  LEU46       0.2260
     30  O        -24.1400   26.6940  -26.4210 O.2    46  LEU46      -0.2867
     31  CB       -27.0660   28.1210  -26.7000 C.3    46  LEU46       0.0270
     32  CG       -28.5700   27.9860  -26.9650 C.3    46  LEU46       0.0019
     33  CD1      -29.0310   29.0710  -27.9520 C.3    46  LEU46       0.0001
     34  CD2      -28.8820   26.5990  -27.5220 C.3    46  LEU46       0.0001
     35  N        -40.5790   28.3170  -22.0790 N.3    68  THR68      -0.1203
     36  CA       -40.5190   27.7100  -23.4070 C.3    68  THR68       0.1994
     37  C        -39.1490   28.0420  -24.0280 C.2    68  THR68       0.2618
     38  O        -38.5270   27.2230  -24.6820 O.2    68  THR68      -0.2717
     39  CB       -41.7610   28.1000  -24.2700 C.3    68  THR68       0.1784
     40  OG1      -41.9770   29.5060  -24.1770 O.3    68  THR68      -0.2211
     41  CG2      -43.0600   27.3850  -23.7550 C.3    68  THR68       0.0376
     42  N        -38.6470   29.2220  -23.7080 N.am   69  THR69      -0.1952
     43  CA       -37.3100   29.6330  -24.0520 C.3    69  THR69       0.1897
     44  C        -36.2510   28.6510  -23.6200 C.2    69  THR69       0.2313
     45  O        -35.4440   28.2350  -24.4500 O.2    69  THR69      -0.2863
     46  CB       -37.0640   30.9910  -23.4410 C.3    69  THR69       0.1794
     47  OG1      -38.1810   31.8080  -23.8220 O.3    69  THR69      -0.2208
     48  CG2      -35.8450   31.5780  -23.9700 C.3    69  THR69       0.0378
     49  N        -36.7940   25.3580  -25.4620 N.3    72  ALA72      -0.1231
     50  CA       -36.2520   25.4450  -26.8320 C.3    72  ALA72       0.1694
     51  C        -34.7430   25.2490  -26.8630 C.2    72  ALA72       0.2591
     52  O        -34.2270   24.5340  -27.7540 O.2    72  ALA72      -0.2718
     53  CB       -36.6310   26.7590  -27.5100 C.3    72  ALA72       0.0304
     54  N        -34.0110   25.8780  -25.9230 N.am   73  ALA73      -0.1980
     55  CA       -32.5580   25.7300  -25.9410 C.3    73  ALA73       0.1597
     56  C        -32.1500   24.2660  -25.7170 C.2    73  ALA73       0.2287
     57  O        -31.1930   23.7030  -26.3220 O.2    73  ALA73      -0.2864
     58  CB       -31.8970   26.6360  -24.9150 C.3    73  ALA73       0.0319
     59  N        -34.0660   21.5570  -26.1550 N.3    74  TRP74      -0.1227
     60  CA       -34.4320   20.8490  -27.3970 C.3    74  TRP74       0.1737
     61  C        -33.2940   20.9870  -28.4410 C.2    74  TRP74       0.2595
     62  O        -32.7840   19.9920  -28.9390 O.2    74  TRP74      -0.2718
     63  CB       -35.7860   21.3890  -27.8860 C.3    74  TRP74       0.0564
     64  CG       -36.1160   20.9860  -29.2660 C.ar   74  TRP74       0.0003
     65  CD1      -36.6870   19.8010  -29.6840 C.ar   74  TRP74       0.0946
     66  CD2      -35.8780   21.7630  -30.4520 C.ar   74  TRP74       0.0152
     67  NE1      -36.8110   19.7990  -31.0740 N.ar   74  TRP74      -0.2442
     68  CE2      -36.3230   20.9930  -31.5570 C.ar   74  TRP74       0.0810
     69  CE3      -35.3280   23.0420  -30.6850 C.ar   74  TRP74       0.0012
     70  CZ2      -36.2320   21.4670  -32.8730 C.ar   74  TRP74       0.0191
     71  CZ3      -35.2310   23.5030  -31.9890 C.ar   74  TRP74       0.0001
     72  CH2      -35.6770   22.7180  -33.0650 C.ar   74  TRP74       0.0015
     73  N        -32.8520   22.2080  -28.7190 N.am   75  TRP75      -0.1976
     74  CA       -31.9780   22.4250  -29.8710 C.3    75  TRP75       0.1640
     75  C        -30.6460   21.7470  -29.6340 C.2    75  TRP75       0.2290
     76  O        -30.0920   21.1370  -30.5560 O.2    75  TRP75      -0.2864
     77  CB       -31.7950   23.9240  -30.2010 C.3    75  TRP75       0.0576
     78  CG       -31.0670   24.1450  -31.5150 C.ar   75  TRP75       0.0006
     79  CD1      -31.6500   24.3800  -32.7430 C.ar   75  TRP75       0.0946
     80  CD2      -29.6290   24.1530  -31.7440 C.ar   75  TRP75       0.0152
     81  NE1      -30.6580   24.5280  -33.7190 N.ar   75  TRP75      -0.2442
     82  CE2      -29.4230   24.3940  -33.1360 C.ar   75  TRP75       0.0810
     83  CE3      -28.5080   24.0130  -30.9100 C.ar   75  TRP75       0.0012
     84  CZ2      -28.1400   24.5020  -33.7130 C.ar   75  TRP75       0.0191
     85  CZ3      -27.2290   24.0970  -31.4890 C.ar   75  TRP75       0.0001
     86  CH2      -27.0630   24.3120  -32.8920 C.ar   75  TRP75       0.0015
@<TRIPOS>BOND
     1    81    82   ar
     2    81    79   ar
     3    84    82   ar
     4    84    86   ar
     5    82    80   ar
     6    72    70   ar
     7    72    71   ar
     8    86    85   ar
     9    70    68   ar
    10    79    78   ar
    11    71    69   ar
    12    80    78   ar
    13    80    83   ar
    14    68    67   ar
    15    68    66   ar
    16    78    77    1
    17    85    83   ar
    18    67    65   ar
    19    69    66   ar
    20    76    75    2
    21    66    64   ar
    22    77    74    1
    23    74    75    1
    24    74    73    1
    25    65    64   ar
    26    64    63    1
    27    62    61    2
    28    73    61   am
    29    61    60    1
    30    33    32    1
    31    63    60    1
    32    52    51    2
    33    34    32    1
    34    53    50    1
    35    60    59    1
    36    32    31    1
    37    51    50    1
    38    51    54   am
    39    50    49    1
    40    23    21   ar
    41    23    25   ar
    42    26    25    1
    43    31    28    1
    44    30    29    2
    45    57    56    2
    46    21    20   ar
    47    25    24   ar
    48    55    54    1
    49    55    56    1
    50    55    58    1
    51    29    28    1
    52    28    27    1
    53     9     7   am
    54    38    37    2
    55    24    22   ar
    56    20    22   ar
    57    20    19    1
    58    45    44    2
    59     7     8    2
    60     7     6    1
    61    39    40    1
    62    39    41    1
    63    39    36    1
    64    18    17    2
    65    43    42    1
    66    43    44    1
    67    43    46    1
    68    37    42   am
    69    37    36    1
    70    16    19    1
    71    16    17    1
    72    16    15    1
    73    48    46    1
    74    13    12    2
    75    47    46    1
    76     6     5    1
    77    14    11    1
    78    36    35    1
    79    12    15   am
    80    12    11    1
    81    11    10    1
    82     4     3    2
    83     5     2    1
    84     2     3    1
    85     2     1    1
