@<TRIPOS>MOLECULE
tmp/4o56A00.pdb
 187 184 0 0 0
SMALL
GASTEIGER

@<TRIPOS>ATOM
      1  N         -3.5720  -18.8700   -6.2410 N.3    53  SER53      -0.1202
      2  CA        -3.8850  -20.0470   -7.0020 C.3    53  SER53       0.2020
      3  C         -5.3430  -20.5170   -6.7390 C.2    53  SER53       0.2619
      4  O         -5.8960  -21.3180   -7.5110 O.2    53  SER53      -0.2717
      5  CB        -2.8560  -21.1550   -6.6960 C.3    53  SER53       0.2103
      6  OG        -2.6020  -21.2640   -5.2970 O.3    53  SER53      -0.2182
      7  N         -5.9160  -20.0320   -5.6370 N.am   54  LYS54      -0.1965
      8  CA        -7.3120  -20.3220   -5.2740 C.3    54  LYS54       0.1728
      9  C         -7.8490  -19.1990   -4.4710 C.2    54  LYS54       0.2616
     10  O         -7.0830  -18.5750   -3.7920 O.2    54  LYS54      -0.2715
     11  CB        -7.4850  -21.6480   -4.4440 C.3    54  LYS54       0.0311
     12  CG        -6.9170  -22.9180   -5.0370 C.3    54  LYS54       0.0038
     13  CD        -6.9970  -24.1470   -4.1270 C.3    54  LYS54       0.0206
     14  CE        -6.5580  -25.4150   -4.8400 C.3    54  LYS54       0.1093
     15  NZ        -6.8110  -26.5530   -3.9200 N.3    54  LYS54      -0.1314
     16  N         -9.1500  -18.9420   -4.5310 N.am   55  TRP55      -0.1960
     17  CA        -9.8070  -17.9240   -3.6730 C.3    55  TRP55       0.1771
     18  C        -11.2910  -18.2030   -3.4420 C.2    55  TRP55       0.2620
     19  O        -11.9700  -18.9210   -4.2120 O.2    55  TRP55      -0.2715
     20  CB        -9.6200  -16.4890   -4.1910 C.3    55  TRP55       0.0590
     21  CG       -10.2210  -16.2930   -5.5560 C.ar   55  TRP55       0.0006
     22  CD1       -9.5390  -16.3460   -6.7790 C.ar   55  TRP55       0.0946
     23  CD2      -11.5860  -16.0050   -5.8750 C.ar   55  TRP55       0.0152
     24  NE1      -10.4260  -16.1230   -7.8380 N.ar   55  TRP55      -0.2442
     25  CE2      -11.6760  -15.8950   -7.3110 C.ar   55  TRP55       0.0810
     26  CE3      -12.7730  -15.7710   -5.1080 C.ar   55  TRP55       0.0012
     27  CZ2      -12.8950  -15.6530   -7.9570 C.ar   55  TRP55       0.0191
     28  CZ3      -13.9290  -15.4920   -5.7660 C.ar   55  TRP55       0.0001
     29  CH2      -13.9980  -15.4540   -7.1750 C.ar   55  TRP55       0.0015
     30  N        -11.7490  -17.6820   -2.3170 N.am   56  VAL56      -0.1963
     31  CA       -13.1290  -17.8450   -1.8500 C.3    56  VAL56       0.1727
     32  C        -13.6380  -16.5350   -1.3150 C.2    56  VAL56       0.2616
     33  O        -13.0780  -16.0110   -0.3550 O.2    56  VAL56      -0.2715
     34  CB       -13.1830  -18.8560   -0.7100 C.3    56  VAL56       0.0290
     35  CG1      -14.5940  -18.8730   -0.1260 C.3    56  VAL56       0.0023
     36  CG2      -12.7230  -20.2440   -1.1770 C.3    56  VAL56       0.0023
     37  N        -14.7120  -16.0200   -1.9130 N.am   57  ASP57      -0.1971
     38  CA       -15.2790  -14.7310   -1.5320 C.3    57  ASP57       0.1709
     39  C        -16.3340  -14.9950   -0.5130 C.2    57  ASP57       0.2293
     40  O        -17.5100  -15.2190   -0.8520 O.2    57  ASP57      -0.2864
     41  CB       -15.8130  -13.9410   -2.7560 C.3    57  ASP57       0.1436
     42  CG       -16.4650  -12.6070   -2.3250 C.2    57  ASP57       0.3671
     43  OD1      -16.5030  -12.3210   -1.0520 O.co2  57  ASP57      -0.2456
     44  OD2      -17.0300  -11.9230   -3.2370 O.co2  57  ASP57      -0.2456
     45  N        -16.9470  -12.7070    1.7780 N.3    59  SER59      -0.1202
     46  CA       -16.8840  -11.3600    2.3750 C.3    59  SER59       0.2020
     47  C        -18.2090  -10.9280    3.0100 C.2    59  SER59       0.2618
     48  O        -18.2540   -9.9670    3.8200 O.2    59  SER59      -0.2717
     49  CB       -16.3870  -10.2940    1.3350 C.3    59  SER59       0.2103
     50  OG       -17.2770  -10.1630    0.2300 O.3    59  SER59      -0.2182
     51  N        -19.3000  -11.6350    2.7000 N.am   60  ASP60      -0.1973
     52  CA       -20.5230  -11.3940    3.4400 C.3    60  ASP60       0.1709
     53  C        -20.3810  -11.6760    4.9040 C.2    60  ASP60       0.2293
     54  O        -21.0370  -11.0110    5.7210 O.2    60  ASP60      -0.2864
     55  CB       -21.7070  -12.1940    2.9150 C.3    60  ASP60       0.1436
     56  CG       -23.0070  -11.8640    3.6710 C.2    60  ASP60       0.3671
     57  OD1      -23.4150  -10.6440    3.6730 O.co2  60  ASP60      -0.2456
     58  OD2      -23.6410  -12.8130    4.2080 O.co2  60  ASP60      -0.2456
     59  N        -11.9220  -25.8940    2.6940 N.3   126  TYR126     -0.1241
     60  CA       -12.8090  -25.6560    1.5530 C.3   126  TYR126      0.1605
     61  C        -12.0550  -25.6150    0.2420 C.2   126  TYR126      0.2264
     62  O        -12.4100  -26.2780   -0.7310 O.2   126  TYR126     -0.2867
     63  CB       -13.6170  -24.3640    1.7850 C.3   126  TYR126      0.0534
     64  CG       -14.6720  -24.1720    0.7360 C.ar  126  TYR126     -0.0201
     65  CD1      -16.0170  -24.5210    0.9360 C.ar  126  TYR126     -0.0009
     66  CD2      -14.3080  -23.6320   -0.4580 C.ar  126  TYR126     -0.0009
     67  CE1      -16.9560  -24.3530   -0.1070 C.ar  126  TYR126      0.0417
     68  CE2      -15.2090  -23.4530   -1.4770 C.ar  126  TYR126      0.0417
     69  CZ       -16.5280  -23.8010   -1.3130 C.ar  126  TYR126      0.1957
     70  OH       -17.3750  -23.5820   -2.4050 O.3   126  TYR126     -0.2866
     71  N         -9.1070  -26.6970   -0.4930 N.3   128  SER128     -0.1202
     72  CA        -8.4450  -27.9320   -0.8120 C.3   128  SER128      0.2020
     73  C         -9.4280  -28.9930   -1.3520 C.2   128  SER128      0.2619
     74  O         -9.0600  -29.8010   -2.1710 O.2   128  SER128     -0.2717
     75  CB        -7.7430  -28.4820    0.4380 C.3   128  SER128      0.2103
     76  OG        -6.6270  -27.6370    0.7780 O.3   128  SER128     -0.2182
     77  N        -10.6530  -29.0310   -0.8370 N.am  129  GLU129     -0.1965
     78  CA       -11.6560  -30.0370   -1.2010 C.3   129  GLU129      0.1733
     79  C        -12.2390  -29.6730   -2.5870 C.2   129  GLU129      0.2616
     80  O        -12.4320  -30.5870   -3.4210 O.2   129  GLU129     -0.2715
     81  CB       -12.8170  -30.0230   -0.2030 C.3   129  GLU129      0.0429
     82  CG       -14.0240  -30.9350   -0.5330 C.3   129  GLU129      0.1163
     83  CD       -13.6960  -32.4020   -0.6350 C.2   129  GLU129      0.3649
     84  OE1      -12.8800  -32.8960    0.1860 O.co2 129  GLU129     -0.2457
     85  OE2      -14.2320  -33.0920   -1.5530 O.co2 129  GLU129     -0.2457
     86  N        -12.4660  -28.3810   -2.8190 N.am  130  HIS130     -0.1959
     87  CA       -13.3240  -27.9550   -3.9620 C.3   130  HIS130      0.1787
     88  C        -12.7010  -27.3160   -5.1760 C.2   130  HIS130      0.2620
     89  O        -13.3060  -27.3910   -6.2510 O.2   130  HIS130     -0.2715
     90  CB       -14.3580  -27.0060   -3.4370 C.3   130  HIS130      0.0785
     91  CG       -15.3250  -27.6500   -2.5320 C.ar  130  HIS130      0.0821
     92  ND1      -15.4770  -27.2800   -1.2030 N.ar  130  HIS130     -0.2267
     93  CD2      -16.2010  -28.6480   -2.7510 C.ar  130  HIS130      0.1154
     94  CE1      -16.4280  -28.0170   -0.6580 C.ar  130  HIS130      0.1986
     95  NE2      -16.8410  -28.8870   -1.5570 N.ar  130  HIS130     -0.2212
     96  N        -11.5310  -26.6920   -5.0360 N.am  131  LEU131     -0.1963
     97  CA       -11.0700  -25.7380   -6.0490 C.3   131  LEU131      0.1728
     98  C         -9.7990  -26.2190   -6.7360 C.2   131  LEU131      0.2616
     99  O         -8.9240  -26.8020   -6.0810 O.2   131  LEU131     -0.2715
    100  CB       -10.7800  -24.3920   -5.3800 C.3   131  LEU131      0.0311
    101  CG       -12.0160  -23.8790   -4.6410 C.3   131  LEU131      0.0022
    102  CD1      -11.8530  -22.4670   -4.0800 C.3   131  LEU131      0.0001
    103  CD2      -13.2680  -23.8740   -5.5370 C.3   131  LEU131      0.0001
    104  N         -9.6840  -25.8750   -8.0140 N.am  132  LEU132     -0.1977
    105  CA        -8.5470  -26.2340   -8.8490 C.3   132  LEU132      0.1596
    106  C         -7.4000  -25.2380   -8.5970 C.2   132  LEU132      0.2287
    107  O         -7.6070  -24.0620   -8.4140 O.2   132  LEU132     -0.2864
    108  CB        -9.0200  -26.1040  -10.3150 C.3   132  LEU132      0.0297
    109  CG        -8.2410  -26.6260  -11.4690 C.3   132  LEU132      0.0022
    110  CD1       -7.8990  -28.0900  -11.2950 C.3   132  LEU132      0.0001
    111  CD2       -9.1290  -26.5160  -12.7030 C.3   132  LEU132      0.0001
    112  N         -4.6490  -22.7990   -9.7040 N.3   134  ALA134     -0.1245
    113  CA        -4.1410  -22.0680  -10.8740 C.3   134  ALA134      0.1562
    114  C         -2.6160  -22.1520  -10.8840 C.2   134  ALA134      0.2260
    115  O         -1.9960  -22.0420   -9.8600 O.2   134  ALA134     -0.2867
    116  CB        -4.5890  -20.6360  -10.9170 C.3   134  ALA134      0.0290
    117  N        -13.8330   -6.7840   -6.7920 N.3   157  ARG157     -0.1197
    118  CA       -14.3560   -7.5910   -7.9300 C.3   157  ARG157      0.1779
    119  C        -15.2030   -6.6860   -8.7920 C.2   157  ARG157      0.2305
    120  O        -15.8280   -5.7450   -8.2980 O.2   157  ARG157     -0.2863
    121  CB       -15.1980   -8.8180   -7.4670 C.2   157  ARG157     -0.0007
    122  CG       -16.3490   -8.5040   -6.4880 C.2   157  ARG157      0.0176
    123  CD       -17.0140   -9.7320   -5.8070 C.3   157  ARG157      0.2464
    124  NE       -17.5750  -10.5730   -6.8450 N.pl3 157  ARG157     -0.0815
    125  CZ       -17.4630  -11.8800   -6.9950 C.cat 157  ARG157      0.5349
    126  NH1      -17.0130  -12.6950   -6.0410 N.pl3 157  ARG157      0.1354
    127  NH2      -17.9890  -12.3860   -8.0940 N.pl3 157  ARG157      0.1354
    128  N        -17.8110   -7.1650  -12.6420 N.3   159  ARG159     -0.1245
    129  CA       -18.6640   -8.1480  -13.2430 C.3   159  ARG159      0.1563
    130  C        -17.9080   -9.2210  -13.9810 C.2   159  ARG159      0.2260
    131  O        -18.4410  -10.3100  -14.1470 O.2   159  ARG159     -0.2867
    132  CB       -19.6560   -7.5000  -14.1860 C.3   159  ARG159      0.0307
    133  CG       -20.5760   -6.5650  -13.3930 C.3   159  ARG159      0.0489
    134  CD       -21.5070   -5.7930  -14.2520 C.3   159  ARG159      0.2205
    135  NE       -20.7670   -4.8290  -15.0330 N.pl3 159  ARG159     -0.0865
    136  CZ       -21.3180   -3.9610  -15.8600 C.cat 159  ARG159      0.5346
    137  NH1      -22.6360   -3.9080  -16.0330 N.pl3 159  ARG159      0.1354
    138  NH2      -20.5140   -3.1520  -16.5240 N.pl3 159  ARG159      0.1354
    139  N         -7.9850  -11.9710  -12.4360 N.3   174  ASN174     -0.1225
    140  CA        -8.5160  -13.2230  -12.9490 C.3   174  ASN174      0.1785
    141  C         -9.8330  -12.9430  -13.6510 C.2   174  ASN174      0.2597
    142  O        -10.7840  -12.3820  -13.0700 O.2   174  ASN174     -0.2718
    143  CB        -8.8140  -14.2800  -11.8570 C.3   174  ASN174      0.1169
    144  CG        -7.6000  -14.8800  -11.1980 C.2   174  ASN174      0.2627
    145  OD1       -6.4650  -14.4360  -11.3740 O.2   174  ASN174     -0.2716
    146  ND2       -7.8400  -15.9370  -10.4090 N.am  174  ASN174     -0.0877
    147  N         -9.9070  -13.3380  -14.9140 N.am  175  PHE175     -0.1962
    148  CA       -11.1330  -13.1710  -15.7180 C.3   175  PHE175      0.1771
    149  C        -12.0260  -14.3770  -15.5770 C.2   175  PHE175      0.2619
    150  O        -11.6230  -15.5300  -15.8380 O.2   175  PHE175     -0.2715
    151  CB       -10.8070  -12.8410  -17.1940 C.3   175  PHE175      0.0574
    152  CG       -10.0310  -11.5370  -17.3500 C.ar  175  PHE175     -0.0200
    153  CD1       -8.6700  -11.5150  -17.3070 C.ar  175  PHE175     -0.0042
    154  CD2      -10.7010  -10.3160  -17.4990 C.ar  175  PHE175     -0.0042
    155  CE1       -7.9440  -10.3160  -17.3940 C.ar  175  PHE175     -0.0003
    156  CE2      -10.0070   -9.1240  -17.5880 C.ar  175  PHE175     -0.0003
    157  CZ        -8.6260   -9.1000  -17.5750 C.ar  175  PHE175     -0.0000
    158  N        -13.2630  -14.1190  -15.1770 N.am  176  PHE176     -0.1974
    159  CA       -14.1440  -15.1970  -14.7230 C.3   176  PHE176      0.1639
    160  C        -14.4970  -16.1740  -15.8190 C.2   176  PHE176      0.2290
    161  O        -14.4460  -17.4020  -15.6320 O.2   176  PHE176     -0.2864
    162  CB       -15.4580  -14.6590  -14.0970 C.3   176  PHE176      0.0560
    163  CG       -15.3060  -13.7990  -12.8780 C.ar  176  PHE176     -0.0200
    164  CD1      -16.1090  -12.6730  -12.7660 C.ar  176  PHE176     -0.0042
    165  CD2      -14.4940  -14.1280  -11.8020 C.ar  176  PHE176     -0.0042
    166  CE1      -16.0580  -11.8490  -11.6680 C.ar  176  PHE176     -0.0003
    167  CE2      -14.4150  -13.2830  -10.7010 C.ar  176  PHE176     -0.0003
    168  CZ       -15.2160  -12.1410  -10.6350 C.ar  176  PHE176     -0.0000
    169  N        -11.2410  -17.8020  -17.9240 N.3   179  HIS179     -0.1241
    170  CA       -10.1720  -18.3300  -17.0410 C.3   179  HIS179      0.1621
    171  C         -8.7810  -17.7990  -17.3040 C.2   179  HIS179      0.2264
    172  O         -7.7890  -18.3030  -16.7490 O.2   179  HIS179     -0.2867
    173  CB       -10.1440  -19.8590  -17.1020 C.3   179  HIS179      0.0745
    174  CG       -11.4920  -20.4900  -16.8830 C.ar  179  HIS179      0.0817
    175  ND1      -12.1990  -20.3320  -15.7020 N.ar  179  HIS179     -0.2268
    176  CD2      -12.2710  -21.2410  -17.6950 C.ar  179  HIS179      0.1154
    177  CE1      -13.3410  -20.9880  -15.7820 C.ar  179  HIS179      0.1986
    178  NE2      -13.4250  -21.5240  -16.9900 N.ar  179  HIS179     -0.2212
    179  N         -5.7740  -15.0630  -16.9960 N.3   181  LYS181     -0.1245
    180  CA        -5.2960  -14.3260  -15.8180 C.3   181  LYS181      0.1561
    181  C         -4.0490  -13.5040  -16.1580 C.2   181  LYS181      0.2260
    182  O         -3.2460  -13.8880  -16.9870 O.2   181  LYS181     -0.2867
    183  CB        -4.9800  -15.2820  -14.6410 C.3   181  LYS181      0.0271
    184  CG        -6.1670  -16.2770  -14.3670 C.3   181  LYS181      0.0035
    185  CD        -5.7430  -17.3690  -13.3740 C.3   181  LYS181      0.0206
    186  CE        -6.8790  -18.2790  -12.9370 C.3   181  LYS181      0.1093
    187  NZ        -7.2840  -19.1170  -14.0790 N.3   181  LYS181     -0.1314
@<TRIPOS>BOND
     1   169   170    1
     2   176   178   ar
     3   176   174   ar
     4   156   157   ar
     5   156   154   ar
     6   157   155   ar
     7   154   152   ar
     8   155   153   ar
     9   152   153   ar
    10   152   151    1
    11   171   170    1
    12   171   172    2
    13   151   148    1
    14   173   170    1
    15   173   174    1
    16   179   180    1
    17   178   177   ar
    18   182   181    2
    19   174   175   ar
    20   138   136    1
    21   181   180    1
    22   137   136    1
    23   136   135    2
    24   150   149    2
    25   160   161    2
    26   160   159    1
    27   180   183    1
    28   177   175   ar
    29   148   149    1
    30   148   147    1
    31   149   158   am
    32   158   159    1
    33   135   134    1
    34   147   141   am
    35   159   162    1
    36   183   184    1
    37   184   185    1
    38   134   133    1
    39   132   133    1
    40   132   129    1
    41   131   130    2
    42   162   163    1
    43   187   186    1
    44   130   129    1
    45   141   142    2
    46   141   140    1
    47   185   186    1
    48   129   128    1
    49   140   139    1
    50   140   143    1
    51   163   164   ar
    52   163   165   ar
    53   164   166   ar
    54   111   109    1
    55   143   144    1
    56   165   167   ar
    57   166   168   ar
    58   109   110    1
    59   109   108    1
    60   145   144    2
    61   144   146   am
    62   116   113    1
    63   114   113    1
    64   114   115    2
    65   113   112    1
    66   167   168   ar
    67   108   105    1
    68   105   106    1
    69   105   104    1
    70   119   120    2
    71   119   118    1
    72   106   107    2
    73   127   125    1
    74   104    98   am
    75    27    25   ar
    76    27    29   ar
    77   118   121    1
    78   118   117    1
    79    24    25   ar
    80    24    22   ar
    81     4     3    2
    82   121   122    2
    83    25    23   ar
    84    29    28   ar
    85     2     3    1
    86     2     5    1
    87     2     1    1
    88   125   124    2
    89   125   126    1
    90   124   123    1
    91    22    21   ar
    92     3     7   am
    93    98    99    2
    94    98    97    1
    95     5     6    1
    96   122   123    1
    97    89    88    2
    98    97   100    1
    99    97    96    1
   100    23    21   ar
   101    23    26   ar
   102    28    26   ar
   103     7     8    1
   104    21    20    1
   105   103   101    1
   106   100   101    1
   107     8     9    1
   108     8    11    1
   109    88    96   am
   110    88    87    1
   111    12    11    1
   112    12    13    1
   113    14    13    1
   114    14    15    1
   115   101   102    1
   116    16     9   am
   117    16    17    1
   118     9    10    2
   119    19    18    2
   120    20    17    1
   121    87    90    1
   122    87    86    1
   123    17    18    1
   124    18    30   am
   125    90    91    1
   126    80    79    2
   127    44    42   ar
   128    86    79   am
   129    41    42    1
   130    41    38    1
   131    93    91   ar
   132    93    95   ar
   133    79    78    1
   134    91    92   ar
   135    70    69    1
   136    42    43   ar
   137    30    31    1
   138    74    73    2
   139    37    38    1
   140    37    32   am
   141    31    32    1
   142    31    34    1
   143    95    94   ar
   144    85    83   ar
   145    38    39    1
   146    68    69   ar
   147    68    66   ar
   148    73    77   am
   149    73    72    1
   150    32    33    2
   151    69    67   ar
   152    92    94   ar
   153    78    77    1
   154    78    81    1
   155    36    34    1
   156    40    39    2
   157    72    71    1
   158    72    75    1
   159    62    61    2
   160    34    35    1
   161    83    82    1
   162    83    84   ar
   163    82    81    1
   164    66    64   ar
   165    67    65   ar
   166    50    49    1
   167    61    60    1
   168    75    76    1
   169    64    65   ar
   170    64    63    1
   171    49    46    1
   172    60    63    1
   173    60    59    1
   174    45    46    1
   175    46    47    1
   176    51    47   am
   177    51    52    1
   178    55    52    1
   179    55    56    1
   180    47    48    2
   181    52    53    1
   182    56    57   ar
   183    56    58   ar
   184    53    54    2
