@<TRIPOS>MOLECULE
tmp/4o5fA00.pdb
 100 93 0 0 0
SMALL
GASTEIGER

@<TRIPOS>ATOM
      1  N         -1.4990   23.1380   25.3330 N.3    11  GLY11      -0.1210
      2  CA        -2.2790   23.0600   24.1030 C.3    11  GLY11       0.1956
      3  C         -3.0520   21.7790   24.0280 C.2    11  GLY11       0.2611
      4  O         -2.9540   20.9290   24.9150 O.2    11  GLY11      -0.2717
      5  N         -3.7990   21.5790   22.9460 N.am   12  ASN12      -0.1974
      6  CA        -4.5930   20.3900   22.8020 C.3    12  ASN12       0.1688
      7  C         -3.7850   19.1070   22.6870 C.2    12  ASN12       0.2292
      8  O         -4.2720   18.0500   23.0390 O.2    12  ASN12      -0.2864
      9  CB        -5.5570   20.5100   21.6170 C.3    12  ASN12       0.1181
     10  CG        -6.6760   21.4870   21.8910 C.2    12  ASN12       0.2629
     11  OD1       -7.6360   21.1580   22.6170 O.2    12  ASN12      -0.2716
     12  ND2       -6.5720   22.6880   21.3340 N.am   12  ASN12      -0.0877
     13  N         -5.3830   26.2020   26.5060 N.3    55  VAL55      -0.1245
     14  CA        -6.4880   26.1080   25.5310 C.3    55  VAL55       0.1561
     15  C         -7.0760   24.7000   25.4140 C.2    55  VAL55       0.2260
     16  O         -7.8960   24.4160   24.5240 O.2    55  VAL55      -0.2867
     17  CB        -6.0180   26.5880   24.1270 C.3    55  VAL55       0.0252
     18  CG1       -5.5050   28.0170   24.2390 C.3    55  VAL55       0.0019
     19  CG2       -4.9670   25.6550   23.5000 C.3    55  VAL55       0.0019
     20  N         -9.2060   41.4910   17.5350 N.3    93  TYR93      -0.1241
     21  CA       -10.3880   40.6420   17.5310 C.3    93  TYR93       0.1605
     22  C        -11.6180   41.4900   17.8950 C.2    93  TYR93       0.2264
     23  O        -11.5320   42.4600   18.6740 O.2    93  TYR93      -0.2867
     24  CB       -10.2600   39.4530   18.4870 C.3    93  TYR93       0.0534
     25  CG       -10.0950   38.1060   17.8250 C.ar   93  TYR93      -0.0201
     26  CD1       -9.4070   37.9730   16.6490 C.ar   93  TYR93      -0.0009
     27  CD2      -10.6060   36.9530   18.4400 C.ar   93  TYR93      -0.0009
     28  CE1       -9.2360   36.7320   16.0560 C.ar   93  TYR93       0.0417
     29  CE2      -10.4620   35.7140   17.8520 C.ar   93  TYR93       0.0417
     30  CZ        -9.7670   35.6190   16.6700 C.ar   93  TYR93       0.1957
     31  OH        -9.6330   34.3800   16.0550 O.3    93  TYR93      -0.2866
     32  N        -11.8520   36.5050   23.2440 N.3    98  ARG98      -0.1231
     33  CA       -12.1080   35.2270   22.5510 C.3    98  ARG98       0.1694
     34  C        -10.8890   34.6780   21.8240 C.2    98  ARG98       0.2592
     35  O        -10.8910   33.5040   21.3850 O.2    98  ARG98      -0.2718
     36  CB       -13.3040   35.3320   21.6270 C.3    98  ARG98       0.0321
     37  CG       -14.5560   35.5230   22.4900 C.3    98  ARG98       0.0489
     38  CD       -15.8280   35.1740   21.8030 C.3    98  ARG98       0.2205
     39  NE       -16.9580   35.4670   22.6880 N.pl3  98  ARG98      -0.0865
     40  CZ       -17.5080   34.6110   23.5540 C.cat  98  ARG98       0.5346
     41  NH1      -17.0330   33.3750   23.7030 N.pl3  98  ARG98       0.1354
     42  NH2      -18.5460   34.9970   24.2920 N.pl3  98  ARG98       0.1354
     43  N         -9.8530   35.5000   21.6740 N.am   99  LEU99      -0.1966
     44  CA        -8.6180   34.9930   21.0410 C.3    99  LEU99       0.1728
     45  C         -7.9460   33.9780   21.9450 C.2    99  LEU99       0.2616
     46  O         -7.8430   34.1700   23.1820 O.2    99  LEU99      -0.2715
     47  CB        -7.6390   36.1350   20.7960 C.3    99  LEU99       0.0311
     48  CG        -6.3150   35.7820   20.1340 C.3    99  LEU99       0.0022
     49  CD1       -6.5670   35.3190   18.7140 C.3    99  LEU99       0.0001
     50  CD2       -5.3960   36.9840   20.1500 C.3    99  LEU99       0.0001
     51  N         -7.4200   32.9040   21.3450 N.am  100  GLY100     -0.1955
     52  CA        -6.7170   31.9060   22.1100 C.3   100  GLY100      0.1869
     53  C         -5.5590   32.4890   22.8990 C.2   100  GLY100      0.2309
     54  O         -4.8140   33.3420   22.3960 O.2   100  GLY100     -0.2863
     55  N         -2.7990   31.1690   23.8650 N.3   102  ASP102     -0.1225
     56  CA        -1.5560   30.7840   23.2170 C.3   102  ASP102      0.1805
     57  C         -1.2010   31.7290   22.0880 C.2   102  ASP102      0.2597
     58  O         -0.0570   32.2310   22.0250 O.2   102  ASP102     -0.2718
     59  CB        -1.5410   29.3100   22.7950 C.3   102  ASP102      0.1424
     60  CG        -2.6780   28.8940   21.8860 C.2   102  ASP102      0.3668
     61  OD1       -3.6700   29.5880   21.6360 O.co2 102  ASP102     -0.2456
     62  OD2       -2.5380   27.7240   21.4470 O.co2 102  ASP102     -0.2456
     63  N         -2.1750   32.0300   21.2650 N.am  103  ARG103     -0.1979
     64  CA        -1.9800   32.9970   20.1660 C.3   103  ARG103      0.1597
     65  C         -1.5930   34.3750   20.6830 C.2   103  ARG103      0.2287
     66  O         -0.7180   35.0330   20.1280 O.2   103  ARG103     -0.2864
     67  CB        -3.2350   33.0710   19.3030 C.3   103  ARG103      0.0334
     68  CG        -3.5980   31.7250   18.7020 C.3   103  ARG103      0.0492
     69  CD        -4.8970   31.7740   17.9270 C.3   103  ARG103      0.2205
     70  NE        -4.7330   32.4240   16.6430 N.pl3 103  ARG103     -0.0865
     71  CZ        -5.7270   32.7970   15.8500 C.cat 103  ARG103      0.5346
     72  NH1       -6.9850   32.6910   16.2430 N.pl3 103  ARG103      0.1354
     73  NH2       -5.4720   33.3130   14.6780 N.pl3 103  ARG103      0.1354
     74  N         -1.8480   21.2950   16.9700 N.3   126  THR126     -0.1203
     75  CA        -3.0760   20.5640   16.6460 C.3   126  THR126      0.1994
     76  C         -3.7450   21.2660   15.4900 C.2   126  THR126      0.2617
     77  O         -4.1920   20.6530   14.5010 O.2   126  THR126     -0.2717
     78  CB        -4.0280   20.5390   17.8550 C.3   126  THR126      0.1784
     79  OG1       -3.3280   19.9210   18.9490 O.3   126  THR126     -0.2211
     80  CG2       -5.2610   19.7810   17.5640 C.3   126  THR126      0.0376
     81  N         -3.8740   22.5810   15.6490 N.am  127  ALA127     -0.1979
     82  CA        -4.3040   23.4810   14.5860 C.3   127  ALA127      0.1597
     83  C         -3.0880   24.1670   13.9750 C.2   127  ALA127      0.2287
     84  O         -2.0380   24.3010   14.6310 O.2   127  ALA127     -0.2864
     85  CB        -5.2530   24.5550   15.1090 C.3   127  ALA127      0.0319
     86  N         -2.3250   27.9050   12.9460 N.3   129  THR129     -0.1218
     87  CA        -2.8890   29.2490   13.0990 C.3   129  THR129      0.1862
     88  C         -2.0080   30.2560   12.4140 C.2   129  THR129      0.2287
     89  O         -0.8180   30.0320   12.2710 O.2   129  THR129     -0.2866
     90  CB        -3.0850   29.6730   14.5700 C.3   129  THR129      0.1770
     91  OG1       -1.8140   29.7230   15.2180 O.3   129  THR129     -0.2211
     92  CG2       -3.9620   28.7520   15.3060 C.3   129  THR129      0.0375
     93  N         -7.4390   30.0810   11.0060 N.3   144  ILE144     -0.1245
     94  CA        -7.2640   28.8090   11.6810 C.3   144  ILE144      0.1561
     95  C         -7.6040   27.6720   10.7350 C.2   144  ILE144      0.2260
     96  O         -8.6180   27.7350   10.0460 O.2   144  ILE144     -0.2867
     97  CB        -8.1910   28.6650   12.9150 C.3   144  ILE144      0.0252
     98  CG1       -7.9820   29.8230   13.9170 C.3   144  ILE144      0.0019
     99  CG2       -7.9740   27.3290   13.5990 C.3   144  ILE144      0.0019
    100  CD1       -9.0580   29.8830   14.9810 C.3   144  ILE144      0.0001
@<TRIPOS>BOND
     1    96    95    2
     2    95    94    1
     3    93    94    1
     4    94    97    1
     5    89    88    2
     6    88    87    1
     7    97    99    1
     8    97    98    1
     9    86    87    1
    10    87    90    1
    11    98   100    1
    12    83    82    1
    13    83    84    2
    14    77    76    2
    15    90    91    1
    16    90    92    1
    17    82    85    1
    18    82    81    1
    19    73    71    1
    20    76    81   am
    21    76    75    1
    22    71    72    1
    23    71    70    2
    24    31    30    1
    25    28    26   ar
    26    28    30   ar
    27    70    69    1
    28    75    74    1
    29    75    78    1
    30    26    25   ar
    31    30    29   ar
    32    21    20    1
    33    21    22    1
    34    21    24    1
    35    80    78    1
    36    25    27   ar
    37    25    24    1
    38    29    27   ar
    39    78    79    1
    40    22    23    2
    41    69    68    1
    42    68    67    1
    43    49    48    1
    44    67    64    1
    45    66    65    2
    46    48    50    1
    47    48    47    1
    48    64    65    1
    49    64    63    1
    50    47    44    1
    51    44    43    1
    52    44    45    1
    53    63    57   am
    54    12    10   am
    55    51    45   am
    56    51    52    1
    57    35    34    2
    58    62    60   ar
    59     9    10    1
    60     9     6    1
    61    36    37    1
    62    36    33    1
    63    61    60   ar
    64    43    34   am
    65    38    37    1
    66    38    39    1
    67    34    33    1
    68    60    59    1
    69    10    11    2
    70    45    46    2
    71    58    57    2
    72    57    56    1
    73    52    53    1
    74    54    53    2
    75    33    32    1
    76     7     6    1
    77     7     8    2
    78    39    40    2
    79    59    56    1
    80     6     5    1
    81     5     3   am
    82    56    55    1
    83    19    17    1
    84    40    41    1
    85    40    42    1
    86     3     2    1
    87     3     4    2
    88     2     1    1
    89    17    18    1
    90    17    14    1
    91    16    15    2
    92    15    14    1
    93    14    13    1
