@<TRIPOS>MOLECULE
tmp/4o5fA01.pdb
 108 101 0 0 0
SMALL
GASTEIGER

@<TRIPOS>ATOM
      1  N          2.4530   26.3410   28.8070 N.3     9  ASP9       -0.1239
      2  CA         1.7450   26.4980   27.5370 C.3     9  ASP9        0.1674
      3  C          1.0480   25.1640   27.2770 C.2     9  ASP9        0.2266
      4  O          1.6440   24.2420   26.7470 O.2     9  ASP9       -0.2867
      5  CB         2.7270   26.8350   26.4100 C.3     9  ASP9        0.1410
      6  CG         2.1030   26.7010   25.0200 C.2     9  ASP9        0.3668
      7  OD1        0.8760   26.7090   24.8630 O.co2   9  ASP9       -0.2456
      8  OD2        2.8500   26.5170   24.0400 O.co2   9  ASP9       -0.2456
      9  N         -1.4990   23.1380   25.3330 N.3    11  GLY11      -0.1210
     10  CA        -2.2790   23.0600   24.1030 C.3    11  GLY11       0.1956
     11  C         -3.0520   21.7790   24.0280 C.2    11  GLY11       0.2612
     12  O         -2.9540   20.9290   24.9150 O.2    11  GLY11      -0.2717
     13  N         -3.7990   21.5790   22.9460 N.am   12  ASN12      -0.1960
     14  CA        -4.5930   20.3900   22.8020 C.3    12  ASN12       0.1819
     15  C         -3.7850   19.1070   22.6870 C.2    12  ASN12       0.2622
     16  O         -4.2720   18.0500   23.0390 O.2    12  ASN12      -0.2715
     17  CB        -5.5570   20.5100   21.6170 C.3    12  ASN12       0.1195
     18  CG        -6.6760   21.4870   21.8910 C.2    12  ASN12       0.2630
     19  OD1       -7.6360   21.1580   22.6170 O.2    12  ASN12      -0.2716
     20  ND2       -6.5720   22.6880   21.3340 N.am   12  ASN12      -0.0877
     21  N         -2.5410   19.1840   22.2250 N.am   13  SER13      -0.1936
     22  CA        -1.7610   17.9660   22.0240 C.3    13  SER13       0.2055
     23  C         -0.7740   17.7110   23.1510 C.2    13  SER13       0.2642
     24  O         -0.5600   16.5650   23.5360 O.2    13  SER13      -0.2714
     25  CB        -1.0750   17.9960   20.6640 C.3    13  SER13       0.2130
     26  OG        -2.0390   17.7230   19.6590 O.3    13  SER13      -0.2179
     27  N         -0.2020   18.7680   23.6990 N.am   14  ARG14      -0.1977
     28  CA         0.7330   18.5700   24.8050 C.3    14  ARG14       0.1597
     29  C          0.8970   19.8330   25.6210 C.2    14  ARG14       0.2287
     30  O          0.2850   20.8580   25.3380 O.2    14  ARG14      -0.2864
     31  CB         2.0840   18.0440   24.2940 C.3    14  ARG14       0.0334
     32  CG         2.7740   18.9940   23.3450 C.3    14  ARG14       0.0492
     33  CD         4.0200   18.3810   22.7420 C.3    14  ARG14       0.2205
     34  NE         4.7860   19.4100   22.0460 N.pl3  14  ARG14      -0.0865
     35  CZ         6.0850   19.3390   21.7780 C.cat  14  ARG14       0.5346
     36  NH1        6.7960   18.2770   22.1390 N.pl3  14  ARG14       0.1354
     37  NH2        6.6760   20.3490   21.1530 N.pl3  14  ARG14       0.1354
     38  N          3.7090   22.3050   27.3050 N.3    16  LYS16      -0.1245
     39  CA         5.0840   22.7560   27.2780 C.3    16  LYS16       0.1561
     40  C          5.2970   23.7090   28.4280 C.2    16  LYS16       0.2260
     41  O          4.3680   24.3760   28.8660 O.2    16  LYS16      -0.2867
     42  CB         5.3920   23.4480   25.9650 C.3    16  LYS16       0.0271
     43  CG         5.3770   22.4960   24.7820 C.3    16  LYS16       0.0035
     44  CD         5.3860   23.2540   23.4690 C.3    16  LYS16       0.0206
     45  CE         6.7720   23.8100   23.1780 C.3    16  LYS16       0.1093
     46  NZ         6.7500   24.5620   21.8900 N.3    16  LYS16      -0.1314
     47  N         -5.3830   26.2020   26.5060 N.3    55  VAL55      -0.1245
     48  CA        -6.4880   26.1080   25.5310 C.3    55  VAL55       0.1561
     49  C         -7.0760   24.7000   25.4140 C.2    55  VAL55       0.2260
     50  O         -7.8960   24.4160   24.5240 O.2    55  VAL55      -0.2867
     51  CB        -6.0180   26.5880   24.1270 C.3    55  VAL55       0.0252
     52  CG1       -5.5050   28.0170   24.2390 C.3    55  VAL55       0.0019
     53  CG2       -4.9670   25.6550   23.5000 C.3    55  VAL55       0.0019
     54  N         -2.7990   31.1690   23.8650 N.3   102  ASP102     -0.1239
     55  CA        -1.5560   30.7840   23.2170 C.3   102  ASP102      0.1674
     56  C         -1.2010   31.7290   22.0880 C.2   102  ASP102      0.2266
     57  O         -0.0570   32.2310   22.0250 O.2   102  ASP102     -0.2867
     58  CB        -1.5410   29.3100   22.7950 C.3   102  ASP102      0.1410
     59  CG        -2.6780   28.8940   21.8860 C.2   102  ASP102      0.3668
     60  OD1       -3.6700   29.5880   21.6360 O.co2 102  ASP102     -0.2456
     61  OD2       -2.5380   27.7240   21.4470 O.co2 102  ASP102     -0.2456
     62  N          1.8370   29.0780   13.2600 N.3   123  THR123     -0.1203
     63  CA         2.1590   28.1500   14.3580 C.3   123  THR123      0.1994
     64  C          1.4920   26.8240   14.0770 C.2   123  THR123      0.2618
     65  O          0.2650   26.7450   13.8590 O.2   123  THR123     -0.2717
     66  CB         1.6500   28.7160   15.6950 C.3   123  THR123      0.1784
     67  OG1        2.1650   30.0390   15.8770 O.3   123  THR123     -0.2211
     68  CG2        2.1250   27.8420   16.8420 C.3   123  THR123      0.0376
     69  N          2.3140   25.7860   14.0390 N.am  124  PHE124     -0.1961
     70  CA         1.8900   24.4250   13.6360 C.3   124  PHE124      0.1771
     71  C          1.7380   23.5460   14.8450 C.2   124  PHE124      0.2620
     72  O          2.7330   23.1140   15.4640 O.2   124  PHE124     -0.2715
     73  CB         2.8800   23.8160   12.6560 C.3   124  PHE124      0.0574
     74  CG         3.1670   24.7020   11.4970 C.ar  124  PHE124     -0.0200
     75  CD1        2.1720   25.1050   10.6550 C.ar  124  PHE124     -0.0042
     76  CD2        4.4380   25.2180   11.3090 C.ar  124  PHE124     -0.0042
     77  CE1        2.4260   25.9720    9.6250 C.ar  124  PHE124     -0.0003
     78  CE2        4.7010   26.0490   10.2630 C.ar  124  PHE124     -0.0003
     79  CZ         3.7070   26.4510    9.4310 C.ar  124  PHE124     -0.0000
     80  N          0.4970   23.3170   15.2850 N.am  125  GLY125     -0.1940
     81  CA         0.2220   22.4500   16.4040 C.3   125  GLY125      0.2014
     82  C         -0.9460   21.5440   16.0320 C.2   125  GLY125      0.2639
     83  O         -1.0350   21.0990   14.8930 O.2   125  GLY125     -0.2714
     84  N         -1.8480   21.2950   16.9700 N.am  126  THR126     -0.1950
     85  CA        -3.0760   20.5640   16.6460 C.3   126  THR126      0.1897
     86  C         -3.7450   21.2660   15.4900 C.2   126  THR126      0.2313
     87  O         -4.1920   20.6530   14.5010 O.2   126  THR126     -0.2863
     88  CB        -4.0280   20.5390   17.8550 C.3   126  THR126      0.1794
     89  OG1       -3.3280   19.9210   18.9490 O.3   126  THR126     -0.2208
     90  CG2       -5.2610   19.7810   17.5640 C.3   126  THR126      0.0378
     91  N         -1.2230   16.6990   11.1880 N.3   149  ALA149     -0.1245
     92  CA        -1.5890   15.3980   11.7280 C.3   149  ALA149      0.1562
     93  C         -3.0980   15.2500   11.8710 C.2   149  ALA149      0.2260
     94  O         -3.6650   14.1780   11.6550 O.2   149  ALA149     -0.2867
     95  CB        -0.8870   15.1210   13.0100 C.3   149  ALA149      0.0290
     96  N          6.8340   25.3010   15.3810 N.3   227  GLY227     -0.1210
     97  CA         6.1900   24.0120   15.5720 C.3   227  GLY227      0.1956
     98  C          6.7890   22.8240   14.8660 C.2   227  GLY227      0.2612
     99  O          7.5360   22.9970   13.9130 O.2   227  GLY227     -0.2717
    100  N          6.4200   21.6370   15.3190 N.am  228  GLY228     -0.1942
    101  CA         6.9920   20.3650   14.8380 C.3   228  GLY228      0.2014
    102  C          6.8990   20.1580   13.3300 C.2   228  GLY228      0.2638
    103  O          7.8340   19.6430   12.7150 O.2   228  GLY228     -0.2714
    104  N          5.7970   20.5810   12.7270 N.am  229  ALA229     -0.1977
    105  CA         5.6140   20.3280   11.3010 C.3   229  ALA229      0.1597
    106  C          6.3740   21.3430   10.4600 C.2   229  ALA229      0.2287
    107  O          6.4130   21.2220    9.2360 O.2   229  ALA229     -0.2864
    108  CB         4.1400   20.3670   10.8990 C.3   229  ALA229      0.0319
@<TRIPOS>BOND
     1   107   106    2
     2    79    77   ar
     3    79    78   ar
     4    77    75   ar
     5    78    76   ar
     6   106   105    1
     7    75    74   ar
     8   108   105    1
     9    91    92    1
    10   105   104    1
    11    76    74   ar
    12    74    73    1
    13    94    93    2
    14    92    93    1
    15    92    95    1
    16    73    70    1
    17   103   102    2
    18   104   102   am
    19    62    63    1
    20   102   101    1
    21    70    69    1
    22    70    71    1
    23    65    64    2
    24    99    98    2
    25    69    64   am
    26    64    63    1
    27    63    66    1
    28    87    86    2
    29   101   100    1
    30    71    80   am
    31    71    72    2
    32    98   100   am
    33    98    97    1
    34    83    82    2
    35    80    81    1
    36    96    97    1
    37    86    85    1
    38    66    67    1
    39    66    68    1
    40    82    81    1
    41    82    84   am
    42    85    84    1
    43    85    88    1
    44    90    88    1
    45    88    89    1
    46    26    25    1
    47    25    22    1
    48    37    35    1
    49    20    18   am
    50    61    59   ar
    51    17    18    1
    52    17    14    1
    53    60    59   ar
    54    35    34    2
    55    35    36    1
    56    59    58    1
    57    46    45    1
    58    18    19    2
    59    22    21    1
    60    22    23    1
    61    57    56    2
    62    34    33    1
    63    56    55    1
    64    21    15   am
    65    15    14    1
    66    15    16    2
    67    33    32    1
    68    58    55    1
    69    14    13    1
    70    13    11   am
    71    23    24    2
    72    23    27   am
    73    45    44    1
    74    55    54    1
    75    32    31    1
    76    44    43    1
    77    53    51    1
    78    27    28    1
    79    11    10    1
    80    11    12    2
    81     8     6   ar
    82    10     9    1
    83    51    52    1
    84    51    48    1
    85    31    28    1
    86    50    49    2
    87    43    42    1
    88    28    29    1
    89     7     6   ar
    90     6     5    1
    91    30    29    2
    92    49    48    1
    93    48    47    1
    94    42    39    1
    95     5     2    1
    96     4     3    2
    97     3     2    1
    98    39    38    1
    99    39    40    1
   100     2     1    1
   101    40    41    2
