@<TRIPOS>MOLECULE
tmp/4o5gB00.pdb
 138 135 0 0 0
SMALL
GASTEIGER

@<TRIPOS>ATOM
      1  N         75.1700  454.2950    3.2640 N.3    54  GLY54      -0.1210
      2  CA        74.6930  455.5330    2.6760 C.3    54  GLY54       0.1956
      3  C         73.7130  456.2880    3.5520 C.2    54  GLY54       0.2612
      4  O         73.5880  456.0230    4.7470 O.2    54  GLY54      -0.2717
      5  N         73.0120  457.2350    2.9420 N.am   55  ASP55      -0.1959
      6  CA        72.0810  458.0910    3.6560 C.3    55  ASP55       0.1840
      7  C         70.6550  457.5820    3.4830 C.2    55  ASP55       0.2622
      8  O         70.0050  457.8570    2.4750 O.2    55  ASP55      -0.2715
      9  CB        72.1950  459.5240    3.1380 C.3    55  ASP55       0.1450
     10  CG        73.6320  459.9300    2.8710 C.2    55  ASP55       0.3671
     11  OD1       74.0960  459.7690    1.7230 O.co2  55  ASP55      -0.2456
     12  OD2       74.3040  460.4010    3.8090 O.co2  55  ASP55      -0.2456
     13  N         70.1770  456.8300    4.4670 N.am   56  LEU56      -0.1963
     14  CA        68.8210  456.3050    4.4340 C.3    56  LEU56       0.1728
     15  C         67.8230  457.4430    4.6130 C.2    56  LEU56       0.2616
     16  O         66.6920  457.3770    4.1370 O.2    56  LEU56      -0.2715
     17  CB        68.6390  455.2450    5.5200 C.3    56  LEU56       0.0311
     18  CG        69.7420  454.1830    5.5540 C.3    56  LEU56       0.0022
     19  CD1       69.4500  453.1430    6.6160 C.3    56  LEU56       0.0001
     20  CD2       69.9230  453.5310    4.1850 C.3    56  LEU56       0.0001
     21  N         68.2530  458.4900    5.3050 N.am   57  LEU57      -0.1977
     22  CA        67.4480  459.6920    5.4400 C.3    57  LEU57       0.1596
     23  C         68.0440  460.8100    4.5990 C.2    57  LEU57       0.2287
     24  O         69.2620  460.9580    4.5170 O.2    57  LEU57      -0.2864
     25  CB        67.3570  460.1180    6.9040 C.3    57  LEU57       0.0297
     26  CG        66.5500  459.1890    7.8080 C.3    57  LEU57       0.0022
     27  CD1       66.7000  459.6000    9.2580 C.3    57  LEU57       0.0001
     28  CD2       65.0840  459.1940    7.3960 C.3    57  LEU57       0.0001
     29  N         67.2690  464.2550    4.9570 N.3    59  SER59      -0.1202
     30  CA        67.5800  465.3950    5.8100 C.3    59  SER59       0.2020
     31  C         68.7510  465.0950    6.7400 C.2    59  SER59       0.2618
     32  O         68.7440  464.1000    7.4630 O.2    59  SER59      -0.2717
     33  CB        66.3540  465.8050    6.6250 C.3    59  SER59       0.2103
     34  OG        66.6160  466.9780    7.3740 O.3    59  SER59      -0.2182
     35  N         69.7520  465.9700    6.7210 N.am   60  ARG60      -0.1979
     36  CA        70.9640  465.7740    7.5110 C.3    60  ARG60       0.1597
     37  C         70.7480  465.9740    9.0090 C.2    60  ARG60       0.2287
     38  O         71.2330  465.1860    9.8210 O.2    60  ARG60      -0.2864
     39  CB        72.0810  466.6980    7.0170 C.3    60  ARG60       0.0334
     40  CG        72.4540  466.2880    5.5590 C.3    60  ARG60       0.0492
     41  CD        73.5400  465.2580    5.6620 C.3    60  ARG60       0.2205
     42  NE        73.8990  464.5280    4.4790 N.pl3  60  ARG60      -0.0865
     43  CZ        73.1610  463.8010    3.6300 C.cat  60  ARG60       0.5346
     44  NH1       71.8720  463.5090    3.8870 N.pl3  60  ARG60       0.1354
     45  NH2       73.7590  463.3920    2.4860 N.pl3  60  ARG60       0.1354
     46  N         61.4540  455.0410    7.8120 N.3    71  LEU71      -0.1245
     47  CA        62.7400  454.3890    8.0470 C.3    71  LEU71       0.1561
     48  C         62.6020  453.2130    9.0100 C.2    71  LEU71       0.2260
     49  O         62.9890  452.0890    8.6910 O.2    71  LEU71      -0.2867
     50  CB        63.7750  455.3830    8.5780 C.3    71  LEU71       0.0270
     51  CG        65.1450  454.7870    8.9320 C.3    71  LEU71       0.0019
     52  CD1       65.7770  454.0970    7.7300 C.3    71  LEU71       0.0001
     53  CD2       66.0760  455.8500    9.4820 C.3    71  LEU71       0.0001
     54  N         63.1170  449.2940    8.3020 N.3    75  LEU75      -0.1245
     55  CA        64.1160  448.5730    9.0870 C.3    75  LEU75       0.1561
     56  C         63.4690  447.3290    9.6730 C.2    75  LEU75       0.2260
     57  O         64.0420  446.2430    9.6440 O.2    75  LEU75      -0.2867
     58  CB        64.6720  449.4460   10.2170 C.3    75  LEU75       0.0270
     59  CG        65.6300  450.5750    9.8360 C.3    75  LEU75       0.0019
     60  CD1       65.9980  451.3950   11.0580 C.3    75  LEU75       0.0001
     61  CD2       66.8740  450.0170    9.1760 C.3    75  LEU75       0.0001
     62  N         73.5730  448.1630    9.9600 N.3    86  VAL86      -0.1231
     63  CA        73.4420  449.5350    9.4920 C.3    86  VAL86       0.1692
     64  C         74.6820  450.3650    9.7880 C.2    86  VAL86       0.2592
     65  O         75.0870  450.5130   10.9420 O.2    86  VAL86      -0.2718
     66  CB        72.2190  450.2330   10.1170 C.3    86  VAL86       0.0266
     67  CG1       72.1260  451.6840    9.6390 C.3    86  VAL86       0.0020
     68  CG2       70.9510  449.4730    9.7810 C.3    86  VAL86       0.0020
     69  N         75.2810  450.8940    8.7290 N.am   87  LEU87      -0.1966
     70  CA        76.3290  451.8940    8.8520 C.3    87  LEU87       0.1713
     71  C         75.7410  453.2550    8.5080 C.2    87  LEU87       0.2458
     72  O         75.4680  453.5390    7.3450 O.2    87  LEU87      -0.2730
     73  CB        77.4900  451.5810    7.9110 C.3    87  LEU87       0.0310
     74  CG        78.6010  452.6320    7.8990 C.3    87  LEU87       0.0022
     75  CD1       79.4480  452.5270    9.1540 C.3    87  LEU87       0.0001
     76  CD2       79.4600  452.5100    6.6520 C.3    87  LEU87       0.0001
     77  N         75.5420  454.1030    9.5250 N.am   88  PRO88      -0.2716
     78  CA        74.9360  455.4230    9.3290 C.3    88  PRO88       0.1536
     79  C         75.8350  456.3520    8.5200 C.2    88  PRO88       0.2599
     80  O         77.0590  456.2560    8.6100 O.2    88  PRO88      -0.2715
     81  CB        74.7960  455.9510   10.7580 C.3    88  PRO88       0.0310
     82  CG        75.8860  455.2660   11.5110 C.3    88  PRO88       0.0237
     83  CD        75.9640  453.8890   10.9200 C.3    88  PRO88       0.0939
     84  N         75.2280  457.2400    7.7380 N.am   89  GLY89      -0.1941
     85  CA        75.9800  458.2270    6.9860 C.3    89  GLY89       0.2014
     86  C         76.4160  459.3800    7.8690 C.2    89  GLY89       0.2639
     87  O         76.6050  459.2100    9.0740 O.2    89  GLY89      -0.2714
     88  N         76.5790  460.5560    7.2740 N.am   90  ASN90      -0.1958
     89  CA        76.9510  461.7420    8.0350 C.3    90  ASN90       0.1819
     90  C         75.8800  462.1220    9.0550 C.2    90  ASN90       0.2621
     91  O         75.0280  462.9720    8.7940 O.2    90  ASN90      -0.2715
     92  CB        77.2360  462.9210    7.1030 C.3    90  ASN90       0.1195
     93  CG        77.7760  464.1310    7.8430 C.2    90  ASN90       0.2630
     94  OD1       78.3440  464.0060    8.9290 O.2    90  ASN90      -0.2716
     95  ND2       77.6010  465.3100    7.2580 N.am   90  ASN90      -0.0877
     96  N         75.9290  461.4760   10.2150 N.am   91  HIS91      -0.1973
     97  CA        74.9900  461.7610   11.2930 C.3    91  HIS91       0.1656
     98  C         75.2340  463.1420   11.8930 C.2    91  HIS91       0.2291
     99  O         76.3740  463.6010   11.9770 O.2    91  HIS91      -0.2864
    100  CB        75.0530  460.6760   12.3750 C.3    91  HIS91       0.0771
    101  CG        76.4470  460.2800   12.7650 C.ar   91  HIS91       0.0820
    102  ND1       77.5270  461.1220   12.6340 N.ar   91  HIS91      -0.2267
    103  CD2       76.9260  459.1240   13.2830 C.ar   91  HIS91       0.1154
    104  CE1       78.6190  460.5010   13.0560 C.ar   91  HIS91       0.1986
    105  NE2       78.2800  459.2910   13.4540 N.ar   91  HIS91      -0.2212
    106  N         72.4830  464.5050   14.3690 N.3    93  TRP93      -0.1241
    107  CA        71.6980  464.5400   15.6000 C.3    93  TRP93       0.1605
    108  C         72.1850  463.5020   16.6140 C.2    93  TRP93       0.2264
    109  O         72.1090  462.2980   16.3710 O.2    93  TRP93      -0.2867
    110  CB        70.2000  464.3700   15.3010 C.3    93  TRP93       0.0550
    111  CG        69.8920  463.7040   13.9790 C.ar   93  TRP93       0.0003
    112  CD1       70.0630  464.2340   12.7290 C.ar   93  TRP93       0.0946
    113  CD2       69.3320  462.3980   13.7850 C.ar   93  TRP93       0.0152
    114  NE1       69.6630  463.3310   11.7730 N.ar   93  TRP93      -0.2442
    115  CE2       69.2090  462.2010   12.3940 C.ar   93  TRP93       0.0810
    116  CE3       68.9300  461.3780   14.6510 C.ar   93  TRP93       0.0012
    117  CZ2       68.7010  461.0210   11.8530 C.ar   93  TRP93       0.0191
    118  CZ3       68.4260  460.2090   14.1090 C.ar   93  TRP93       0.0001
    119  CH2       68.3160  460.0400   12.7230 C.ar   93  TRP93       0.0015
    120  N         70.8670  459.9140   17.6420 N.3    96  LEU96      -0.1245
    121  CA        71.0290  458.7370   16.7940 C.3    96  LEU96       0.1561
    122  C         71.9660  457.6980   17.4010 C.2    96  LEU96       0.2260
    123  O         71.7110  456.4970   17.3130 O.2    96  LEU96      -0.2867
    124  CB        71.5340  459.1430   15.4070 C.3    96  LEU96       0.0270
    125  CG        71.7200  458.0150   14.3880 C.3    96  LEU96       0.0019
    126  CD1       70.4330  457.2240   14.2160 C.3    96  LEU96       0.0001
    127  CD2       72.1880  458.5710   13.0530 C.3    96  LEU96       0.0001
    128  N         73.7840  448.5100   14.7520 N.3   112  PHE112     -0.1241
    129  CA        74.2300  449.8190   14.2850 C.3   112  PHE112      0.1605
    130  C         75.7120  450.0140   14.5820 C.2   112  PHE112      0.2264
    131  O         76.1180  450.0440   15.7430 O.2   112  PHE112     -0.2867
    132  CB        73.4330  450.9340   14.9550 C.3   112  PHE112      0.0534
    133  CG        72.0350  451.0830   14.4330 C.ar  112  PHE112     -0.0203
    134  CD1       71.0160  450.2730   14.9020 C.ar  112  PHE112     -0.0042
    135  CD2       71.7380  452.0460   13.4830 C.ar  112  PHE112     -0.0042
    136  CE1       69.7270  450.4130   14.4260 C.ar  112  PHE112     -0.0003
    137  CE2       70.4500  452.1920   13.0050 C.ar  112  PHE112     -0.0003
    138  CZ        69.4450  451.3740   13.4770 C.ar  112  PHE112     -0.0000
@<TRIPOS>BOND
     1    11    10   ar
     2     8     7    2
     3    45    43    1
     4     2     1    1
     5     2     3    1
     6    10     9    1
     7    10    12   ar
     8     5     3   am
     9     5     6    1
    10     9     6    1
    11     7     6    1
    12     7    13   am
    13     3     4    2
    14    43    44    1
    15    43    42    2
    16    16    15    2
    17    20    18    1
    18    14    13    1
    19    14    15    1
    20    14    17    1
    21    42    41    1
    22    24    23    2
    23    23    22    1
    24    15    21   am
    25    29    30    1
    26    21    22    1
    27    22    25    1
    28    17    18    1
    29    18    19    1
    30    40    41    1
    31    40    39    1
    32    30    33    1
    33    30    31    1
    34    33    34    1
    35    76    74    1
    36    35    31   am
    37    35    36    1
    38    31    32    2
    39    25    26    1
    40    85    84    1
    41    85    86    1
    42    39    36    1
    43    92    93    1
    44    92    89    1
    45    95    93   am
    46    88    86   am
    47    88    89    1
    48    72    71    2
    49    28    26    1
    50    36    37    1
    51    52    51    1
    52    84    79   am
    53    26    27    1
    54    46    47    1
    55    93    94    2
    56    86    87    2
    57    74    73    1
    58    74    75    1
    59    73    70    1
    60    89    90    1
    61    47    50    1
    62    47    48    1
    63    54    55    1
    64    71    70    1
    65    71    77   am
    66    79    80    2
    67    79    78    1
    68    50    51    1
    69    49    48    2
    70    69    70    1
    71    69    64   am
    72    91    90    2
    73    51    53    1
    74    37    38    2
    75    90    96   am
    76    55    56    1
    77    55    58    1
    78    61    59    1
    79    78    77    1
    80    78    81    1
    81    63    64    1
    82    63    62    1
    83    63    66    1
    84    77    83    1
    85    67    66    1
    86    57    56    2
    87    68    66    1
    88    64    65    2
    89    59    58    1
    90    59    60    1
    91    96    97    1
    92    81    82    1
    93    83    82    1
    94    97    98    1
    95    97   100    1
    96   114   115   ar
    97   114   112   ar
    98   117   115   ar
    99   117   119   ar
   100    98    99    2
   101   100   101    1
   102   115   113   ar
   103   102   101   ar
   104   102   104   ar
   105   119   118   ar
   106   112   111   ar
   107   101   103   ar
   108   137   138   ar
   109   137   135   ar
   110   127   125    1
   111   104   105   ar
   112   103   105   ar
   113   138   136   ar
   114   135   133   ar
   115   113   111   ar
   116   113   116   ar
   117   111   110    1
   118   118   116   ar
   119   126   125    1
   120   129   130    1
   121   129   128    1
   122   129   132    1
   123   106   107    1
   124   125   124    1
   125   136   134   ar
   126   133   134   ar
   127   133   132    1
   128   130   131    2
   129   110   107    1
   130   124   121    1
   131   107   108    1
   132   109   108    2
   133   121   122    1
   134   121   120    1
   135   123   122    2
