@<TRIPOS>MOLECULE
tmp/4o5qA06.pdb
 87 85 0 0 0
SMALL
GASTEIGER

@<TRIPOS>ATOM
      1  N        -45.7010  -34.8310   52.0170 N.3   326  TRP326     -0.1227
      2  CA       -46.0520  -34.9400   53.3980 C.3   326  TRP326      0.1737
      3  C        -47.6070  -35.0080   53.4490 C.2   326  TRP326      0.2595
      4  O        -48.2740  -34.0640   53.0520 O.2   326  TRP326     -0.2718
      5  CB       -45.4490  -33.7330   54.1120 C.3   326  TRP326      0.0564
      6  CG       -43.9140  -33.7630   54.0460 C.ar  326  TRP326      0.0003
      7  CD1      -43.1460  -33.8440   52.9100 C.ar  326  TRP326      0.0946
      8  CD2      -42.9990  -33.7210   55.1410 C.ar  326  TRP326      0.0152
      9  NE1      -41.8070  -33.8640   53.2330 N.ar  326  TRP326     -0.2442
     10  CE2      -41.6830  -33.7990   54.5960 C.ar  326  TRP326      0.0810
     11  CE3      -43.1550  -33.6510   56.5330 C.ar  326  TRP326      0.0012
     12  CZ2      -40.5200  -33.7960   55.4020 C.ar  326  TRP326      0.0191
     13  CZ3      -42.0140  -33.6380   57.3370 C.ar  326  TRP326      0.0001
     14  CH2      -40.7080  -33.7050   56.7740 C.ar  326  TRP326      0.0015
     15  N        -48.1720  -36.1430   53.8410 N.am  327  ARG327     -0.1980
     16  CA       -49.6350  -36.3290   53.7390 C.3   327  ARG327      0.1597
     17  C        -50.4590  -35.3500   54.5980 C.2   327  ARG327      0.2287
     18  O        -50.1460  -35.0920   55.7780 O.2   327  ARG327     -0.2864
     19  CB       -50.0540  -37.7630   54.0830 C.3   327  ARG327      0.0334
     20  CG       -49.3910  -38.7920   53.1760 C.3   327  ARG327      0.0492
     21  CD       -49.5880  -40.2000   53.7000 C.3   327  ARG327      0.2205
     22  NE       -50.9280  -40.6910   53.4260 N.pl3 327  ARG327     -0.0865
     23  CZ       -51.4360  -41.7840   53.9810 C.cat 327  ARG327      0.5346
     24  NH1      -50.7060  -42.4950   54.8390 N.pl3 327  ARG327      0.1354
     25  NH2      -52.6710  -42.1610   53.6850 N.pl3 327  ARG327      0.1354
     26  N        -46.2980  -30.1370   59.9990 N.3   344  TYR344     -0.1241
     27  CA       -46.1450  -31.5340   59.5790 C.3   344  TYR344      0.1605
     28  C        -44.9100  -32.1100   60.1870 C.2   344  TYR344      0.2264
     29  O        -44.4610  -33.1790   59.7740 O.2   344  TYR344     -0.2867
     30  CB       -46.0890  -31.6500   58.0400 C.3   344  TYR344      0.0534
     31  CG       -47.3790  -31.1440   57.4640 C.ar  344  TYR344     -0.0201
     32  CD1      -47.5570  -29.8100   57.1900 C.ar  344  TYR344     -0.0009
     33  CD2      -48.4510  -32.0020   57.2750 C.ar  344  TYR344     -0.0009
     34  CE1      -48.7930  -29.3340   56.7360 C.ar  344  TYR344      0.0417
     35  CE2      -49.6770  -31.5340   56.8450 C.ar  344  TYR344      0.0417
     36  CZ       -49.8320  -30.2090   56.5530 C.ar  344  TYR344      0.1957
     37  OH       -51.0740  -29.7490   56.1140 O.3   344  TYR344     -0.2866
     38  N        -44.6030  -42.5680   64.4190 N.3   366  SER366     -0.1217
     39  CA       -44.2930  -41.1520   64.2600 C.3   366  SER366      0.1889
     40  C        -45.1750  -40.2610   65.1350 C.2   366  SER366      0.2288
     41  O        -44.6760  -39.4050   65.8900 O.2   366  SER366     -0.2866
     42  CB       -44.4950  -40.7530   62.7860 C.3   366  SER366      0.2089
     43  OG       -43.3720  -41.1400   62.0200 O.3   366  SER366     -0.2183
     44  N        -49.4740  -32.7620   62.0730 N.3   447  VAL447     -0.1231
     45  CA       -50.0360  -33.8150   61.2300 C.3   447  VAL447      0.1692
     46  C        -48.9400  -34.8640   61.0300 C.2   447  VAL447      0.2592
     47  O        -47.8680  -34.5270   60.5410 O.2   447  VAL447     -0.2718
     48  CB       -50.4850  -33.2570   59.9160 C.3   447  VAL447      0.0266
     49  CG1      -51.0890  -34.3490   59.0660 C.3   447  VAL447      0.0020
     50  CG2      -51.4910  -32.1020   60.1290 C.3   447  VAL447      0.0020
     51  N        -49.2010  -36.0890   61.4790 N.am  448  GLN448     -0.1966
     52  CA       -48.2320  -37.1920   61.4930 C.3   448  GLN448      0.1733
     53  C        -48.8990  -38.4450   60.9130 C.2   448  GLN448      0.2616
     54  O        -48.9150  -39.5100   61.5120 O.2   448  GLN448     -0.2715
     55  CB       -47.7080  -37.4360   62.9020 C.3   448  GLN448      0.0408
     56  CG       -46.8310  -36.2930   63.4080 C.3   448  GLN448      0.0908
     57  CD       -45.4690  -36.3320   62.7500 C.2   448  GLN448      0.2608
     58  OE1      -44.6310  -37.1260   63.1330 O.2   448  GLN448     -0.2717
     59  NE2      -45.2620  -35.5100   61.7440 N.am  448  GLN448     -0.0878
     60  N        -49.4690  -38.2690   59.7320 N.am  449  ILE449     -0.1963
     61  CA       -50.1960  -39.3120   59.0400 C.3   449  ILE449      0.1727
     62  C        -49.2610  -40.1570   58.1750 C.2   449  ILE449      0.2617
     63  O        -49.4780  -41.3470   58.0230 O.2   449  ILE449     -0.2715
     64  CB       -51.2760  -38.7190   58.1130 C.3   449  ILE449      0.0290
     65  CG1      -52.3560  -38.0020   58.9150 C.3   449  ILE449      0.0022
     66  CG2      -51.9420  -39.8070   57.2580 C.3   449  ILE449      0.0023
     67  CD1      -53.2410  -37.1270   58.0010 C.3   449  ILE449      0.0001
     68  N        -48.2150  -39.5590   57.6200 N.am  450  GLY450     -0.1940
     69  CA       -47.2850  -40.3480   56.8180 C.3   450  GLY450      0.2014
     70  C        -46.6090  -39.5580   55.7330 C.2   450  GLY450      0.2638
     71  O        -47.0480  -38.4500   55.4010 O.2   450  GLY450     -0.2714
     72  N        -45.5150  -40.1140   55.2050 N.am  451  LEU451     -0.1977
     73  CA       -44.8180  -39.5240   54.0650 C.3   451  LEU451      0.1596
     74  C        -44.9780  -40.4110   52.8500 C.2   451  LEU451      0.2287
     75  O        -45.0130  -41.6180   52.9740 O.2   451  LEU451     -0.2864
     76  CB       -43.3130  -39.4460   54.3210 C.3   451  LEU451      0.0297
     77  CG       -42.7340  -38.2960   55.1160 C.3   451  LEU451      0.0022
     78  CD1      -41.2340  -38.3310   54.9640 C.3   451  LEU451      0.0001
     79  CD2      -43.2540  -36.9920   54.6580 C.3   451  LEU451      0.0001
     80  N        -42.0750  -48.7180   52.5270 N.3   467  MET467     -0.1245
     81  CA       -42.6320  -47.3780   52.6300 C.3   467  MET467      0.1570
     82  C        -42.3560  -46.5620   51.3610 C.2   467  MET467      0.2261
     83  O        -42.6760  -45.3790   51.2990 O.2   467  MET467     -0.2867
     84  CB       -42.0250  -46.6480   53.8420 C.3   467  MET467      0.0387
     85  CG       -42.2260  -47.3320   55.2210 C.3   467  MET467      0.0595
     86  SD       -43.9870  -47.7780   55.4730 S.3   467  MET467     -0.1393
     87  CE       -44.7560  -46.1400   55.4000 C.3   467  MET467      0.0692
@<TRIPOS>BOND
     1    83    82    2
     2    82    81    1
     3     1     2    1
     4    80    81    1
     5    81    84    1
     6    74    75    2
     7    74    73    1
     8     7     9   ar
     9     7     6   ar
    10     4     3    2
    11    20    21    1
    12    20    19    1
    13     9    10   ar
    14     2     3    1
    15     2     5    1
    16    22    21    1
    17    22    23    2
    18     3    15   am
    19    25    23    1
    20    16    15    1
    21    16    19    1
    22    16    17    1
    23    84    85    1
    24    23    24    1
    25     6     5    1
    26     6     8   ar
    27    73    76    1
    28    73    72    1
    29    76    77    1
    30    10     8   ar
    31    10    12   ar
    32    17    18    2
    33    79    77    1
    34    78    77    1
    35     8    11   ar
    36    72    70   am
    37    85    86    1
    38    87    86    1
    39    71    70    2
    40    12    14   ar
    41    70    69    1
    42    37    36    1
    43    11    13   ar
    44    36    34   ar
    45    36    35   ar
    46    34    32   ar
    47    14    13   ar
    48    69    68    1
    49    35    33   ar
    50    32    31   ar
    51    66    64    1
    52    33    31   ar
    53    31    30    1
    54    68    62   am
    55    67    65    1
    56    63    62    2
    57    30    27    1
    58    64    65    1
    59    64    61    1
    60    62    61    1
    61    61    60    1
    62    49    48    1
    63    27    26    1
    64    27    28    1
    65    60    53   am
    66    29    28    2
    67    48    50    1
    68    48    45    1
    69    47    46    2
    70    53    52    1
    71    53    54    2
    72    46    45    1
    73    46    51   am
    74    45    44    1
    75    51    52    1
    76    52    55    1
    77    59    57   am
    78    43    42    1
    79    57    58    2
    80    57    56    1
    81    42    39    1
    82    55    56    1
    83    39    38    1
    84    39    40    1
    85    40    41    2
