@<TRIPOS>MOLECULE
tmp/4o5tA00.pdb
 182 172 0 0 0
SMALL
GASTEIGER

@<TRIPOS>ATOM
      1  N        -15.5950    4.8200  -15.6410 N.3    37  SER37      -0.1217
      2  CA       -14.8980    4.6550  -16.9100 C.3    37  SER37       0.1889
      3  C        -13.8210    5.7040  -16.9560 C.2    37  SER37       0.2288
      4  O        -12.6760    5.3820  -17.2080 O.2    37  SER37      -0.2866
      5  CB       -15.8870    4.7930  -18.0750 C.3    37  SER37       0.2089
      6  OG       -15.4770    4.0360  -19.1980 O.3    37  SER37      -0.2183
      7  N        -10.9610    4.8390  -14.6070 N.3    40  LEU40      -0.1231
      8  CA       -10.0870    3.7500  -15.0840 C.3    40  LEU40       0.1693
      9  C         -9.0920    4.2280  -16.1370 C.2    40  LEU40       0.2591
     10  O         -7.9660    3.7130  -16.2430 O.2    40  LEU40      -0.2718
     11  CB       -10.9200    2.6360  -15.7270 C.3    40  LEU40       0.0284
     12  CG       -11.4120    1.4960  -14.8370 C.3    40  LEU40       0.0019
     13  CD1      -12.6490    0.8330  -15.4330 C.3    40  LEU40       0.0001
     14  CD2      -10.3000    0.4800  -14.6230 C.3    40  LEU40       0.0001
     15  N         -9.4910    5.2440  -16.8860 N.am   41  ILE41      -0.1980
     16  CA        -8.6290    5.8600  -17.8820 C.3    41  ILE41       0.1595
     17  C         -7.5090    6.7050  -17.2610 C.2    41  ILE41       0.2287
     18  O         -6.3750    6.7230  -17.7310 O.2    41  ILE41      -0.2864
     19  CB        -9.4490    6.7100  -18.8830 C.3    41  ILE41       0.0276
     20  CG1      -10.4710    5.8270  -19.6180 C.3    41  ILE41       0.0022
     21  CG2       -8.5360    7.3980  -19.8910 C.3    41  ILE41       0.0022
     22  CD1      -11.6410    6.5840  -20.2060 C.3    41  ILE41       0.0001
     23  N         -6.2560    6.3700  -14.1530 N.3    43  ALA43      -0.1231
     24  CA        -5.5140    5.6460  -13.1190 C.3    43  ALA43       0.1694
     25  C         -4.2730    4.9650  -13.6770 C.2    43  ALA43       0.2592
     26  O         -4.1700    4.7540  -14.8840 O.2    43  ALA43      -0.2718
     27  CB        -6.4220    4.6160  -12.4650 C.3    43  ALA43       0.0304
     28  N         -3.3500    4.6170  -12.7800 N.am   44  ASN44      -0.1960
     29  CA        -2.1690    3.8330  -13.1260 C.3    44  ASN44       0.1819
     30  C         -2.2150    2.3760  -12.6160 C.2    44  ASN44       0.2622
     31  O         -1.1690    1.7480  -12.4830 O.2    44  ASN44      -0.2715
     32  CB        -0.9090    4.5370  -12.6130 C.3    44  ASN44       0.1195
     33  CG        -0.5950    5.9030  -13.0920 C.2    44  ASN44       0.2630
     34  OD1       -1.1110    6.4070  -14.1500 O.2    44  ASN44      -0.2716
     35  ND2        0.1530    6.6050  -12.2990 N.am   44  ASN44      -0.0877
     36  N         -3.4120    1.8530  -12.3190 N.am   45  SER45      -0.1950
     37  CA        -3.6290    0.3980  -12.1620 C.3    45  SER45       0.1924
     38  C         -4.7650    0.0080  -11.1940 C.2    45  SER45       0.2314
     39  O         -5.9220   -0.1260  -11.6030 O.2    45  SER45      -0.2863
     40  CB        -2.3300   -0.3230  -11.7720 C.3    45  SER45       0.2116
     41  OG        -2.6020   -1.6920  -11.6760 O.3    45  SER45      -0.2180
     42  N        -22.8880    1.1320  -18.9620 N.3    82  ILE82      -0.1245
     43  CA       -21.9070    1.3120  -19.9960 C.3    82  ILE82       0.1561
     44  C        -22.4970    1.1220  -21.3450 C.2    82  ILE82       0.2260
     45  O        -21.9420    1.6950  -22.2800 O.2    82  ILE82      -0.2867
     46  CB       -20.6560    0.4060  -19.8080 C.3    82  ILE82       0.0252
     47  CG1      -19.9240    0.7210  -18.4980 C.3    82  ILE82       0.0019
     48  CG2      -19.6600    0.5780  -20.9540 C.3    82  ILE82       0.0019
     49  CD1      -19.2220    2.0660  -18.4470 C.3    82  ILE82       0.0001
     50  N        -21.7160   -2.3080  -15.0230 N.3    98  MET98      -0.1245
     51  CA       -20.5550   -3.0630  -14.5970 C.3    98  MET98       0.1570
     52  C        -20.6010   -3.3950  -13.1190 C.2    98  MET98       0.2261
     53  O        -19.8490   -4.2610  -12.6630 O.2    98  MET98      -0.2867
     54  CB       -19.2740   -2.2870  -14.8510 C.3    98  MET98       0.0387
     55  CG       -19.0240   -1.9570  -16.2980 C.3    98  MET98       0.0595
     56  SD       -17.3200   -1.4230  -16.5040 S.3    98  MET98      -0.1393
     57  CE       -16.4890   -3.0110  -16.5040 C.3    98  MET98       0.0692
     58  N        -21.1430   -4.8810  -19.6550 N.3   128  ALA128     -0.1231
     59  CA       -20.6630   -3.6610  -20.3170 C.3   128  ALA128      0.1694
     60  C        -21.4720   -3.3760  -21.5800 C.2   128  ALA128      0.2592
     61  O        -22.0600   -2.3150  -21.7210 O.2   128  ALA128     -0.2718
     62  CB       -19.1910   -3.8020  -20.6600 C.3   128  ALA128      0.0304
     63  N        -21.5080   -4.3200  -22.5100 N.am  129  TYR129     -0.1976
     64  CA       -22.1120   -4.0360  -23.8380 C.3   129  TYR129      0.1639
     65  C        -23.1810   -5.0670  -24.1030 C.2   129  TYR129      0.2290
     66  O        -23.1610   -6.1030  -23.5020 O.2   129  TYR129     -0.2864
     67  CB       -21.0780   -4.0370  -24.9560 C.3   129  TYR129      0.0560
     68  CG       -20.0510   -2.9200  -24.8950 C.ar  129  TYR129     -0.0198
     69  CD1      -18.8430   -3.0950  -24.2340 C.ar  129  TYR129     -0.0009
     70  CD2      -20.2730   -1.7040  -25.5290 C.ar  129  TYR129     -0.0009
     71  CE1      -17.8890   -2.0920  -24.1930 C.ar  129  TYR129      0.0417
     72  CE2      -19.3230   -0.6930  -25.4930 C.ar  129  TYR129      0.0417
     73  CZ       -18.1320   -0.8920  -24.8190 C.ar  129  TYR129      0.1957
     74  OH       -17.1820    0.1070  -24.7720 O.3   129  TYR129     -0.2866
     75  N        -17.1390   -7.9210  -18.7370 N.3   143  PRO143     -0.2116
     76  CA       -15.7130   -7.8450  -18.4430 C.3   143  PRO143      0.1372
     77  C        -15.3530   -7.7000  -16.9650 C.2   143  PRO143      0.2244
     78  O        -14.1650   -7.7860  -16.6250 O.2   143  PRO143     -0.2868
     79  CB       -15.2580   -6.6210  -19.2440 C.3   143  PRO143      0.0268
     80  CG       -16.4690   -5.7540  -19.3370 C.3   143  PRO143      0.0207
     81  CD       -17.6920   -6.6050  -19.1020 C.3   143  PRO143      0.0892
     82  N        -11.9490   -5.6400  -13.1760 N.3   154  ILE154     -0.1245
     83  CA       -12.1720   -5.8160  -14.6070 C.3   154  ILE154      0.1561
     84  C        -11.0220   -6.6180  -15.2590 C.2   154  ILE154      0.2260
     85  O         -9.8600   -6.5050  -14.8360 O.2   154  ILE154     -0.2867
     86  CB       -12.3550   -4.4540  -15.3100 C.3   154  ILE154      0.0252
     87  CG1      -12.9780   -4.6450  -16.6920 C.3   154  ILE154      0.0019
     88  CG2      -11.0350   -3.7060  -15.4210 C.3   154  ILE154      0.0019
     89  CD1      -13.2780   -3.3460  -17.4110 C.3   154  ILE154      0.0001
     90  N         -9.0120   -6.6260  -17.6000 N.3   156  LEU156     -0.1231
     91  CA        -8.1940   -5.9160  -18.5510 C.3   156  LEU156      0.1693
     92  C         -6.8230   -6.5300  -18.6580 C.2   156  LEU156      0.2591
     93  O         -6.1690   -6.3560  -19.6760 O.2   156  LEU156     -0.2718
     94  CB        -8.0670   -4.4780  -18.1420 C.3   156  LEU156      0.0284
     95  CG        -8.3460   -3.5860  -19.3360 C.3   156  LEU156      0.0019
     96  CD1       -9.1000   -2.3630  -18.8420 C.3   156  LEU156      0.0001
     97  CD2       -7.0520   -3.2740  -20.0830 C.3   156  LEU156      0.0001
     98  N         -6.3240   -7.1590  -17.5850 N.am  157  ARG157     -0.1980
     99  CA        -5.0430   -7.9070  -17.6120 C.3   157  ARG157      0.1597
    100  C         -5.1560   -9.4710  -17.5100 C.2   157  ARG157      0.2287
    101  O         -4.2510  -10.1740  -17.9870 O.2   157  ARG157     -0.2864
    102  CB        -4.1210   -7.3700  -16.5250 C.3   157  ARG157      0.0334
    103  CG        -3.4830   -6.0190  -16.8390 C.3   157  ARG157      0.0492
    104  CD        -2.5410   -5.5340  -15.7230 C.3   157  ARG157      0.2205
    105  NE        -3.2610   -5.4930  -14.4270 N.pl3 157  ARG157     -0.0865
    106  CZ        -3.9110   -4.3890  -13.9520 C.cat 157  ARG157      0.5346
    107  NH1       -3.8030   -3.2900  -14.7040 N.pl3 157  ARG157      0.1354
    108  NH2       -4.5700   -4.4330  -12.8120 N.pl3 157  ARG157      0.1354
    109  N        -11.3130   -8.8700  -21.1760 N.3   181  CYS181     -0.1221
    110  CA       -12.0160   -7.5970  -21.3540 C.3   181  CYS181      0.1794
    111  C        -12.8020   -7.5880  -22.6610 C.2   181  CYS181      0.2443
    112  O        -12.4730   -6.8550  -23.6320 O.2   181  CYS181     -0.2733
    113  CB       -11.0830   -6.3970  -21.2500 C.3   181  CYS181      0.0970
    114  SG       -11.9980   -4.8490  -21.0250 S.3   181  CYS181     -0.0800
    115  N        -13.8230   -8.4550  -22.7010 N.am  182  PRO182     -0.2718
    116  CA       -14.7580   -8.4300  -23.7730 C.3   182  PRO182      0.1535
    117  C        -15.4890   -7.0810  -23.7600 C.2   182  PRO182      0.2598
    118  O        -15.8450   -6.5820  -22.7050 O.2   182  PRO182     -0.2715
    119  CB       -15.7050   -9.5860  -23.4660 C.3   182  PRO182      0.0310
    120  CG       -15.6620   -9.7150  -21.9990 C.3   182  PRO182      0.0237
    121  CD       -14.2560   -9.3680  -21.6250 C.3   182  PRO182      0.0939
    122  N        -15.6690   -6.4730  -24.9290 N.am  183  ALA183     -0.1978
    123  CA       -16.1570   -5.0870  -25.0130 C.3   183  ALA183      0.1597
    124  C        -17.3420   -5.0850  -25.9640 C.2   183  ALA183      0.2287
    125  O        -18.3370   -5.7580  -25.6880 O.2   183  ALA183     -0.2864
    126  CB       -15.0330   -4.1760  -25.4900 C.3   183  ALA183      0.0319
    127  N        -10.9210   -6.3940  -26.0770 N.3   203  GLN203     -0.1245
    128  CA       -10.3350   -5.0840  -26.3190 C.3   203  GLN203      0.1566
    129  C         -8.7710   -4.9610  -26.3570 C.2   203  GLN203      0.2260
    130  O         -8.1970   -4.6210  -27.3880 O.2   203  GLN203     -0.2867
    131  CB       -10.9310   -4.0770  -25.3250 C.3   203  GLN203      0.0367
    132  CG       -10.4000   -2.6590  -25.4550 C.3   203  GLN203      0.0905
    133  CD       -11.1780   -1.6710  -24.6160 C.2   203  GLN203      0.2608
    134  OE1      -10.5950   -0.7870  -23.9880 O.2   203  GLN203     -0.2717
    135  NE2      -12.5010   -1.8130  -24.5950 N.am  203  GLN203     -0.0878
    136  N         -2.5130    1.6320  -26.2170 N.3   233  LYS233     -0.1231
    137  CA        -3.3970    1.3400  -25.0930 C.3   233  LYS233      0.1693
    138  C         -4.8310    1.4560  -25.6160 C.2   233  LYS233      0.2592
    139  O         -5.2200    2.5030  -26.1290 O.2   233  LYS233     -0.2718
    140  CB        -3.2020    2.3340  -23.9480 C.3   233  LYS233      0.0285
    141  CG        -4.1200    2.0640  -22.7620 C.3   233  LYS233      0.0035
    142  CD        -4.5300    3.3190  -22.0080 C.3   233  LYS233      0.0206
    143  CE        -3.6440    3.5970  -20.8020 C.3   233  LYS233      0.1093
    144  NZ        -4.3940    4.3140  -19.7310 N.3   233  LYS233     -0.1314
    145  N         -5.5960    0.3880  -25.4830 N.am  234  GLY234     -0.1957
    146  CA        -6.9870    0.3750  -25.9650 C.3   234  GLY234      0.1869
    147  C         -7.2420   -0.7610  -26.9160 C.2   234  GLY234      0.2309
    148  O         -6.7190   -1.8660  -26.7420 O.2   234  GLY234     -0.2863
    149  N        -13.7640   -0.9540  -28.8450 N.3   237  ALA237     -0.1245
    150  CA       -14.7920   -0.7310  -27.8410 C.3   237  ALA237      0.1562
    151  C        -16.1740   -1.0010  -28.4440 C.2   237  ALA237      0.2260
    152  O        -16.4840   -2.1430  -28.7380 O.2   237  ALA237     -0.2867
    153  CB       -14.6930    0.6830  -27.3030 C.3   237  ALA237      0.0290
    154  N        -10.5640    2.4230  -29.7060 N.3   252  TRP252     -0.1241
    155  CA       -10.2420    3.3900  -28.6820 C.3   252  TRP252      0.1605
    156  C         -8.7330    3.5090  -28.5630 C.2   252  TRP252      0.2264
    157  O         -8.0560    2.4880  -28.4480 O.2   252  TRP252     -0.2867
    158  CB       -10.8260    2.9040  -27.3550 C.3   252  TRP252      0.0550
    159  CG       -10.7980    3.9010  -26.2440 C.ar  252  TRP252      0.0003
    160  CD1      -11.8350    4.6810  -25.8220 C.ar  252  TRP252      0.0946
    161  CD2       -9.6890    4.2120  -25.3950 C.ar  252  TRP252      0.0152
    162  NE1      -11.4400    5.4580  -24.7660 N.ar  252  TRP252     -0.2442
    163  CE2      -10.1280    5.1920  -24.4830 C.ar  252  TRP252      0.0810
    164  CE3       -8.3670    3.7580  -25.3170 C.ar  252  TRP252      0.0012
    165  CZ2       -9.2940    5.7310  -23.5110 C.ar  252  TRP252      0.0191
    166  CZ3       -7.5400    4.2890  -24.3550 C.ar  252  TRP252      0.0001
    167  CH2       -8.0060    5.2670  -23.4620 C.ar  252  TRP252      0.0015
    168  N        -15.2030    5.8620  -28.2910 N.3   279  ALA279     -0.1245
    169  CA       -15.6130    4.7800  -27.3520 C.3   279  ALA279      0.1562
    170  C        -16.8430    3.9370  -27.7550 C.2   279  ALA279      0.2260
    171  O        -16.8930    2.7210  -27.5560 O.2   279  ALA279     -0.2867
    172  CB       -15.8410    5.3850  -25.9750 C.3   279  ALA279      0.0290
    173  N        -13.6050   10.0630  -25.4840 N.3   295  HIS295     -0.1241
    174  CA       -13.0730   10.2170  -24.1260 C.3   295  HIS295      0.1621
    175  C        -11.8980   11.1910  -24.0730 C.2   295  HIS295      0.2264
    176  O        -11.2610   11.2760  -23.0330 O.2   295  HIS295     -0.2867
    177  CB       -12.7330    8.8550  -23.5000 C.3   295  HIS295      0.0745
    178  CG       -13.9400    8.0100  -23.2160 C.ar  295  HIS295      0.0817
    179  ND1      -13.8580    6.6770  -22.8770 N.ar  295  HIS295     -0.2268
    180  CD2      -15.2620    8.3080  -23.2430 C.ar  295  HIS295      0.1154
    181  CE1      -15.0740    6.1940  -22.6960 C.ar  295  HIS295      0.1986
    182  NE2      -15.9450    7.1630  -22.9140 N.ar  295  HIS295     -0.2212
@<TRIPOS>BOND
     1   154   155    1
     2   149   150    1
     3   152   151    2
     4   155   156    1
     5   155   158    1
     6   156   157    2
     7   151   150    1
     8   168   169    1
     9   150   153    1
    10   170   171    2
    11   170   169    1
    12   130   129    2
    13   158   159    1
    14   169   172    1
    15   147   148    2
    16   147   146    1
    17   129   128    1
    18   128   127    1
    19   128   131    1
    20   159   160   ar
    21   159   161   ar
    22   136   137    1
    23   139   138    2
    24   146   145    1
    25   124   125    2
    26   124   123    1
    27   160   162   ar
    28   138   145   am
    29   138   137    1
    30    70    72   ar
    31    70    68   ar
    32    72    73   ar
    33   126   123    1
    34   173   174    1
    35   132   131    1
    36   132   133    1
    37   161   164   ar
    38   161   163   ar
    39   164   166   ar
    40   137   140    1
    41   123   122    1
    42    67    68    1
    43    67    64    1
    44   122   117   am
    45    68    69   ar
    46    73    74    1
    47    73    71   ar
    48   162   163   ar
    49   133   135   am
    50   133   134    2
    51   163   165   ar
    52   166   167   ar
    53    69    71   ar
    54   174   175    1
    55   174   177    1
    56    65    64    1
    57    65    66    2
    58   175   176    2
    59   140   141    1
    60    64    63    1
    61   116   117    1
    62   116   119    1
    63   116   115    1
    64   117   118    2
    65   112   111    2
    66   165   167   ar
    67   177   178    1
    68   119   120    1
    69   180   178   ar
    70   180   182   ar
    71   178   179   ar
    72   182   181   ar
    73   179   181   ar
    74   141   142    1
    75   115   111   am
    76   115   121    1
    77   111   110    1
    78    63    60   am
    79    45    44    2
    80   142   143    1
    81   120   121    1
    82    61    60    2
    83    60    59    1
    84   110   113    1
    85   110   109    1
    86    44    43    1
    87   113   114    1
    88    48    46    1
    89   143   144    1
    90    62    59    1
    91    59    58    1
    92    22    20    1
    93    97    95    1
    94    43    46    1
    95    43    42    1
    96    21    19    1
    97    46    47    1
    98    93    92    2
    99    20    19    1
   100    80    79    1
   101    80    81    1
   102    95    96    1
   103    95    94    1
   104    79    76    1
   105     6     5    1
   106    81    75    1
   107    19    16    1
   108    75    76    1
   109    92    91    1
   110    92    98   am
   111    91    94    1
   112    91    90    1
   113    47    49    1
   114    76    77    1
   115     5     2    1
   116   101   100    2
   117    16    17    1
   118    16    15    1
   119    18    17    2
   120    99    98    1
   121    99   100    1
   122    99   102    1
   123    89    87    1
   124     4     3    2
   125    77    78    2
   126     3     2    1
   127     2     1    1
   128    15     9   am
   129   103   102    1
   130   103   104    1
   131    87    86    1
   132    57    56    1
   133    56    55    1
   134    55    54    1
   135    10     9    2
   136     9     8    1
   137    11     8    1
   138    11    12    1
   139   104   105    1
   140    13    12    1
   141    88    86    1
   142    86    83    1
   143    84    85    2
   144    84    83    1
   145     8     7    1
   146    50    51    1
   147    26    25    2
   148    54    51    1
   149    12    14    1
   150   107   106    1
   151    83    82    1
   152    51    52    1
   153   105   106    2
   154    23    24    1
   155    34    33    2
   156   106   108    1
   157    25    24    1
   158    25    28   am
   159    29    28    1
   160    29    30    1
   161    29    32    1
   162    52    53    2
   163    24    27    1
   164    33    32    1
   165    33    35   am
   166    30    31    2
   167    30    36   am
   168    36    37    1
   169    37    40    1
   170    37    38    1
   171    40    41    1
   172    39    38    2
