@<TRIPOS>MOLECULE
tmp/4o61B00.pdb
 166 153 0 0 0
SMALL
GASTEIGER

@<TRIPOS>ATOM
      1  N         39.2180   -6.9850   36.8910 N.3    56  LYS56      -0.1245
      2  CA        38.4600   -5.8910   36.2940 C.3    56  LYS56       0.1561
      3  C         38.1640   -6.2720   34.8370 C.2    56  LYS56       0.2260
      4  O         39.0810   -6.7200   34.1160 O.2    56  LYS56      -0.2867
      5  CB        39.3200   -4.6310   36.4030 C.3    56  LYS56       0.0271
      6  CG        38.7560   -3.3740   35.8230 C.3    56  LYS56       0.0035
      7  CD        39.7730   -2.2370   35.9190 C.3    56  LYS56       0.0206
      8  CE        39.9490   -1.6820   37.3300 C.3    56  LYS56       0.1093
      9  NZ        38.7360   -0.9600   37.8010 N.3    56  LYS56      -0.1314
     10  N         40.7610    1.8340   29.9630 N.3    63  TYR63      -0.1241
     11  CA        41.9390    2.6700   30.1040 C.3    63  TYR63       0.1605
     12  C         43.0760    1.9140   30.7420 C.2    63  TYR63       0.2264
     13  O         42.8860    0.8390   31.3170 O.2    63  TYR63      -0.2867
     14  CB        41.6080    3.9240   30.9130 C.3    63  TYR63       0.0534
     15  CG        41.0520    3.6430   32.2890 C.ar   63  TYR63      -0.0201
     16  CD1       39.6930    3.4610   32.4950 C.ar   63  TYR63      -0.0009
     17  CD2       41.8970    3.5160   33.3840 C.ar   63  TYR63      -0.0009
     18  CE1       39.1890    3.2030   33.7720 C.ar   63  TYR63       0.0417
     19  CE2       41.4080    3.2210   34.6400 C.ar   63  TYR63       0.0417
     20  CZ        40.0460    3.0770   34.8270 C.ar   63  TYR63       0.1957
     21  OH        39.5740    2.8190   36.0850 O.3    63  TYR63      -0.2866
     22  N         32.2640   -1.2810   33.3930 N.3   107  VAL107     -0.1245
     23  CA        33.3700   -2.0090   33.9980 C.3   107  VAL107      0.1561
     24  C         32.7840   -2.9400   35.0450 C.2   107  VAL107      0.2260
     25  O         31.9070   -2.5170   35.8120 O.2   107  VAL107     -0.2867
     26  CB        34.4260   -1.0650   34.6220 C.3   107  VAL107      0.0252
     27  CG1       35.3770   -1.8370   35.5270 C.3   107  VAL107      0.0019
     28  CG2       35.2220   -0.3280   33.5380 C.3   107  VAL107      0.0019
     29  N         33.9620   -5.0430   38.2950 N.3   109  ASN109     -0.1240
     30  CA        35.0330   -5.3910   39.2540 C.3   109  ASN109      0.1653
     31  C         34.5280   -6.5530   40.0400 C.2   109  ASN109      0.2266
     32  O         33.3920   -6.5380   40.5520 O.2   109  ASN109     -0.2867
     33  CB        35.4180   -4.2320   40.2020 C.3   109  ASN109      0.1155
     34  CG        36.0930   -3.0410   39.4860 C.2   109  ASN109      0.2627
     35  OD1       36.8710   -3.1840   38.5260 O.2   109  ASN109     -0.2716
     36  ND2       35.7950   -1.8650   39.9620 N.am  109  ASN109     -0.0877
     37  N         35.4860   -8.8230   43.1220 N.3   111  TYR111     -0.1241
     38  CA        36.3950   -8.8550   44.2940 C.3   111  TYR111      0.1605
     39  C         36.3920  -10.1970   45.0380 C.2   111  TYR111      0.2264
     40  O         35.3320  -10.7210   45.3860 O.2   111  TYR111     -0.2867
     41  CB        35.9920   -7.7990   45.3200 C.3   111  TYR111      0.0534
     42  CG        36.0400   -6.4370   44.8040 C.ar  111  TYR111     -0.0201
     43  CD1       37.2380   -5.7230   44.8280 C.ar  111  TYR111     -0.0009
     44  CD2       34.8970   -5.8120   44.2770 C.ar  111  TYR111     -0.0009
     45  CE1       37.3090   -4.4280   44.3260 C.ar  111  TYR111      0.0417
     46  CE2       34.9790   -4.5000   43.7830 C.ar  111  TYR111      0.0417
     47  CZ        36.2080   -3.8320   43.8190 C.ar  111  TYR111      0.1957
     48  OH        36.3440   -2.5580   43.3430 O.3   111  TYR111     -0.2866
     49  N         39.6930   -1.5520   47.6890 N.3   117  ILE117     -0.1245
     50  CA        39.9770   -0.4350   46.8180 C.3   117  ILE117      0.1561
     51  C         40.8030    0.5140   47.6860 C.2   117  ILE117      0.2260
     52  O         40.3610    0.9310   48.7630 O.2   117  ILE117     -0.2867
     53  CB        38.6810    0.2960   46.3520 C.3   117  ILE117      0.0252
     54  CG1       37.7950   -0.5910   45.4750 C.3   117  ILE117      0.0019
     55  CG2       38.9900    1.5330   45.5460 C.3   117  ILE117      0.0019
     56  CD1       36.5740    0.1650   44.9230 C.3   117  ILE117      0.0001
     57  N         41.1770    6.4130   46.0720 N.3   120  HIS120     -0.1241
     58  CA        41.2580    6.9860   44.7200 C.3   120  HIS120      0.1621
     59  C         40.0650    7.8640   44.3770 C.2   120  HIS120      0.2264
     60  O         39.0860    7.9070   45.0690 O.2   120  HIS120     -0.2867
     61  CB        41.4570    5.8920   43.6600 C.3   120  HIS120      0.0745
     62  CG        40.2230    5.1360   43.3500 C.ar  120  HIS120      0.0817
     63  ND1       39.5890    5.2300   42.1270 N.ar  120  HIS120     -0.2268
     64  CD2       39.4610    4.3240   44.1120 C.ar  120  HIS120      0.1154
     65  CE1       38.5060    4.4780   42.1380 C.ar  120  HIS120      0.1986
     66  NE2       38.4020    3.9110   43.3280 N.ar  120  HIS120     -0.2212
     67  N         37.6930    8.7630   40.9590 N.3   122  ASP122     -0.1225
     68  CA        37.3580    8.3270   39.6300 C.3   122  ASP122      0.1790
     69  C         38.0730    9.3300   38.6340 C.2   122  ASP122      0.2439
     70  O         37.9720   10.5190   38.8190 O.2   122  ASP122     -0.2733
     71  CB        35.8480    8.3400   39.4960 C.3   122  ASP122      0.1423
     72  CG        35.3950    7.8430   38.1670 C.2   122  ASP122      0.3668
     73  OD1       35.4910    8.5960   37.1740 O.co2 122  ASP122     -0.2456
     74  OD2       34.9400    6.6950   38.1250 O.co2 122  ASP122     -0.2456
     75  N         38.8400    8.8170   37.6510 N.am  123  PRO123     -0.2729
     76  CA        39.6650    9.6760   36.7850 C.3   123  PRO123      0.1401
     77  C         38.8240   10.7450   36.0690 C.2   123  PRO123      0.2269
     78  O         38.0200   10.4520   35.1550 O.2   123  PRO123     -0.2865
     79  CB        40.3250    8.6880   35.7910 C.3   123  PRO123      0.0296
     80  CG        39.8990    7.3320   36.1850 C.3   123  PRO123      0.0237
     81  CD        38.8160    7.4100   37.2000 C.3   123  PRO123      0.0939
     82  N         28.8340    9.0990   38.0530 N.3   131  ILE131     -0.1245
     83  CA        29.3010    7.7430   37.9790 C.3   131  ILE131      0.1561
     84  C         28.2310    6.8750   38.6220 C.2   131  ILE131      0.2260
     85  O         27.8160    7.1470   39.7530 O.2   131  ILE131     -0.2867
     86  CB        30.6000    7.6290   38.7580 C.3   131  ILE131      0.0252
     87  CG1       31.6850    8.5280   38.1190 C.3   131  ILE131      0.0019
     88  CG2       31.0710    6.1800   38.8910 C.3   131  ILE131      0.0019
     89  CD1       32.3780    9.3920   39.1550 C.3   131  ILE131      0.0001
     90  N         27.1620    3.1110   39.9740 N.3   133  SER133     -0.1217
     91  CA        27.6420    1.7780   40.4370 C.3   133  SER133      0.1889
     92  C         26.5030    0.8970   40.9510 C.2   133  SER133      0.2288
     93  O         25.6930    1.3580   41.7770 O.2   133  SER133     -0.2866
     94  CB        28.6180    1.9600   41.6070 C.3   133  SER133      0.2089
     95  OG        29.7490    2.5860   41.1490 O.3   133  SER133     -0.2183
     96  N         31.3410    1.6050   51.2880 N.3   142  LEU142     -0.1245
     97  CA        32.2380    2.4700   50.5180 C.3   142  LEU142      0.1561
     98  C         32.5760    3.6260   51.4120 C.2   142  LEU142      0.2260
     99  O         31.6900    4.3020   51.9130 O.2   142  LEU142     -0.2867
    100  CB        31.4820    2.9490   49.3020 C.3   142  LEU142      0.0270
    101  CG        32.1250    3.7950   48.2460 C.3   142  LEU142      0.0019
    102  CD1       33.2870    3.0600   47.6140 C.3   142  LEU142      0.0001
    103  CD2       31.1140    4.1260   47.2010 C.3   142  LEU142      0.0001
    104  N         27.3900    8.8150   42.0250 N.3   172  LEU172     -0.1245
    105  CA        28.3480    9.8090   42.5760 C.3   172  LEU172      0.1561
    106  C         28.4700   10.9830   41.6520 C.2   172  LEU172      0.2260
    107  O         28.6280   10.8200   40.4260 O.2   172  LEU172     -0.2867
    108  CB        29.7180    9.2120   42.7710 C.3   172  LEU172      0.0270
    109  CG        29.7570    7.9750   43.6220 C.3   172  LEU172      0.0019
    110  CD1       31.2000    7.5110   43.7330 C.3   172  LEU172      0.0001
    111  CD2       29.1450    8.2390   45.0260 C.3   172  LEU172      0.0001
    112  N         37.7930    7.9640   47.7090 N.3   182  HIS182     -0.1241
    113  CA        37.0050    6.8910   48.2670 C.3   182  HIS182      0.1621
    114  C         37.7480    5.5900   48.1990 C.2   182  HIS182      0.2264
    115  O         38.7900    5.4410   47.5350 O.2   182  HIS182     -0.2867
    116  CB        35.5800    6.8170   47.6390 C.3   182  HIS182      0.0745
    117  CG        35.5820    6.5010   46.1820 C.ar  182  HIS182      0.0817
    118  ND1       35.5790    7.4750   45.2160 N.ar  182  HIS182     -0.2268
    119  CD2       35.6050    5.3160   45.5280 C.ar  182  HIS182      0.1154
    120  CE1       35.5930    6.9080   44.0240 C.ar  182  HIS182      0.1986
    121  NE2       35.6240    5.5980   44.1830 N.ar  182  HIS182     -0.2212
    122  N         37.5650    1.0940   49.7070 N.3   184  ILE184     -0.1245
    123  CA        36.8570    0.0280   50.3990 C.3   184  ILE184      0.1561
    124  C         37.8540   -0.7230   51.2420 C.2   184  ILE184      0.2260
    125  O         38.8890   -1.1290   50.7540 O.2   184  ILE184     -0.2867
    126  CB        36.1240   -0.9540   49.4510 C.3   184  ILE184      0.0252
    127  CG1       35.1070   -0.2030   48.5870 C.3   184  ILE184      0.0019
    128  CG2       35.3990   -2.0230   50.2780 C.3   184  ILE184      0.0019
    129  CD1       34.0910   -1.1040   47.9040 C.3   184  ILE184      0.0001
    130  N         32.2270  -10.0650   46.1600 N.3   193  ARG193     -0.1245
    131  CA        31.4040   -8.9110   45.8760 C.3   193  ARG193      0.1563
    132  C         31.7680   -8.4720   44.4710 C.2   193  ARG193      0.2260
    133  O         32.9320   -8.4760   44.0980 O.2   193  ARG193     -0.2867
    134  CB        31.6940   -7.8230   46.8760 C.3   193  ARG193      0.0307
    135  CG        30.7470   -6.6610   46.7310 C.3   193  ARG193      0.0489
    136  CD        31.4400   -5.3710   47.0050 C.3   193  ARG193      0.2205
    137  NE        30.5800   -4.2310   46.6940 N.pl3 193  ARG193     -0.0865
    138  CZ        31.0310   -3.0910   46.2130 C.cat 193  ARG193      0.5346
    139  NH1       32.3350   -2.9410   45.9910 N.pl3 193  ARG193      0.1354
    140  NH2       30.1920   -2.1070   45.9190 N.pl3 193  ARG193      0.1354
    141  N         30.8560   -5.4750   41.2690 N.3   195  VAL195     -0.1245
    142  CA        30.1560   -4.2430   40.9790 C.3   195  VAL195      0.1561
    143  C         30.2770   -3.9140   39.4990 C.2   195  VAL195      0.2260
    144  O         31.3130   -4.1940   38.8690 O.2   195  VAL195     -0.2867
    145  CB        30.6790   -3.0980   41.8940 C.3   195  VAL195      0.0252
    146  CG1       32.1450   -2.8210   41.6150 C.3   195  VAL195      0.0019
    147  CG2       29.8240   -1.8400   41.7860 C.3   195  VAL195      0.0019
    148  N         30.1700   -0.8090   36.9320 N.3   197  ILE197     -0.1245
    149  CA        30.3620    0.6420   36.9190 C.3   197  ILE197      0.1561
    150  C         29.9640    1.1660   35.5360 C.2   197  ILE197      0.2260
    151  O         30.5680    0.7780   34.5150 O.2   197  ILE197     -0.2867
    152  CB        31.8280    1.0490   37.2120 C.3   197  ILE197      0.0252
    153  CG1       32.4170    0.2740   38.4120 C.3   197  ILE197      0.0019
    154  CG2       31.9470    2.5560   37.4440 C.3   197  ILE197      0.0019
    155  CD1       31.8190    0.6520   39.7400 C.3   197  ILE197      0.0001
    156  N         29.5250    4.4110   33.1170 N.3   199  ARG199     -0.1245
    157  CA        30.0050    5.7500   32.9560 C.3   199  ARG199      0.1563
    158  C         29.9920    6.2010   31.4970 C.2   199  ARG199      0.2260
    159  O         29.8490    5.3710   30.5510 O.2   199  ARG199     -0.2867
    160  CB        31.4390    5.8290   33.5250 C.3   199  ARG199      0.0307
    161  CG        31.5500    5.6840   35.0610 C.3   199  ARG199      0.0489
    162  CD        33.0150    5.6020   35.5340 C.3   199  ARG199      0.2205
    163  NE        33.6890    4.3490   35.1210 N.pl3 199  ARG199     -0.0865
    164  CZ        34.7560    3.8240   35.7110 C.cat 199  ARG199      0.5346
    165  NH1       35.3530    4.4600   36.7290 N.pl3 199  ARG199      0.1354
    166  NH2       35.2640    2.6740   35.2700 N.pl3 199  ARG199      0.1354
@<TRIPOS>BOND
     1    10    11    1
     2    11    12    1
     3    11    14    1
     4   159   158    2
     5    12    13    2
     6    14    15    1
     7   158   157    1
     8    15    16   ar
     9    15    17   ar
    10    16    18   ar
    11   157   156    1
    12   157   160    1
    13    17    19   ar
    14    22    23    1
    15   160   161    1
    16    28    26    1
    17    18    20   ar
    18    23    26    1
    19    23    24    1
    20     4     3    2
    21   151   150    2
    22    26    27    1
    23    19    20   ar
    24    20    21    1
    25     3     2    1
    26    24    25    2
    27   161   162    1
    28   163   162    1
    29   163   164    2
    30    78    77    2
    31   166   164    1
    32   150   149    1
    33   164   165    1
    34    79    80    1
    35    79    76    1
    36     6     7    1
    37     6     5    1
    38     7     8    1
    39    77    76    1
    40    80    81    1
    41     2     5    1
    42     2     1    1
    43    76    75    1
    44   149   148    1
    45   149   152    1
    46    73    72   ar
    47    81    75    1
    48   152   154    1
    49   152   153    1
    50     8     9    1
    51    75    69   am
    52    83    82    1
    53    83    84    1
    54    83    86    1
    55    87    86    1
    56    87    89    1
    57    74    72   ar
    58    72    71    1
    59    29    30    1
    60   153   155    1
    61    35    34    2
    62    84    85    2
    63    69    70    2
    64    69    68    1
    65    86    88    1
    66   144   143    2
    67    30    31    1
    68    30    33    1
    69    34    36   am
    70    34    33    1
    71    71    68    1
    72   143   142    1
    73    68    67    1
    74    90    91    1
    75    31    32    2
    76   107   106    2
    77    91    92    1
    78    91    94    1
    79    92    93    2
    80   142   141    1
    81   142   145    1
    82    95    94    1
    83   146   145    1
    84   106   105    1
    85   147   145    1
    86   104   105    1
    87    63    65   ar
    88    63    62   ar
    89    65    66   ar
    90   105   108    1
    91   108   109    1
    92    37    38    1
    93    66    64   ar
    94    48    47    1
    95    62    61    1
    96    62    64   ar
    97   109   110    1
    98   109   111    1
    99    61    58    1
   100    46    47   ar
   101    46    44   ar
   102    47    45   ar
   103   120   121   ar
   104   120   118   ar
   105   133   132    2
   106   121   119   ar
   107    44    42   ar
   108    38    39    1
   109    38    41    1
   110    45    43   ar
   111    59    58    1
   112    59    60    2
   113   132   131    1
   114    58    57    1
   115    42    43   ar
   116    42    41    1
   117    56    54    1
   118    39    40    2
   119   118   117   ar
   120    54    53    1
   121   119   117   ar
   122    55    53    1
   123   131   130    1
   124   131   134    1
   125   140   138    1
   126   139   138    1
   127   117   116    1
   128   138   137    2
   129    53    50    1
   130   137   136    1
   131   135   134    1
   132   135   136    1
   133    50    51    1
   134    50    49    1
   135   103   101    1
   136   115   114    2
   137   102   101    1
   138   116   113    1
   139    51    52    2
   140   112   113    1
   141   129   127    1
   142   114   113    1
   143   101   100    1
   144   127   126    1
   145   100    97    1
   146   126   128    1
   147   126   123    1
   148   122   123    1
   149   123   124    1
   150    97    96    1
   151    97    98    1
   152   125   124    2
   153    98    99    2
