@<TRIPOS>MOLECULE
tmp/4o62B00.pdb
 152 153 0 0 0
SMALL
GASTEIGER

@<TRIPOS>ATOM
      1  N         24.0450    0.3230   36.4140 N.3     6  ASN6       -0.1225
      2  CA        24.9360    1.3660   35.9310 C.3     6  ASN6        0.1785
      3  C         24.1720    2.4580   35.2510 C.2     6  ASN6        0.2597
      4  O         23.1220    2.2300   34.6200 O.2     6  ASN6       -0.2718
      5  CB        25.9680    0.8110   34.9670 C.3     6  ASN6        0.1169
      6  CG        26.9240   -0.1180   35.6470 C.2     6  ASN6        0.2627
      7  OD1       27.0640   -0.0920   36.8700 O.2     6  ASN6       -0.2716
      8  ND2       27.5600   -0.9850   34.8730 N.am    6  ASN6       -0.0877
      9  N         24.7060    3.6750   35.3810 N.am    7  LYS7       -0.1966
     10  CA        24.2050    4.8110   34.6540 C.3     7  LYS7        0.1728
     11  C         24.6400    4.7060   33.1790 C.2     7  LYS7        0.2616
     12  O         25.7740    4.2750   32.8780 O.2     7  LYS7       -0.2715
     13  CB        24.7510    6.1040   35.2870 C.3     7  LYS7        0.0311
     14  CG        24.2840    6.2830   36.7230 C.3     7  LYS7        0.0038
     15  CD        25.0210    7.4020   37.4610 C.3     7  LYS7        0.0206
     16  CE        24.7090    8.7330   36.8320 C.3     7  LYS7        0.1093
     17  NZ        25.1020    9.8290   37.7570 N.3     7  LYS7       -0.1314
     18  N         23.7550    5.0710   32.2670 N.am    8  VAL8       -0.1963
     19  CA        24.1060    5.1100   30.8330 C.3     8  VAL8        0.1727
     20  C         23.8940    6.5260   30.2920 C.2     8  VAL8        0.2616
     21  O         23.0730    7.2790   30.8120 O.2     8  VAL8       -0.2715
     22  CB        23.2510    4.1780   29.9180 C.3     8  VAL8        0.0290
     23  CG1       23.5660    2.7330   30.2100 C.3     8  VAL8        0.0023
     24  CG2       21.7510    4.4720   30.0470 C.3     8  VAL8        0.0023
     25  N         24.6170    6.8390   29.2250 N.am    9  TRP9       -0.1960
     26  CA        24.2630    7.9820   28.3750 C.3     9  TRP9        0.1771
     27  C         23.2250    7.5340   27.3530 C.2     9  TRP9        0.2620
     28  O         23.3160    6.4160   26.7840 O.2     9  TRP9       -0.2715
     29  CB        25.4790    8.5170   27.6220 C.3     9  TRP9        0.0590
     30  CG        26.5330    9.1150   28.4960 C.ar    9  TRP9        0.0006
     31  CD1       27.6120    8.4710   29.0510 C.ar    9  TRP9        0.0946
     32  CD2       26.6550   10.5070   28.8680 C.ar    9  TRP9        0.0152
     33  NE1       28.3800    9.3650   29.7660 N.ar    9  TRP9       -0.2442
     34  CE2       27.8230   10.6230   29.6650 C.ar    9  TRP9        0.0810
     35  CE3       25.8980   11.6530   28.6040 C.ar    9  TRP9        0.0012
     36  CZ2       28.2370   11.8510   30.2250 C.ar    9  TRP9        0.0191
     37  CZ3       26.3100   12.8750   29.1590 C.ar    9  TRP9        0.0001
     38  CH2       27.4710   12.9600   29.9600 C.ar    9  TRP9        0.0015
     39  N         22.2610    8.4030   27.1030 N.am   10  VAL10      -0.1963
     40  CA        21.2640    8.2150   26.0460 C.3    10  VAL10       0.1727
     41  C         21.1970    9.4840   25.2010 C.2    10  VAL10       0.2616
     42  O         21.3480   10.6080   25.7480 O.2    10  VAL10      -0.2715
     43  CB        19.8690    7.8490   26.6570 C.3    10  VAL10       0.0290
     44  CG1       19.3210    8.9390   27.5650 C.3    10  VAL10       0.0023
     45  CG2       18.8730    7.5200   25.5730 C.3    10  VAL10       0.0023
     46  N         21.0020    9.3180   23.9000 N.am   11  GLN11      -0.1977
     47  CA        20.9110   10.4620   22.9910 C.3    11  GLN11       0.1601
     48  C         19.4670   10.8550   22.7260 C.2    11  GLN11       0.2287
     49  O         18.6050   10.0230   22.3500 O.2    11  GLN11      -0.2864
     50  CB        21.6140   10.1790   21.6800 C.3    11  GLN11       0.0394
     51  CG        21.7930   11.4180   20.8360 C.3    11  GLN11       0.0908
     52  CD        22.5650   11.1780   19.5720 C.2    11  GLN11       0.2608
     53  OE1       22.5270   10.0830   18.9850 O.2    11  GLN11      -0.2717
     54  NE2       23.2660   12.2010   19.1240 N.am   11  GLN11      -0.0878
     55  N         16.5310   12.1100   20.4760 N.3    13  GLU13      -0.1245
     56  CA        16.2000   11.9040   19.0780 C.3    13  GLU13       0.1567
     57  C         15.4330   13.0650   18.4620 C.2    13  GLU13       0.2260
     58  O         15.0050   12.9770   17.3250 O.2    13  GLU13      -0.2867
     59  CB        15.4870   10.5570   18.8890 C.3    13  GLU13       0.0388
     60  CG        16.4340    9.4460   19.2130 C.3    13  GLU13       0.1160
     61  CD        15.8240    8.0770   19.0810 C.2    13  GLU13       0.3649
     62  OE1       15.0860    7.8470   18.1190 O.co2  13  GLU13      -0.2457
     63  OE2       16.1130    7.2560   19.9410 O.co2  13  GLU13      -0.2457
     64  N         23.4060   14.3200   24.2540 N.3    20  TRP20      -0.1241
     65  CA        23.6000   13.1540   25.1040 C.3    20  TRP20       0.1605
     66  C         23.3150   13.5140   26.5400 C.2    20  TRP20       0.2264
     67  O         23.7840   14.5520   27.0390 O.2    20  TRP20      -0.2867
     68  CB        25.0320   12.6550   24.9610 C.3    20  TRP20       0.0550
     69  CG        25.2880   11.9830   23.7070 C.ar   20  TRP20       0.0003
     70  CD1       25.8240   12.5170   22.5730 C.ar   20  TRP20       0.0946
     71  CD2       25.0690   10.5860   23.4280 C.ar   20  TRP20       0.0152
     72  NE1       25.9530   11.5430   21.6030 N.ar   20  TRP20      -0.2442
     73  CE2       25.4930   10.3530   22.0990 C.ar   20  TRP20       0.0810
     74  CE3       24.5560    9.5170   24.1750 C.ar   20  TRP20       0.0012
     75  CZ2       25.4070    9.0890   21.4920 C.ar   20  TRP20       0.0191
     76  CZ3       24.4750    8.2730   23.5760 C.ar   20  TRP20       0.0001
     77  CH2       24.9000    8.0640   22.2500 C.ar   20  TRP20       0.0015
     78  N         23.0440   11.9610   30.6120 N.3    22  LEU22      -0.1245
     79  CA        23.5130   10.9090   31.5520 C.3    22  LEU22       0.1561
     80  C         22.3950   10.5370   32.5250 C.2    22  LEU22       0.2260
     81  O         21.9730   11.3470   33.3490 O.2    22  LEU22      -0.2867
     82  CB        24.7330   11.4020   32.3330 C.3    22  LEU22       0.0270
     83  CG        25.3250   10.4230   33.3490 C.3    22  LEU22       0.0019
     84  CD1       25.6340    9.0780   32.6930 C.3    22  LEU22       0.0001
     85  CD2       26.5680   11.0320   33.9910 C.3    22  LEU22       0.0001
     86  N         14.9090    2.5290   30.7620 N.3    31  VAL31      -0.1231
     87  CA        14.9840    2.9670   29.3610 C.3    31  VAL31       0.1692
     88  C         14.5120    1.8580   28.4450 C.2    31  VAL31       0.2592
     89  O         14.9990    0.7540   28.5430 O.2    31  VAL31      -0.2718
     90  CB        16.4340    3.3710   28.9660 C.3    31  VAL31       0.0266
     91  CG1       16.6360    3.3580   27.4500 C.3    31  VAL31       0.0020
     92  CG2       16.7540    4.7450   29.5150 C.3    31  VAL31       0.0020
     93  N         13.5770    2.1460   27.5550 N.am   32  ASP32      -0.1960
     94  CA        13.1700    1.1480   26.5660 C.3    32  ASP32       0.1840
     95  C         14.0940    1.3080   25.3630 C.2    32  ASP32       0.2622
     96  O         13.9650    2.2600   24.5730 O.2    32  ASP32      -0.2715
     97  CB        11.7090    1.3550   26.1420 C.3    32  ASP32       0.1450
     98  CG        11.2220    0.2730   25.1810 C.2    32  ASP32       0.3671
     99  OD1       12.0490   -0.4090   24.5590 O.co2  32  ASP32      -0.2456
    100  OD2       10.0010    0.1280   25.0490 O.co2  32  ASP32      -0.2456
    101  N         15.0060    0.3480   25.2090 N.am   33  HIS33      -0.1959
    102  CA        15.9910    0.4280   24.1320 C.3    33  HIS33       0.1787
    103  C         15.3780    0.3210   22.7120 C.2    33  HIS33       0.2620
    104  O         16.0410    0.6360   21.7330 O.2    33  HIS33      -0.2715
    105  CB        17.0830   -0.6480   24.3500 C.3    33  HIS33       0.0785
    106  CG        17.8510   -0.4520   25.6220 C.ar   33  HIS33       0.0821
    107  ND1       19.0640    0.2060   25.6660 N.ar   33  HIS33      -0.2267
    108  CD2       17.5450   -0.7620   26.9060 C.ar   33  HIS33       0.1154
    109  CE1       19.4890    0.2500   26.9160 C.ar   33  HIS33       0.1986
    110  NE2       18.5750   -0.3070   27.6890 N.ar   33  HIS33      -0.2212
    111  N         14.1230   -0.1380   22.6090 N.am   34  ASP34      -0.1957
    112  CA        13.4870   -0.3350   21.3210 C.3    34  ASP34       0.1840
    113  C         12.6410    0.8410   20.9040 C.2    34  ASP34       0.2621
    114  O         12.0150    0.7740   19.8660 O.2    34  ASP34      -0.2715
    115  CB        12.5980   -1.6020   21.3380 C.3    34  ASP34       0.1450
    116  CG        13.3950   -2.8940   21.5760 C.2    34  ASP34       0.3671
    117  OD1       14.5200   -3.0420   21.0540 O.co2  34  ASP34      -0.2456
    118  OD2       12.8790   -3.7850   22.2680 O.co2  34  ASP34      -0.2456
    119  N         12.6090    1.9130   21.7060 N.am   35  GLU35      -0.1977
    120  CA        11.7750    3.0740   21.4230 C.3    35  GLU35       0.1602
    121  C         12.6210    4.3340   21.4150 C.2    35  GLU35       0.2287
    122  O         13.6750    4.3770   22.0380 O.2    35  GLU35      -0.2864
    123  CB        10.6860    3.2400   22.5020 C.3    35  GLU35       0.0415
    124  CG         9.7410    2.0490   22.6130 C.3    35  GLU35       0.1163
    125  CD         8.8520    1.8690   21.3950 C.2    35  GLU35       0.3649
    126  OE1        8.5660    2.8650   20.7180 O.co2  35  GLU35      -0.2457
    127  OE2        8.4320    0.7220   21.1250 O.co2  35  GLU35      -0.2457
    128  N         13.9790    8.0330   22.3630 N.3    37  TRP37      -0.1241
    129  CA        14.1720    8.7190   23.6280 C.3    37  TRP37       0.1605
    130  C         14.3660   10.2020   23.3270 C.2    37  TRP37       0.2264
    131  O         14.9950   10.5460   22.3170 O.2    37  TRP37      -0.2867
    132  CB        15.3840    8.1420   24.4070 C.3    37  TRP37       0.0550
    133  CG        15.4280    8.6210   25.8370 C.ar   37  TRP37       0.0003
    134  CD1       14.8510    8.0380   26.9330 C.ar   37  TRP37       0.0946
    135  CD2       16.0550    9.8250   26.3110 C.ar   37  TRP37       0.0152
    136  NE1       15.0980    8.7830   28.0570 N.ar   37  TRP37      -0.2442
    137  CE2       15.8410    9.8860   27.7030 C.ar   37  TRP37       0.0810
    138  CE3       16.8000   10.8350   25.6950 C.ar   37  TRP37       0.0012
    139  CZ2       16.3130   10.9160   28.4740 C.ar   37  TRP37       0.0191
    140  CZ3       17.2850   11.8660   26.4760 C.ar   37  TRP37       0.0001
    141  CH2       17.0400   11.8980   27.8440 C.ar   37  TRP37       0.0015
    142  N         31.5710   15.7700   28.9200 N.3    57  PHE57      -0.1241
    143  CA        32.2330   14.4590   28.8790 C.3    57  PHE57       0.1605
    144  C         33.6090   14.5570   28.2080 C.2    57  PHE57       0.2264
    145  O         34.0960   15.6400   27.8490 O.2    57  PHE57      -0.2867
    146  CB        31.3470   13.3590   28.2390 C.3    57  PHE57       0.0534
    147  CG        30.6340   13.7620   26.9530 C.ar   57  PHE57      -0.0203
    148  CD1       31.2470   13.5970   25.7030 C.ar   57  PHE57      -0.0042
    149  CD2       29.3170   14.2340   26.9870 C.ar   57  PHE57      -0.0042
    150  CE1       30.5720   13.9270   24.5300 C.ar   57  PHE57      -0.0003
    151  CE2       28.6430   14.5570   25.8200 C.ar   57  PHE57      -0.0003
    152  CZ        29.2730   14.4070   24.5890 C.ar   57  PHE57      -0.0000
@<TRIPOS>BOND
     1    58    57    2
     2    62    61   ar
     3    57    56    1
     4    59    56    1
     5    59    60    1
     6    53    52    2
     7    56    55    1
     8    61    60    1
     9    61    63   ar
    10    54    52   am
    11    52    51    1
    12   114   113    2
    13   126   125   ar
    14    51    50    1
    15   113   112    1
    16   113   119   am
    17   117   116   ar
    18   127   125   ar
    19   112   115    1
    20   112   111    1
    21   115   116    1
    22   125   124    1
    23   121   120    1
    24   121   122    2
    25   120   119    1
    26   120   123    1
    27    75    73   ar
    28    75    77   ar
    29   116   118   ar
    30    72    73   ar
    31    72    70   ar
    32    50    47    1
    33   104   103    2
    34    73    71   ar
    35    77    76   ar
    36   131   130    2
    37    49    48    2
    38   128   129    1
    39   123   124    1
    40    70    69   ar
    41   111   103   am
    42   103   102    1
    43    48    47    1
    44    47    46    1
    45   130   129    1
    46    71    69   ar
    47    71    74   ar
    48    76    74   ar
    49   129   132    1
    50    69    68    1
    51    46    41   am
    52   102   105    1
    53   102   101    1
    54    64    65    1
    55   105   106    1
    56   132   133    1
    57   150   152   ar
    58   150   148   ar
    59    99    98   ar
    60    96    95    2
    61   152   151   ar
    62    68    65    1
    63   100    98   ar
    64    65    66    1
    65    98    97    1
    66    41    42    2
    67    41    40    1
    68   101    95   am
    69    95    94    1
    70    45    43    1
    71   106   107   ar
    72   106   108   ar
    73   107   109   ar
    74   138   135   ar
    75   138   140   ar
    76   148   147   ar
    77   151   149   ar
    78   133   135   ar
    79   133   134   ar
    80    40    43    1
    81    40    39    1
    82    97    94    1
    83   135   137   ar
    84   140   141   ar
    85    66    67    2
    86    94    93    1
    87    43    44    1
    88    28    27    2
    89   108   110   ar
    90   109   110   ar
    91   134   136   ar
    92   147   149   ar
    93   147   146    1
    94    39    27   am
    95    27    26    1
    96    91    90    1
    97    93    88   am
    98    29    26    1
    99    29    30    1
   100   137   136   ar
   101   137   139   ar
   102   141   139   ar
   103   145   144    2
   104   144   143    1
   105   146   143    1
   106    26    25    1
   107    88    89    2
   108    88    87    1
   109    30    32   ar
   110    30    31   ar
   111    35    32   ar
   112    35    37   ar
   113    32    34   ar
   114   143   142    1
   115    90    87    1
   116    90    92    1
   117    31    33   ar
   118    37    38   ar
   119    25    20   am
   120    87    86    1
   121    34    33   ar
   122    34    36   ar
   123    22    24    1
   124    22    23    1
   125    22    19    1
   126    38    36   ar
   127    20    21    2
   128    20    19    1
   129    78    79    1
   130    19    18    1
   131    79    82    1
   132    79    80    1
   133    18    11   am
   134    82    83    1
   135    80    81    2
   136    84    83    1
   137    12    11    2
   138    11    10    1
   139    83    85    1
   140     4     3    2
   141    10    13    1
   142    10     9    1
   143     8     6   am
   144     5     6    1
   145     5     2    1
   146     3     9   am
   147     3     2    1
   148    13    14    1
   149     6     7    2
   150     2     1    1
   151    14    15    1
   152    16    15    1
   153    16    17    1
