@<TRIPOS>MOLECULE
tmp/4o6eA00.pdb
 206 194 0 0 0
SMALL
GASTEIGER

@<TRIPOS>ATOM
      1  N         22.7990   13.8100   14.0760 N.3    19  ILE19      -0.1231
      2  CA        22.5420   12.8280   13.0140 C.3    19  ILE19       0.1692
      3  C         21.5600   13.4380   11.9890 C.2    19  ILE19       0.2593
      4  O         21.8530   13.4710   10.8000 O.2    19  ILE19      -0.2718
      5  CB        22.1040   11.4290   13.5390 C.3    19  ILE19       0.0266
      6  CG1       23.3040   10.6510   14.1120 C.3    19  ILE19       0.0019
      7  CG2       21.3540   10.6000   12.4380 C.3    19  ILE19       0.0020
      8  CD1       22.9280    9.2660   14.7740 C.3    19  ILE19       0.0001
      9  N         20.4200   13.9080   12.4650 N.am   20  GLY20      -0.1942
     10  CA        19.3950   14.5140   11.6200 C.3    20  GLY20       0.2014
     11  C         18.2240   15.0080   12.4400 C.2    20  GLY20       0.2639
     12  O         18.2710   14.9880   13.6760 O.2    20  GLY20      -0.2714
     13  N         17.1710   15.4590   11.7600 N.am   21  GLU21      -0.1963
     14  CA        15.9700   15.9600   12.4280 C.3    21  GLU21       0.1733
     15  C         14.7210   15.7430   11.5990 C.2    21  GLU21       0.2616
     16  O         14.8160   15.5590   10.3830 O.2    21  GLU21      -0.2715
     17  CB        16.1250   17.4370   12.8690 C.3    21  GLU21       0.0429
     18  CG        16.2570   18.4510   11.7430 C.3    21  GLU21       0.1163
     19  CD        16.5540   19.8410   12.2690 C.2    21  GLU21       0.3649
     20  OE1       15.5900   20.6100   12.4870 O.co2  21  GLU21      -0.2457
     21  OE2       17.7420   20.1330   12.5370 O.co2  21  GLU21      -0.2457
     22  N         13.5750   15.7840   12.2770 N.am   22  GLY22      -0.1955
     23  CA        12.2380   15.6410   11.7110 C.3    22  GLY22       0.1869
     24  C         11.3400   16.8060   12.0850 C.2    22  GLY22       0.2309
     25  O         11.8220   17.8390   12.5680 O.2    22  GLY22      -0.2863
     26  N          9.1190   17.0250   14.5240 N.3    24  TYR24      -0.1227
     27  CA         8.9990   17.2180   15.9690 C.3    24  TYR24       0.1736
     28  C         10.1040   16.5160   16.7640 C.2    24  TYR24       0.2596
     29  O          9.9220   16.2450   17.9500 O.2    24  TYR24      -0.2718
     30  CB         7.5930   16.7620   16.4470 C.3    24  TYR24       0.0548
     31  CG         7.2860   15.3070   16.1540 C.ar   24  TYR24      -0.0200
     32  CD1        6.8900   14.8990   14.8810 C.ar   24  TYR24      -0.0009
     33  CD2        7.3590   14.3420   17.1540 C.ar   24  TYR24      -0.0009
     34  CE1        6.6270   13.5620   14.5990 C.ar   24  TYR24       0.0417
     35  CE2        7.0770   13.0000   16.8860 C.ar   24  TYR24       0.0417
     36  CZ         6.7050   12.6190   15.6070 C.ar   24  TYR24       0.1957
     37  OH         6.4540   11.3040   15.3120 O.3    24  TYR24      -0.2866
     38  N         11.2290   16.2350   16.1160 N.am   25  GLY25      -0.1942
     39  CA        12.3370   15.5440   16.7640 C.3    25  GLY25       0.2014
     40  C         13.7090   15.7430   16.1540 C.2    25  GLY25       0.2639
     41  O         13.8270   16.1710   15.0050 O.2    25  GLY25      -0.2714
     42  N         14.7590   15.4200   16.9370 N.am   26  MET26      -0.1963
     43  CA        16.1580   15.4980   16.5210 C.3    26  MET26       0.1736
     44  C         16.8920   14.2620   17.0280 C.2    26  MET26       0.2616
     45  O         16.7440   13.8830   18.1920 O.2    26  MET26      -0.2715
     46  CB        16.8190   16.7870   17.0380 C.3    26  MET26       0.0427
     47  CG        18.3210   16.8470   16.8080 C.3    26  MET26       0.0599
     48  SD        19.0690   18.3710   17.4320 S.3    26  MET26      -0.1393
     49  CE        18.4950   19.5280   16.1840 C.3    26  MET26       0.0692
     50  N         17.6650   13.6300   16.1440 N.am   27  VAL27      -0.1977
     51  CA        18.4540   12.4460   16.4670 C.3    27  VAL27       0.1596
     52  C         19.9120   12.8690   16.5540 C.2    27  VAL27       0.2287
     53  O         20.3850   13.6380   15.7110 O.2    27  VAL27      -0.2864
     54  CB        18.2540   11.2770   15.4570 C.3    27  VAL27       0.0276
     55  CG1       19.1010   10.0590   15.8330 C.3    27  VAL27       0.0022
     56  CG2       16.7850   10.8760   15.3470 C.3    27  VAL27       0.0022
     57  N         22.1220    5.7620   19.8410 N.3    40  ALA40      -0.1245
     58  CA        21.3410    6.7920   19.1580 C.3    40  ALA40       0.1562
     59  C         20.3450    7.3390   20.1980 C.2    40  ALA40       0.2260
     60  O         19.7550    6.5680   20.9660 O.2    40  ALA40      -0.2867
     61  CB        20.5790    6.1910   17.9850 C.3    40  ALA40       0.0290
     62  N         17.0920   10.0330   20.4070 N.3    42  LYS42      -0.1245
     63  CA        16.1120   10.8280   19.7010 C.3    42  LYS42       0.1561
     64  C         15.3620   11.7310   20.6890 C.2    42  LYS42       0.2260
     65  O         14.6840   11.2340   21.5870 O.2    42  LYS42      -0.2867
     66  CB        15.1680    9.8720   18.9480 C.3    42  LYS42       0.0271
     67  CG        14.1340   10.5390   18.0540 C.3    42  LYS42       0.0035
     68  CD        13.4930    9.5200   17.1010 C.3    42  LYS42       0.0206
     69  CE        12.7480    8.3850   17.7700 C.3    42  LYS42       0.1093
     70  NZ        12.0960    7.5020   16.7760 N.3    42  LYS42      -0.1314
     71  N         12.3130   13.9760   21.2450 N.3    44  ILE44      -0.1245
     72  CA        11.0370   14.2490   20.5760 C.3    44  ILE44       0.1561
     73  C         10.2240   15.2530   21.3910 C.2    44  ILE44       0.2260
     74  O         10.1840   15.1850   22.6210 O.2    44  ILE44      -0.2867
     75  CB        10.2210   12.9910   20.1400 C.3    44  ILE44       0.0252
     76  CG1       10.0720   11.9830   21.2620 C.3    44  ILE44       0.0019
     77  CG2       10.8550   12.3270   18.9150 C.3    44  ILE44       0.0019
     78  CD1        8.8510   12.1420   21.9980 C.3    44  ILE44       0.0001
     79  N          4.9160    4.4170   19.0600 N.3    59  GLU59      -0.1245
     80  CA         6.2900    3.9750   18.9540 C.3    59  GLU59       0.1567
     81  C          6.7850    3.4550   20.2980 C.2    59  GLU59       0.2260
     82  O          7.3290    2.3510   20.3420 O.2    59  GLU59      -0.2867
     83  CB         7.1960    5.0840   18.3780 C.3    59  GLU59       0.0388
     84  CG         8.6820    4.9210   18.6940 C.3    59  GLU59       0.1160
     85  CD         9.6610    4.8390   17.5360 C.2    59  GLU59       0.3649
     86  OE1        9.2860    4.3200   16.4620 O.co2  59  GLU59      -0.2457
     87  OE2       10.8390    5.2060   17.7400 O.co2  59  GLU59      -0.2457
     88  N         14.3050   -2.4340   15.8380 N.3    72  ILE72      -0.1245
     89  CA        15.0160   -1.5630   16.7660 C.3    72  ILE72       0.1561
     90  C         14.2860   -1.6040   18.1200 C.2    72  ILE72       0.2260
     91  O         13.0490   -1.6530   18.1590 O.2    72  ILE72      -0.2867
     92  CB        15.1440   -0.1070   16.1890 C.3    72  ILE72       0.0252
     93  CG1       16.2710    0.6890   16.8880 C.3    72  ILE72       0.0019
     94  CG2       13.7930    0.6640   16.2680 C.3    72  ILE72       0.0019
     95  CD1       17.7010    0.2430   16.5810 C.3    72  ILE72       0.0001
     96  N         18.3440    4.3620   21.8790 N.3    93  GLN93      -0.1231
     97  CA        18.2700    3.1160   21.1110 C.3    93  GLN93       0.1698
     98  C         19.6450    2.6830   20.6160 C.2    93  GLN93       0.2592
     99  O         20.5780    3.4790   20.6260 O.2    93  GLN93      -0.2718
    100  CB        17.3260    3.3370   19.8890 C.3    93  GLN93       0.0381
    101  CG        15.9380    3.8740   20.2910 C.3    93  GLN93       0.0905
    102  CD        15.0270    4.1220   19.1260 C.2    93  GLN93       0.2608
    103  OE1       14.9940    5.2100   18.5650 O.2    93  GLN93      -0.2717
    104  NE2       14.2220    3.1410   18.7880 N.am   93  GLN93      -0.0878
    105  N         19.7470    1.4490   20.0990 N.am   94  ASP94      -0.1960
    106  CA        20.9970    0.9640   19.4960 C.3    94  ASP94       0.1840
    107  C         21.4020    1.8720   18.3290 C.2    94  ASP94       0.2622
    108  O         20.5580    2.2440   17.5170 O.2    94  ASP94      -0.2715
    109  CB        20.8340   -0.4790   18.9920 C.3    94  ASP94       0.1450
    110  CG        20.7150   -1.5300   20.0860 C.2    94  ASP94       0.3671
    111  OD1       21.1420   -1.2540   21.2310 O.co2  94  ASP94      -0.2456
    112  OD2       20.2810   -2.6590   19.7760 O.co2  94  ASP94      -0.2456
    113  N         22.6760    2.2750   18.2770 N.am   95  LEU95      -0.1963
    114  CA        23.1480    3.1000   17.1750 C.3    95  LEU95       0.1728
    115  C         23.4280    2.2100   15.9700 C.2    95  LEU95       0.2616
    116  O         24.1490    1.2160   16.0740 O.2    95  LEU95      -0.2715
    117  CB        24.4120    3.9120   17.5490 C.3    95  LEU95       0.0311
    118  CG        24.9940    4.8380   16.4520 C.3    95  LEU95       0.0022
    119  CD1       24.0320    5.9270   16.0570 C.3    95  LEU95       0.0001
    120  CD2       26.3140    5.4820   16.9170 C.3    95  LEU95       0.0001
    121  N         22.8540    2.5640   14.8330 N.am   96  MET96      -0.1963
    122  CA        23.0960    1.8290   13.5930 C.3    96  MET96       0.1736
    123  C         24.0080    2.6770   12.6960 C.2    96  MET96       0.2616
    124  O         23.9840    3.9030   12.7850 O.2    96  MET96      -0.2715
    125  CB        21.7720    1.4570   12.8980 C.3    96  MET96       0.0427
    126  CG        20.8770    0.5140   13.7480 C.3    96  MET96       0.0599
    127  SD        21.6160   -1.0760   14.1310 S.3    96  MET96      -0.1393
    128  CE        21.1880   -1.9990   12.6610 C.3    96  MET96       0.0692
    129  N         24.8060    2.0300   11.8450 N.am   97  GLU97      -0.1963
    130  CA        25.7730    2.7190   10.9760 C.3    97  GLU97       0.1733
    131  C         25.1150    3.5090    9.8500 C.2    97  GLU97       0.2617
    132  O         25.5230    4.6360    9.5730 O.2    97  GLU97      -0.2715
    133  CB        26.7950    1.7050   10.4290 C.3    97  GLU97       0.0429
    134  CG        27.8720    2.2870    9.5190 C.3    97  GLU97       0.1163
    135  CD        28.9910    3.0670   10.1850 C.2    97  GLU97       0.3649
    136  OE1       29.4480    2.6550   11.2770 O.co2  97  GLU97      -0.2457
    137  OE2       29.4650    4.0530    9.5730 O.co2  97  GLU97      -0.2457
    138  N         24.0860    2.9350    9.2060 N.am   98  THR98      -0.1937
    139  CA        23.4480    3.5870    8.0550 C.3    98  THR98       0.2028
    140  C         21.9980    3.1200    7.9020 C.2    98  THR98       0.2642
    141  O         21.4550    2.4500    8.7900 O.2    98  THR98      -0.2714
    142  CB        24.3340    3.3300    6.7720 C.3    98  THR98       0.1808
    143  OG1       23.8660    4.1520    5.6920 O.3    98  THR98      -0.2208
    144  CG2       24.3480    1.8450    6.3280 C.3    98  THR98       0.0379
    145  N         21.3570    3.4890    6.7810 N.am   99  ASP99      -0.1971
    146  CA        20.0210    3.0130    6.4760 C.3    99  ASP99       0.1709
    147  C         20.0030    2.5400    5.0180 C.2    99  ASP99       0.2293
    148  O         20.9520    2.8170    4.2860 O.2    99  ASP99      -0.2864
    149  CB        18.9200    4.0300    6.8520 C.3    99  ASP99       0.1436
    150  CG        18.9430    5.3430    6.1000 C.2    99  ASP99       0.3671
    151  OD1       19.0960    5.3180    4.8710 O.co2  99  ASP99      -0.2456
    152  OD2       18.6990    6.3830    6.7280 O.co2  99  ASP99      -0.2456
    153  N         20.3350    5.4490    2.1720 N.3   102  LYS102     -0.1245
    154  CA        21.7310    5.8740    1.9680 C.3   102  LYS102      0.1561
    155  C         22.5200    4.8100    1.2380 C.2   102  LYS102      0.2260
    156  O         23.3130    5.1300    0.3450 O.2   102  LYS102     -0.2867
    157  CB        22.4350    6.1480    3.3140 C.3   102  LYS102      0.0271
    158  CG        21.8230    7.2560    4.1630 C.3   102  LYS102      0.0035
    159  CD        22.7390    7.5660    5.3430 C.3   102  LYS102      0.0206
    160  CE        22.2860    8.7800    6.1020 C.3   102  LYS102      0.1093
    161  NZ        23.3680    9.3020    6.9820 N.3   102  LYS102     -0.1314
    162  N          9.8020    1.5760    4.1950 N.3   139  LYS139     -0.1245
    163  CA        10.5640    2.2400    3.1500 C.3   139  LYS139      0.1561
    164  C         12.0620    2.1410    3.4690 C.2   139  LYS139      0.2260
    165  O         12.4230    1.8550    4.6210 O.2   139  LYS139     -0.2867
    166  CB        10.1030    3.7070    2.9510 C.3   139  LYS139      0.0271
    167  CG        10.2650    4.6090    4.1650 C.3   139  LYS139      0.0035
    168  CD         9.6390    5.9880    3.8660 C.3   139  LYS139      0.0206
    169  CE         9.4720    6.8340    5.1040 C.3   139  LYS139      0.1093
    170  NZ         9.2980    8.2770    4.7430 N.3   139  LYS139     -0.1314
    171  N         14.4890    4.2420    4.0780 N.3   141  SER141     -0.1202
    172  CA        15.0090    5.0520    5.1910 C.3   141  SER141      0.2020
    173  C         14.5810    4.5220    6.5820 C.2   141  SER141      0.2618
    174  O         15.1880    4.9020    7.5670 O.2   141  SER141     -0.2717
    175  CB        14.6340    6.5230    5.0200 C.3   141  SER141      0.2103
    176  OG        13.2330    6.6440    5.0970 O.3   141  SER141     -0.2182
    177  N         13.5640    3.6350    6.6600 N.am  142  ASN142     -0.1974
    178  CA        13.1590    3.0210    7.9320 C.3   142  ASN142      0.1688
    179  C         13.8300    1.6560    8.1450 C.2   142  ASN142      0.2292
    180  O         13.4450    0.9240    9.0470 O.2   142  ASN142     -0.2864
    181  CB        11.6180    2.9410    8.0660 C.3   142  ASN142      0.1181
    182  CG        11.0230    4.2950    8.3270 C.2   142  ASN142      0.2629
    183  OD1       11.7150    5.2310    8.7730 O.2   142  ASN142     -0.2716
    184  ND2        9.7560    4.4510    7.9870 N.am  142  ASN142     -0.0877
    185  N         17.3290    0.1920    9.0880 N.3   144  LEU144     -0.1245
    186  CA        18.6620    0.5120    9.5840 C.3   144  LEU144      0.1561
    187  C         19.6180   -0.6450    9.3970 C.2   144  LEU144      0.2260
    188  O         19.2210   -1.7920    9.5730 O.2   144  LEU144     -0.2867
    189  CB        18.6110    0.9250   11.0600 C.3   144  LEU144      0.0270
    190  CG        17.6210    2.0480   11.4720 C.3   144  LEU144      0.0019
    191  CD1       17.6250    2.2280   12.9580 C.3   144  LEU144      0.0001
    192  CD2       17.9750    3.3710   10.8490 C.3   144  LEU144      0.0001
    193  N         12.7880    0.2290   11.8700 N.3   154  CYS154     -0.1221
    194  CA        12.5670    1.2910   12.8460 C.3   154  CYS154      0.1808
    195  C         11.3350    2.1360   12.4800 C.2   154  CYS154      0.2601
    196  O         10.6600    1.8600   11.4690 O.2   154  CYS154     -0.2717
    197  CB        13.8240    2.1520   13.0030 C.3   154  CYS154      0.0970
    198  SG        14.0930    3.3350   11.6550 S.3   154  CYS154     -0.0800
    199  N         11.0350    3.1460   13.3280 N.am  155  ASP155     -0.1973
    200  CA         9.9550    4.1340   13.1560 C.3   155  ASP155      0.1709
    201  C          8.5630    3.5280   13.0640 C.2   155  ASP155      0.2293
    202  O          7.9790    3.4170   11.9810 O.2   155  ASP155     -0.2864
    203  CB        10.2190    5.0880   11.9760 C.3   155  ASP155      0.1436
    204  CG         9.4530    6.4000   12.0990 C.2   155  ASP155      0.3671
    205  OD1        8.4850    6.4570   12.9020 O.co2 155  ASP155     -0.2456
    206  OD2        9.7900    7.3440   11.3770 O.co2 155  ASP155     -0.2456
@<TRIPOS>BOND
     1   156   155    2
     2   155   154    1
     3   154   153    1
     4   154   157    1
     5   166   163    1
     6   166   167    1
     7   163   164    1
     8   163   162    1
     9   157   158    1
    10   164   165    2
    11   168   167    1
    12   168   169    1
    13   171   172    1
    14   158   159    1
    15   148   147    2
    16   170   169    1
    17   151   150   ar
    18   147   146    1
    19   175   176    1
    20   175   172    1
    21   172   173    1
    22   159   160    1
    23   143   142    1
    24   150   152   ar
    25   150   149    1
    26   160   161    1
    27   144   142    1
    28   146   145    1
    29   146   149    1
    30   173   177   am
    31   173   174    2
    32   177   178    1
    33   142   139    1
    34   145   140   am
    35   140   139    1
    36   140   141    2
    37   178   181    1
    38   178   179    1
    39   184   182   am
    40   139   138    1
    41   181   182    1
    42   179   180    2
    43   182   183    2
    44   185   186    1
    45   138   131   am
    46   187   188    2
    47   187   186    1
    48   134   135    1
    49   134   133    1
    50   137   135   ar
    51   132   131    2
    52   186   189    1
    53   131   130    1
    54   135   136   ar
    55    16    15    2
    56   133   130    1
    57     4     3    2
    58   192   190    1
    59   130   129    1
    60   189   190    1
    61   206   204   ar
    62   196   195    2
    63   190   191    1
    64    15    22   am
    65    15    14    1
    66    10    11    1
    67    10     9    1
    68   198   197    1
    69    23    24    1
    70    23    22    1
    71    18    19    1
    72    18    17    1
    73    13    14    1
    74    13    11   am
    75   129   123   am
    76   193   194    1
    77   203   204    1
    78   203   200    1
    79   202   201    2
    80     3     9   am
    81     3     2    1
    82    24    25    2
    83   204   205   ar
    84    19    20   ar
    85    19    21   ar
    86    14    17    1
    87     7     5    1
    88    11    12    2
    89   195   194    1
    90   195   199   am
    91   128   127    1
    92   123   124    2
    93   123   122    1
    94   194   197    1
    95   125   122    1
    96   125   126    1
    97     2     5    1
    98     2     1    1
    99   201   200    1
   100   200   199    1
   101     5     6    1
   102   122   121    1
   103   126   127    1
   104     6     8    1
   105    26    27    1
   106    34    32   ar
   107    34    36   ar
   108   121   115   am
   109    32    31   ar
   110    41    40    2
   111    37    36    1
   112    56    54    1
   113    54    55    1
   114    54    51    1
   115    36    35   ar
   116    53    52    2
   117    88    89    1
   118    27    30    1
   119    27    28    1
   120   115   116    2
   121   115   114    1
   122   119   118    1
   123    38    39    1
   124    38    28   am
   125    50    51    1
   126    50    44   am
   127    40    39    1
   128    40    42   am
   129    31    30    1
   130    31    33   ar
   131    49    48    1
   132    92    94    1
   133    92    89    1
   134    92    93    1
   135   118   120    1
   136   118   117    1
   137    86    85   ar
   138    51    52    1
   139    43    42    1
   140    43    44    1
   141    43    46    1
   142    95    93    1
   143    28    29    2
   144    89    90    1
   145    70    69    1
   146    47    46    1
   147    47    48    1
   148    35    33   ar
   149    44    45    2
   150    68    69    1
   151    68    67    1
   152   114   117    1
   153   114   113    1
   154   108   107    2
   155    85    87   ar
   156    85    84    1
   157    61    58    1
   158    67    66    1
   159    90    91    2
   160   113   107   am
   161   107   106    1
   162    83    84    1
   163    83    80    1
   164   103   102    2
   165   104   102   am
   166    77    75    1
   167    66    63    1
   168    80    79    1
   169    80    81    1
   170   109   106    1
   171   109   110    1
   172   102   101    1
   173    58    57    1
   174    58    59    1
   175   106   105    1
   176    63    62    1
   177    63    64    1
   178   112   110   ar
   179   100   101    1
   180   100    97    1
   181   110   111   ar
   182   105    98   am
   183    75    72    1
   184    75    76    1
   185    59    60    2
   186    81    82    2
   187    72    71    1
   188    72    73    1
   189    98    99    2
   190    98    97    1
   191    64    65    2
   192    97    96    1
   193    76    78    1
   194    73    74    2
