@<TRIPOS>MOLECULE
tmp/4o6fA02.pdb
 165 157 0 0 0
SMALL
GASTEIGER

@<TRIPOS>ATOM
      1  N         52.8040  188.1630  -25.6280 N.3   188  GLU188     -0.1245
      2  CA        51.7340  187.4520  -26.3300 C.3   188  GLU188      0.1567
      3  C         51.8320  185.9340  -26.1800 C.2   188  GLU188      0.2260
      4  O         51.1510  185.1900  -26.8810 O.2   188  GLU188     -0.2867
      5  CB        51.7650  187.8240  -27.8090 C.3   188  GLU188      0.0388
      6  CG        51.3780  189.2690  -28.0690 C.3   188  GLU188      0.1160
      7  CD        51.5450  189.6660  -29.5220 C.2   188  GLU188      0.3649
      8  OE1       51.8770  188.7850  -30.3450 O.co2 188  GLU188     -0.2457
      9  OE2       51.3660  190.8630  -29.8360 O.co2 188  GLU188     -0.2457
     10  N         54.2430  184.1560  -27.0830 N.3   190  SER190     -0.1217
     11  CA        55.0220  183.6170  -28.1840 C.3   190  SER190      0.1889
     12  C         56.3130  183.0530  -27.5910 C.2   190  SER190      0.2288
     13  O         56.8950  183.6600  -26.6970 O.2   190  SER190     -0.2866
     14  CB        55.3050  184.6930  -29.2280 C.3   190  SER190      0.2089
     15  OG        55.8860  184.1220  -30.3850 O.3   190  SER190     -0.2183
     16  N         46.8420  167.5310  -35.2540 N.3   303  PHE303     -0.1241
     17  CA        47.0730  168.9260  -35.6100 C.3   303  PHE303      0.1605
     18  C         48.4790  169.3590  -35.2290 C.2   303  PHE303      0.2264
     19  O         49.1620  170.0450  -35.9950 O.2   303  PHE303     -0.2867
     20  CB        46.0370  169.8840  -35.0340 C.3   303  PHE303      0.0534
     21  CG        46.2010  171.2820  -35.5420 C.ar  303  PHE303     -0.0203
     22  CD1       45.5860  171.6530  -36.7260 C.ar  303  PHE303     -0.0042
     23  CD2       47.0000  172.2060  -34.8860 C.ar  303  PHE303     -0.0042
     24  CE1       45.7320  172.9230  -37.2420 C.ar  303  PHE303     -0.0003
     25  CE2       47.1520  173.4890  -35.3980 C.ar  303  PHE303     -0.0003
     26  CZ        46.5140  173.8440  -36.5830 C.ar  303  PHE303     -0.0000
     27  N         51.5320  170.6420  -38.2560 N.3   307  LYS307     -0.1245
     28  CA        52.1040  171.9770  -38.4200 C.3   307  LYS307      0.1561
     29  C         53.4100  171.8840  -39.2050 C.2   307  LYS307      0.2260
     30  O         53.8350  172.8340  -39.8560 O.2   307  LYS307     -0.2867
     31  CB        52.4070  172.5290  -37.0310 C.3   307  LYS307      0.0271
     32  CG        51.1650  172.8320  -36.2100 C.3   307  LYS307      0.0035
     33  CD        51.3990  173.8460  -35.0950 C.3   307  LYS307      0.0206
     34  CE        51.9180  175.1840  -35.5660 C.3   307  LYS307      0.1093
     35  NZ        51.8300  176.1870  -34.4600 N.3   307  LYS307     -0.1314
     36  N         51.9600  170.2280  -43.2550 N.3   310  LYS310     -0.1245
     37  CA        50.8180  170.7750  -43.9790 C.3   310  LYS310      0.1561
     38  C         50.9000  172.2840  -44.2590 C.2   310  LYS310      0.2260
     39  O         51.5800  173.0180  -43.5480 O.2   310  LYS310     -0.2867
     40  CB        49.6180  170.5460  -43.0680 C.3   310  LYS310      0.0271
     41  CG        48.9960  169.1550  -43.1580 C.3   310  LYS310      0.0035
     42  CD        47.8960  168.9640  -44.1520 C.3   310  LYS310      0.0206
     43  CE        47.5590  167.4800  -44.2020 C.3   310  LYS310      0.1093
     44  NZ        46.4710  167.1580  -45.1580 N.3   310  LYS310     -0.1314
     45  N         49.2560  176.1620  -44.6300 N.3   312  PRO312     -0.2116
     46  CA        48.2360  176.8450  -43.8230 C.3   312  PRO312      0.1372
     47  C         46.7700  176.5870  -44.2000 C.2   312  PRO312      0.2244
     48  O         45.9390  176.3760  -43.3140 O.2   312  PRO312     -0.2868
     49  CB        48.5600  178.3200  -44.0740 C.3   312  PRO312      0.0268
     50  CG        50.0230  178.3280  -44.3310 C.3   312  PRO312      0.0207
     51  CD        50.2340  177.1150  -45.1810 C.3   312  PRO312      0.0892
     52  N         45.8030  173.2280  -42.8580 N.3   315  LEU315     -0.1245
     53  CA        45.6290  173.2470  -41.4190 C.3   315  LEU315      0.1561
     54  C         44.2900  173.9080  -41.0880 C.2   315  LEU315      0.2260
     55  O         43.5110  173.4230  -40.2510 O.2   315  LEU315     -0.2867
     56  CB        46.7620  174.0630  -40.7990 C.3   315  LEU315      0.0270
     57  CG        48.1550  173.4430  -40.8960 C.3   315  LEU315      0.0019
     58  CD1       49.2040  174.4590  -40.4850 C.3   315  LEU315      0.0001
     59  CD2       48.2540  172.1860  -40.0450 C.3   315  LEU315      0.0001
     60  N         41.4410  178.7360  -31.7710 N.3   342  TYR342     -0.1227
     61  CA        42.6700  179.4340  -31.4260 C.3   342  TYR342      0.1736
     62  C         43.7650  179.1280  -32.4790 C.2   342  TYR342      0.2595
     63  O         44.4530  180.0360  -32.9780 O.2   342  TYR342     -0.2718
     64  CB        43.0560  179.0410  -29.9970 C.3   342  TYR342      0.0548
     65  CG        44.2350  179.7710  -29.4290 C.ar  342  TYR342     -0.0200
     66  CD1       44.1160  181.1070  -29.0780 C.ar  342  TYR342     -0.0009
     67  CD2       45.4360  179.1280  -29.1700 C.ar  342  TYR342     -0.0009
     68  CE1       45.1610  181.7960  -28.5350 C.ar  342  TYR342      0.0417
     69  CE2       46.4940  179.8180  -28.6190 C.ar  342  TYR342      0.0417
     70  CZ        46.3410  181.1520  -28.3040 C.ar  342  TYR342      0.1957
     71  OH        47.3790  181.8560  -27.7690 O.3   342  TYR342     -0.2866
     72  N         43.9220  177.8480  -32.8110 N.am  343  GLN343     -0.1979
     73  CA        44.8930  177.4350  -33.8240 C.3   343  GLN343      0.1601
     74  C         44.5500  178.0970  -35.1590 C.2   343  GLN343      0.2287
     75  O         45.4290  178.6340  -35.8540 O.2   343  GLN343     -0.2864
     76  CB        44.8760  175.9130  -34.0000 C.3   343  GLN343      0.0394
     77  CG        45.4240  175.1210  -32.8210 C.3   343  GLN343      0.0908
     78  CD        46.7710  175.6250  -32.3410 C.2   343  GLN343      0.2608
     79  OE1       47.7340  175.6950  -33.1080 O.2   343  GLN343     -0.2717
     80  NE2       46.8420  175.9900  -31.0650 N.am  343  GLN343     -0.0878
     81  N         42.9380  180.8400  -35.5360 N.3   345  MET345     -0.1230
     82  CA        43.3040  182.2400  -35.3930 C.3   345  MET345      0.1702
     83  C         44.7850  182.4070  -35.7000 C.2   345  MET345      0.2593
     84  O         45.1870  183.3290  -36.4110 O.2   345  MET345     -0.2718
     85  CB        43.0620  182.7180  -33.9680 C.3   345  MET345      0.0401
     86  CG        43.3800  184.1830  -33.7800 C.3   345  MET345      0.0596
     87  SD        43.0810  184.7150  -32.1020 S.3   345  MET345     -0.1393
     88  CE        43.3330  186.4770  -32.2970 C.3   345  MET345      0.0692
     89  N         45.5950  181.5120  -35.1490 N.am  346  GLY346     -0.1942
     90  CA        47.0230  181.5610  -35.3930 C.3   346  GLY346      0.2014
     91  C         47.3530  181.4210  -36.8680 C.2   346  GLY346      0.2638
     92  O         48.2000  182.1630  -37.3880 O.2   346  GLY346     -0.2714
     93  N         46.6540  180.5240  -37.5640 N.am  347  VAL347     -0.1977
     94  CA        46.8870  180.3760  -39.0030 C.3   347  VAL347      0.1596
     95  C         46.5060  181.6650  -39.7100 C.2   347  VAL347      0.2287
     96  O         47.2640  182.1510  -40.5480 O.2   347  VAL347     -0.2864
     97  CB        46.0910  179.2110  -39.6410 C.3   347  VAL347      0.0276
     98  CG1       46.4050  179.0900  -41.1340 C.3   347  VAL347      0.0022
     99  CG2       46.3590  177.8990  -38.9200 C.3   347  VAL347      0.0022
    100  N         46.5480  184.6350  -38.4980 N.3   349  LEU349     -0.1231
    101  CA        47.5780  185.6260  -38.2060 C.3   349  LEU349      0.1693
    102  C         48.7770  185.3610  -39.1050 C.2   349  LEU349      0.2592
    103  O         49.3860  186.2950  -39.6300 O.2   349  LEU349     -0.2718
    104  CB        47.9760  185.6180  -36.7350 C.3   349  LEU349      0.0284
    105  CG        46.9580  186.2900  -35.8110 C.3   349  LEU349      0.0019
    106  CD1       47.2720  185.9540  -34.3650 C.3   349  LEU349      0.0001
    107  CD2       46.9070  187.8000  -36.0250 C.3   349  LEU349      0.0001
    108  N         49.1250  184.0890  -39.2770 N.am  350  TYR350     -0.1976
    109  CA        50.2230  183.7420  -40.1790 C.3   350  TYR350      0.1639
    110  C         49.9520  184.1230  -41.6370 C.2   350  TYR350      0.2290
    111  O         50.8280  184.6930  -42.2940 O.2   350  TYR350     -0.2864
    112  CB        50.6560  182.2810  -40.0700 C.3   350  TYR350      0.0560
    113  CG        51.8960  182.0110  -40.8990 C.ar  350  TYR350     -0.0198
    114  CD1       53.1660  182.2660  -40.4080 C.ar  350  TYR350     -0.0009
    115  CD2       51.7860  181.4520  -42.1720 C.ar  350  TYR350     -0.0009
    116  CE1       54.2930  182.0220  -41.1800 C.ar  350  TYR350      0.0417
    117  CE2       52.9000  181.1900  -42.9410 C.ar  350  TYR350      0.0417
    118  CZ        54.1530  181.4770  -42.4440 C.ar  350  TYR350      0.1957
    119  OH        55.2660  181.2140  -43.2110 O.3   350  TYR350     -0.2866
    120  N         44.0700  189.4120  -40.9910 N.3   354  TRP354     -0.1241
    121  CA        43.7420  190.1150  -39.7570 C.3   354  TRP354      0.1605
    122  C         42.2610  190.0270  -39.3870 C.2   354  TRP354      0.2264
    123  O         41.9170  189.7870  -38.2230 O.2   354  TRP354     -0.2867
    124  CB        44.0810  191.5920  -39.9150 C.3   354  TRP354      0.0550
    125  CG        45.4220  191.8390  -40.5050 C.ar  354  TRP354      0.0003
    126  CD1       45.6980  192.6230  -41.5820 C.ar  354  TRP354      0.0946
    127  CD2       46.6640  191.2600  -40.1010 C.ar  354  TRP354      0.0152
    128  NE1       47.0390  192.5950  -41.8560 N.ar  354  TRP354     -0.2442
    129  CE2       47.6560  191.7620  -40.9630 C.ar  354  TRP354      0.0810
    130  CE3       47.0380  190.3770  -39.0870 C.ar  354  TRP354      0.0012
    131  CZ2       48.9930  191.4130  -40.8420 C.ar  354  TRP354      0.0191
    132  CZ3       48.3650  190.0320  -38.9690 C.ar  354  TRP354      0.0001
    133  CH2       49.3280  190.5490  -39.8390 C.ar  354  TRP354      0.0015
    134  N         46.3480  190.7770  -27.9150 N.3   385  LYS385     -0.1245
    135  CA        46.3490  190.4930  -29.3380 C.3   385  LYS385      0.1561
    136  C         45.1230  191.0820  -30.0330 C.2   385  LYS385      0.2260
    137  O         45.2230  191.7250  -31.0860 O.2   385  LYS385     -0.2867
    138  CB        46.4030  188.9720  -29.5550 C.3   385  LYS385      0.0271
    139  CG        46.7830  188.5210  -30.9660 C.3   385  LYS385      0.0035
    140  CD        47.8270  189.4450  -31.5550 C.3   385  LYS385      0.0206
    141  CE        48.6150  188.8240  -32.6580 C.3   385  LYS385      0.1093
    142  NZ        49.9710  189.4540  -32.6710 N.3   385  LYS385     -0.1314
    143  N         45.6170  194.8250  -30.1910 N.3   388  ARG388     -0.1231
    144  CA        46.5490  195.2300  -31.2400 C.3   388  ARG388      0.1694
    145  C         45.9260  195.0440  -32.6240 C.2   388  ARG388      0.2591
    146  O         46.1700  195.8380  -33.5420 O.2   388  ARG388     -0.2718
    147  CB        47.8840  194.5030  -31.1120 C.3   388  ARG388      0.0321
    148  CG        48.6980  194.9970  -29.9300 C.3   388  ARG388      0.0489
    149  CD        49.9480  194.1790  -29.7130 C.3   388  ARG388      0.2205
    150  NE        50.8760  194.8530  -28.8120 N.pl3 388  ARG388     -0.0865
    151  CZ        51.8730  194.2490  -28.1770 C.cat 388  ARG388      0.5346
    152  NH1       52.0900  192.9530  -28.3570 N.pl3 388  ARG388      0.1354
    153  NH2       52.6460  194.9390  -27.3480 N.pl3 388  ARG388      0.1354
    154  N         45.0890  194.0210  -32.7630 N.am  389  LEU389     -0.1980
    155  CA        44.3910  193.8100  -34.0250 C.3   389  LEU389      0.1596
    156  C         43.4180  194.9590  -34.2500 C.2   389  LEU389      0.2287
    157  O         43.3920  195.5340  -35.3370 O.2   389  LEU389     -0.2864
    158  CB        43.6250  192.4890  -34.0380 C.3   389  LEU389      0.0297
    159  CG        44.4560  191.2370  -34.3000 C.3   389  LEU389      0.0022
    160  CD1       43.7420  190.0010  -33.7780 C.3   389  LEU389      0.0001
    161  CD2       44.7480  191.0960  -35.7880 C.3   389  LEU389      0.0001
    162  N         45.3780  198.0410  -35.0830 N.3   392  GLY392     -0.1225
    163  CA        45.9470  197.9430  -36.4170 C.3   392  GLY392      0.1811
    164  C         44.8630  198.1050  -37.4670 C.2   392  GLY392      0.2280
    165  O         45.1460  198.5830  -38.5630 O.2   392  GLY392     -0.2866
@<TRIPOS>BOND
     1    51    45    1
     2    51    50    1
     3    44    43    1
     4    45    46    1
     5    50    49    1
     6    38    37    1
     7    38    39    2
     8    43    42    1
     9    47    46    1
    10    47    48    2
    11    42    41    1
    12    49    46    1
    13    37    36    1
    14    37    40    1
    15   119   118    1
    16    41    40    1
    17   117   118   ar
    18   117   115   ar
    19    52    53    1
    20   118   116   ar
    21   111   110    2
    22   115   113   ar
    23   128   126   ar
    24   128   129   ar
    25   110   109    1
    26   126   125   ar
    27    53    54    1
    28    53    56    1
    29   116   114   ar
    30    98    97    1
    31    54    55    2
    32   120   121    1
    33   129   131   ar
    34   129   127   ar
    35   113   114   ar
    36   113   112    1
    37    57    56    1
    38    57    58    1
    39    57    59    1
    40   131   133   ar
    41    96    95    2
    42   125   127   ar
    43   125   124    1
    44   109   112    1
    45   109   108    1
    46   127   130   ar
    47   124   121    1
    48    30    29    2
    49   133   132   ar
    50   121   122    1
    51    95    94    1
    52    97    94    1
    53    97    99    1
    54   103   102    2
    55   122   123    2
    56   108   102   am
    57    29    28    1
    58   102   101    1
    59   130   132   ar
    60    94    93    1
    61   165   164    2
    62   100   101    1
    63    28    27    1
    64    28    31    1
    65   101   104    1
    66    93    91   am
    67   164   163    1
    68    92    91    2
    69    24    22   ar
    70    24    26   ar
    71    31    32    1
    72    91    90    1
    73   104   105    1
    74    22    21   ar
    75    26    25   ar
    76   163   162    1
    77    84    83    2
    78    32    33    1
    79   107   105    1
    80    19    18    2
    81    75    74    2
    82   105   106    1
    83   161   159    1
    84    83    82    1
    85    83    89   am
    86    17    16    1
    87    17    18    1
    88    17    20    1
    89    34    33    1
    90    34    35    1
    91    21    20    1
    92    21    23   ar
    93    81    82    1
    94    25    23   ar
    95    90    89    1
    96    82    85    1
    97   157   156    2
    98    74    73    1
    99   159   158    1
   100   159   160    1
   101   156   155    1
   102   158   155    1
   103   155   154    1
   104    76    73    1
   105    76    77    1
   106    85    86    1
   107    73    72    1
   108    86    87    1
   109   146   145    2
   110    79    78    2
   111    63    62    2
   112    77    78    1
   113    72    62   am
   114   154   145   am
   115   142   141    1
   116   141   140    1
   117   145   144    1
   118    62    61    1
   119    78    80   am
   120    88    87    1
   121    60    61    1
   122   140   139    1
   123    61    64    1
   124   144   147    1
   125   144   143    1
   126   147   148    1
   127   137   136    2
   128   139   138    1
   129    15    14    1
   130     8     7   ar
   131   136   135    1
   132    64    65    1
   133   148   149    1
   134     9     7   ar
   135   149   150    1
   136   138   135    1
   137     7     6    1
   138    65    67   ar
   139    65    66   ar
   140   135   134    1
   141    14    11    1
   142    67    69   ar
   143    66    68   ar
   144   150   151    2
   145    69    70   ar
   146    68    70   ar
   147   152   151    1
   148    70    71    1
   149    11    12    1
   150    11    10    1
   151   151   153    1
   152     6     5    1
   153     5     2    1
   154    12    13    2
   155     4     3    2
   156     2     3    1
   157     2     1    1
