@<TRIPOS>MOLECULE
tmp/4o6lA00.pdb
 219 207 0 0 0
SMALL
GASTEIGER

@<TRIPOS>ATOM
      1  N         64.6310   -7.0150   14.1940 N.3    15  LYS15      -0.1245
      2  CA        65.8680   -7.2040   13.4520 C.3    15  LYS15       0.1561
      3  C         67.0540   -7.4230   14.3790 C.2    15  LYS15       0.2260
      4  O         67.0020   -7.0960   15.5680 O.2    15  LYS15      -0.2867
      5  CB        66.1380   -6.0330   12.5100 C.3    15  LYS15       0.0271
      6  CG        66.1250   -4.6890   13.1740 C.3    15  LYS15       0.0035
      7  CD        67.1680   -3.7730   12.5520 C.3    15  LYS15       0.0206
      8  CE        67.6130   -4.2740   11.1820 C.3    15  LYS15       0.1093
      9  NZ        68.6880   -3.4170   10.6000 N.3    15  LYS15      -0.1314
     10  N         70.4860   -6.2220   15.5560 N.3    17  ILE17      -0.1231
     11  CA        71.2680   -4.9880   15.5350 C.3    17  ILE17       0.1692
     12  C         72.7490   -5.1100   15.8830 C.2    17  ILE17       0.2592
     13  O         73.5000   -4.1480   15.7650 O.2    17  ILE17      -0.2718
     14  CB        70.6020   -3.9050   16.3870 C.3    17  ILE17       0.0266
     15  CG1       70.4270   -4.3820   17.8270 C.3    17  ILE17       0.0019
     16  CG2       69.2440   -3.5480   15.7800 C.3    17  ILE17       0.0020
     17  CD1       69.7870   -3.3270   18.7390 C.3    17  ILE17       0.0001
     18  N         73.1760   -6.2880   16.3060 N.am   18  GLY18      -0.1957
     19  CA        74.5930   -6.5310   16.4820 C.3    18  GLY18       0.1869
     20  C         74.8750   -7.9790   16.7940 C.2    18  GLY18       0.2309
     21  O         74.0320   -8.6720   17.3660 O.2    18  GLY18      -0.2863
     22  N         72.5630   -9.3370   19.4890 N.3    25  VAL25      -0.1245
     23  CA        71.6270   -8.3410   20.0190 C.3    25  VAL25       0.1561
     24  C         70.4740   -8.1120   19.0350 C.2    25  VAL25       0.2260
     25  O         70.7200   -7.8940   17.8510 O.2    25  VAL25      -0.2867
     26  CB        72.3350   -6.9820   20.2330 C.3    25  VAL25       0.0252
     27  CG1       71.4700   -6.0380   21.0490 C.3    25  VAL25       0.0019
     28  CG2       73.6600   -7.1830   20.9230 C.3    25  VAL25       0.0019
     29  N         66.4460   -6.1180   18.2550 N.3    27  GLN27      -0.1245
     30  CA        65.3030   -5.2860   18.6370 C.3    27  GLN27       0.1566
     31  C         64.1210   -6.2280   18.6370 C.2    27  GLN27       0.2260
     32  O         63.9440   -6.9650   17.6740 O.2    27  GLN27      -0.2867
     33  CB        65.0320   -4.1690   17.6160 C.3    27  GLN27       0.0367
     34  CG        66.1530   -3.1690   17.4440 C.3    27  GLN27       0.0905
     35  CD        65.7600   -1.9730   16.5730 C.2    27  GLN27       0.2608
     36  OE1       64.7260   -1.9850   15.8930 O.2    27  GLN27      -0.2717
     37  NE2       66.5900   -0.9280   16.6040 N.am   27  GLN27      -0.0878
     38  N         65.3990   -4.2620   23.5830 N.3    37  ALA37      -0.1245
     39  CA        66.5880   -4.8940   23.0390 C.3    37  ALA37       0.1562
     40  C         66.7370   -6.2260   23.7620 C.2    37  ALA37       0.2260
     41  O         66.4740   -6.3200   24.9610 O.2    37  ALA37      -0.2867
     42  CB        67.7980   -4.0370   23.2600 C.3    37  ALA37       0.0290
     43  N         69.6800   -9.0800   24.3440 N.3    39  LYS39      -0.1245
     44  CA        71.0620   -9.4900   24.1810 C.3    39  LYS39       0.1561
     45  C         71.1220  -10.9930   24.4710 C.2    39  LYS39       0.2260
     46  O         70.7070  -11.4440   25.5460 O.2    39  LYS39      -0.2867
     47  CB        71.9340   -8.6930   25.1600 C.3    39  LYS39       0.0271
     48  CG        73.4300   -8.7730   24.9490 C.3    39  LYS39       0.0035
     49  CD        74.1090   -7.7740   25.8940 C.3    39  LYS39       0.0206
     50  CE        75.5480   -7.4790   25.5180 C.3    39  LYS39       0.1093
     51  NZ        75.9020   -6.0900   25.9270 N.3    39  LYS39      -0.1314
     52  N         80.5780  -12.5440   32.0050 N.3    54  TYR54      -0.1241
     53  CA        79.1660  -12.2940   31.7520 C.3    54  TYR54       0.1605
     54  C         78.2920  -12.3260   33.0160 C.2    54  TYR54       0.2264
     55  O         77.2660  -11.6450   33.0800 O.2    54  TYR54      -0.2867
     56  CB        78.6300  -13.2140   30.6460 C.3    54  TYR54       0.0534
     57  CG        78.6690  -12.5630   29.2760 C.ar   54  TYR54      -0.0201
     58  CD1       77.7060  -11.6270   28.9090 C.ar   54  TYR54      -0.0009
     59  CD2       79.6720  -12.8660   28.3540 C.ar   54  TYR54      -0.0009
     60  CE1       77.7300  -11.0130   27.6640 C.ar   54  TYR54       0.0417
     61  CE2       79.7050  -12.2540   27.0990 C.ar   54  TYR54       0.0417
     62  CZ        78.7300  -11.3300   26.7630 C.ar   54  TYR54       0.1957
     63  OH        78.7480  -10.7110   25.5300 O.3    54  TYR54      -0.2866
     64  N         71.6740    2.0620   31.2010 N.3    72  ILE72      -0.1245
     65  CA        70.6160    1.3380   30.4980 C.3    72  ILE72       0.1561
     66  C         69.8730    0.3620   31.4380 C.2    72  ILE72       0.2260
     67  O         70.4740   -0.1730   32.3750 O.2    72  ILE72      -0.2867
     68  CB        71.2330    0.5490   29.3320 C.3    72  ILE72       0.0252
     69  CG1       70.1590    0.0940   28.3520 C.3    72  ILE72       0.0019
     70  CG2       72.0700   -0.6480   29.8520 C.3    72  ILE72       0.0019
     71  CD1       70.7340   -0.4680   27.0740 C.3    72  ILE72       0.0001
     72  N         66.5600   -5.6510   27.6950 N.3    88  MET88      -0.1230
     73  CA        66.9710   -4.3000   28.0280 C.3    88  MET88       0.1702
     74  C         66.1670   -3.2700   27.2560 C.2    88  MET88       0.2592
     75  O         65.6590   -3.5650   26.1760 O.2    88  MET88      -0.2718
     76  CB        68.4480   -4.1400   27.7010 C.3    88  MET88       0.0401
     77  CG        69.3060   -5.2500   28.2870 C.3    88  MET88       0.0596
     78  SD        70.9710   -5.1820   27.6210 S.3    88  MET88      -0.1393
     79  CE        71.6800   -3.8580   28.6130 C.3    88  MET88       0.0692
     80  N         66.0690   -2.0660   27.8080 N.am   89  GLU89      -0.1966
     81  CA        65.4510   -0.9430   27.1230 C.3    89  GLU89       0.1733
     82  C         66.0810   -0.7780   25.7360 C.2    89  GLU89       0.2616
     83  O         67.2730   -1.0660   25.5280 O.2    89  GLU89      -0.2715
     84  CB        65.5330    0.3590   27.9690 C.3    89  GLU89       0.0429
     85  CG        66.6660    1.3490   27.6600 C.3    89  GLU89       0.1163
     86  CD        66.7770    2.4750   28.7240 C.2    89  GLU89       0.3649
     87  OE1       66.0260    3.4850   28.6480 O.co2  89  GLU89      -0.2457
     88  OE2       67.6230    2.3470   29.6450 O.co2  89  GLU89      -0.2457
     89  N         65.2530   -0.3950   24.7740 N.am   90  CYS90      -0.1954
     90  CA        65.7310   -0.2330   23.4130 C.3    90  CYS90       0.1843
     91  C         65.9650    1.2310   23.1530 C.2    90  CYS90       0.2626
     92  O         65.1180    2.0700   23.4820 O.2    90  CYS90      -0.2714
     93  CB        64.7160   -0.7580   22.4040 C.3    90  CYS90       0.0997
     94  SG        65.3920   -0.8660   20.7250 S.3    90  CYS90      -0.0797
     95  N         67.1130    1.5370   22.5660 N.am   91  GLY91      -0.1940
     96  CA        67.4200    2.9120   22.2300 C.3    91  GLY91       0.2014
     97  C         67.2030    3.1690   20.7540 C.2    91  GLY91       0.2639
     98  O         66.9290    2.2470   19.9790 O.2    91  GLY91      -0.2714
     99  N         67.3260    4.4280   20.3670 N.am   92  ASN92      -0.1958
    100  CA        67.1450    4.8260   18.9800 C.3    92  ASN92       0.1819
    101  C         68.3810    4.5250   18.1260 C.2    92  ASN92       0.2621
    102  O         68.2810    3.9910   17.0300 O.2    92  ASN92      -0.2715
    103  CB        66.7850    6.3220   18.9220 C.3    92  ASN92       0.1195
    104  CG        65.6760    6.6980   19.9190 C.2    92  ASN92       0.2630
    105  OD1       64.9440    5.8320   20.4270 O.2    92  ASN92      -0.2716
    106  ND2       65.5440    7.9880   20.1910 N.am   92  ASN92      -0.0877
    107  N         69.5440    4.9130   18.6230 N.am   93  ILE93      -0.1963
    108  CA        70.8030    4.6750   17.9310 C.3    93  ILE93       0.1727
    109  C         71.9490    4.8030   18.9580 C.2    93  ILE93       0.2616
    110  O         71.8060    5.5140   19.9650 O.2    93  ILE93      -0.2715
    111  CB        70.9860    5.7020   16.7760 C.3    93  ILE93       0.0290
    112  CG1       72.2520    5.4250   15.9610 C.3    93  ILE93       0.0022
    113  CG2       70.9810    7.1550   17.3080 C.3    93  ILE93       0.0023
    114  CD1       72.4480    6.4170   14.8330 C.3    93  ILE93       0.0001
    115  N         73.0840    4.1470   18.7100 N.am   94  ASP94      -0.1971
    116  CA        74.2430    4.3030   19.6010 C.3    94  ASP94       0.1709
    117  C         74.9310    5.6100   19.2280 C.2    94  ASP94       0.2293
    118  O         74.7520    6.0900   18.1010 O.2    94  ASP94      -0.2864
    119  CB        75.2330    3.1520   19.4550 C.3    94  ASP94       0.1436
    120  CG        75.7810    3.0620   18.0560 C.2    94  ASP94       0.3671
    121  OD1       74.9560    2.9790   17.1140 O.co2  94  ASP94      -0.2456
    122  OD2       77.0190    3.1100   17.8880 O.co2  94  ASP94      -0.2456
    123  N         77.3370    5.5690   15.9210 N.3    97  SER97      -0.1217
    124  CA        76.6890    5.6110   14.6110 C.3    97  SER97       0.1889
    125  C         76.1350    7.0060   14.3140 C.2    97  SER97       0.2288
    126  O         76.1240    7.4480   13.1640 O.2    97  SER97      -0.2866
    127  CB        75.5660    4.5700   14.5030 C.3    97  SER97       0.2089
    128  OG        76.0500    3.2590   14.7350 O.3    97  SER97      -0.2183
    129  N         80.5780    3.9990   21.1400 N.3   137  ALA137     -0.1231
    130  CA        79.6660    2.8620   20.9570 C.3   137  ALA137      0.1694
    131  C         79.1490    2.2970   22.2860 C.2   137  ALA137      0.2592
    132  O         78.2390    1.4590   22.3060 O.2   137  ALA137     -0.2718
    133  CB        80.3320    1.7570   20.1290 C.3   137  ALA137      0.0304
    134  N         79.7340    2.7520   23.3910 N.am  138  ASN138     -0.1974
    135  CA        79.2910    2.3050   24.7030 C.3   138  ASN138      0.1688
    136  C         78.1150    3.1280   25.1810 C.2   138  ASN138      0.2292
    137  O         77.5420    2.8790   26.2490 O.2   138  ASN138     -0.2864
    138  CB        80.4420    2.3700   25.7020 C.3   138  ASN138      0.1181
    139  CG        81.6000    1.5030   25.2800 C.2   138  ASN138      0.2629
    140  OD1       82.6080    1.9990   24.7460 O.2   138  ASN138     -0.2716
    141  ND2       81.4650    0.1880   25.5000 N.am  138  ASN138     -0.0877
    142  N         74.3210    4.9630   24.3200 N.3   140  LEU140     -0.1245
    143  CA        73.0800    4.7780   23.6070 C.3   140  LEU140      0.1561
    144  C         72.2270    6.0350   23.7700 C.2   140  LEU140      0.2260
    145  O         72.0880    6.5590   24.8860 O.2   140  LEU140     -0.2867
    146  CB        72.3490    3.5790   24.2210 C.3   140  LEU140      0.0270
    147  CG        71.1050    3.0510   23.5190 C.3   140  LEU140      0.0019
    148  CD1       71.4720    2.7770   22.0770 C.3   140  LEU140      0.0001
    149  CD2       70.6130    1.7730   24.2020 C.3   140  LEU140      0.0001
    150  N         75.8690    1.6420   28.1080 N.3   149  ILE149     -0.1231
    151  CA        75.4020    0.2770   27.8090 C.3   149  ILE149      0.1692
    152  C         76.0950   -0.8120   28.6450 C.2   149  ILE149      0.2592
    153  O         75.4350   -1.5760   29.3460 O.2   149  ILE149     -0.2718
    154  CB        75.5360   -0.0700   26.3280 C.3   149  ILE149      0.0266
    155  CG1       74.7560    0.9360   25.4700 C.3   149  ILE149      0.0019
    156  CG2       75.0440   -1.4950   26.0610 C.3   149  ILE149      0.0020
    157  CD1       75.4800    1.2810   24.1570 C.3   149  ILE149      0.0001
    158  N         77.4190   -0.9110   28.5300 N.am  150  ASP150     -0.1974
    159  CA        78.1810   -1.9480   29.2310 C.3   150  ASP150      0.1709
    160  C         79.1300   -1.3810   30.2960 C.2   150  ASP150      0.2293
    161  O         79.2610   -0.1590   30.4560 O.2   150  ASP150     -0.2864
    162  CB        79.0160   -2.7340   28.2280 C.3   150  ASP150      0.1436
    163  CG        80.2050   -1.9310   27.6890 C.2   150  ASP150      0.3671
    164  OD1       80.1500   -0.6570   27.6490 O.co2 150  ASP150     -0.2456
    165  OD2       81.1980   -2.5840   27.2870 O.co2 150  ASP150     -0.2456
    166  N         82.3810   -7.8790   30.3600 N.3   154  ALA154     -0.1231
    167  CA        82.1730   -8.9120   29.3370 C.3   154  ALA154      0.1694
    168  C         82.7790   -8.4820   27.9990 C.2   154  ALA154      0.2592
    169  O         82.9630   -7.2860   27.7570 O.2   154  ALA154     -0.2718
    170  CB        80.6920   -9.2010   29.1720 C.3   154  ALA154      0.0304
    171  N         83.0910   -9.4400   27.1270 N.am  155  ASN155     -0.1960
    172  CA        83.6650   -9.0920   25.8260 C.3   155  ASN155      0.1819
    173  C         82.5770   -8.4490   24.9590 C.2   155  ASN155      0.2621
    174  O         81.4250   -8.3270   25.3910 O.2   155  ASN155     -0.2715
    175  CB        84.2780  -10.3230   25.1410 C.3   155  ASN155      0.1195
    176  CG        85.5350   -9.9910   24.3320 C.2   155  ASN155      0.2630
    177  OD1       86.2350   -9.0120   24.6100 O.2   155  ASN155     -0.2716
    178  ND2       85.8250  -10.8150   23.3260 N.am  155  ASN155     -0.0877
    179  N         82.9150   -8.0610   23.7350 N.am  156  GLN156     -0.1963
    180  CA        81.9800   -7.2620   22.9410 C.3   156  GLN156      0.1733
    181  C         81.4280   -8.0420   21.7360 C.2   156  GLN156      0.2616
    182  O         81.9870   -9.0730   21.3230 O.2   156  GLN156     -0.2715
    183  CB        82.6150   -5.9220   22.5050 C.3   156  GLN156      0.0408
    184  CG        81.5990   -4.8160   22.1070 C.3   156  GLN156      0.0908
    185  CD        82.2440   -3.4450   21.8550 C.2   156  GLN156      0.2608
    186  OE1       83.3960   -3.2060   22.2420 O.2   156  GLN156     -0.2717
    187  NE2       81.4940   -2.5350   21.2130 N.am  156  GLN156     -0.0878
    188  N         80.2750   -7.5920   21.2460 N.am  157  MET157     -0.1963
    189  CA        79.7680   -8.0030   19.9420 C.3   157  MET157      0.1736
    190  C         79.9550   -6.8440   18.9770 C.2   157  MET157      0.2616
    191  O         80.3950   -5.7610   19.3790 O.2   157  MET157     -0.2715
    192  CB        78.2910   -8.3390   20.0340 C.3   157  MET157      0.0427
    193  CG        78.0120   -9.6150   20.7600 C.3   157  MET157      0.0599
    194  SD        76.2420   -9.8610   20.8670 S.3   157  MET157     -0.1393
    195  CE        75.9820   -9.4640   22.5940 C.3   157  MET157      0.0692
    196  N         79.5960   -7.0430   17.7130 N.am  158  GLN158     -0.1964
    197  CA        79.7430   -5.9540   16.7570 C.3   158  GLN158      0.1718
    198  C         78.4290   -5.6460   16.0570 C.2   158  GLN158      0.2458
    199  O         77.6860   -6.5600   15.6970 O.2   158  GLN158     -0.2730
    200  CB        80.8470   -6.2530   15.7370 C.3   158  GLN158      0.0407
    201  CG        81.9700   -5.2080   15.7440 C.3   158  GLN158      0.0908
    202  CD        82.7950   -5.2080   14.4650 C.2   158  GLN158      0.2608
    203  OE1       82.6670   -6.1040   13.6270 O.2   158  GLN158     -0.2717
    204  NE2       83.6460   -4.1950   14.3100 N.am  158  GLN158     -0.0878
    205  N         78.1500   -4.3420   15.8510 N.am  159  PRO159     -0.2716
    206  CA        76.8920   -3.8730   15.2610 C.3   159  PRO159      0.1536
    207  C         76.5820   -4.5100   13.9110 C.2   159  PRO159      0.2598
    208  O         77.4770   -4.7250   13.0920 O.2   159  PRO159     -0.2715
    209  CB        77.1290   -2.3700   15.0790 C.3   159  PRO159      0.0310
    210  CG        78.6230   -2.1890   15.1930 C.3   159  PRO159      0.0237
    211  CD        79.0420   -3.2200   16.1780 C.3   159  PRO159      0.0939
    212  N         75.3100   -4.8290   13.7050 N.am  160  ASP160     -0.1972
    213  CA        74.8090   -5.1950   12.3890 C.3   160  ASP160      0.1709
    214  C         73.7530   -4.1880   11.9330 C.2   160  ASP160      0.2293
    215  O         73.0160   -3.6330   12.7520 O.2   160  ASP160     -0.2864
    216  CB        74.2140   -6.5960   12.4180 C.3   160  ASP160      0.1436
    217  CG        75.2550   -7.6570   12.6860 C.2   160  ASP160      0.3671
    218  OD1       76.3350   -7.5970   12.0530 O.co2 160  ASP160     -0.2456
    219  OD2       75.0000   -8.5420   13.5360 O.co2 160  ASP160     -0.2456
@<TRIPOS>BOND
     1     9     8    1
     2     8     7    1
     3   214   213    1
     4   214   215    2
     5   218   217   ar
     6   213   216    1
     7   213   212    1
     8   216   217    1
     9     5     6    1
    10     5     2    1
    11     7     6    1
    12   217   219   ar
    13   208   207    2
    14   126   125    2
    15     2     1    1
    16     2     3    1
    17   203   202    2
    18   212   207   am
    19   207   206    1
    20   204   202   am
    21   125   124    1
    22     3     4    2
    23   202   201    1
    24   127   124    1
    25   127   128    1
    26   124   123    1
    27   114   112    1
    28   209   210    1
    29   209   206    1
    30   210   211    1
    31   206   205    1
    32    11    10    1
    33    11    12    1
    34    11    14    1
    35   199   198    2
    36   200   201    1
    37   200   197    1
    38    13    12    2
    39    16    14    1
    40   205   198   am
    41   205   211    1
    42    12    18   am
    43    36    35    2
    44   112   111    1
    45   198   197    1
    46    18    19    1
    47    14    15    1
    48    19    20    1
    49    35    37   am
    50    35    34    1
    51   197   196    1
    52   111   113    1
    53   111   108    1
    54    20    21    2
    55   102   101    2
    56   121   120   ar
    57    34    33    1
    58    33    30    1
    59    32    31    2
    60   196   190   am
    61    15    17    1
    62    25    24    2
    63   122   120   ar
    64   108   107    1
    65   108   109    1
    66   120   119    1
    67   118   117    2
    68   101   107   am
    69   101   100    1
    70    29    30    1
    71    31    30    1
    72   115   109   am
    73   115   116    1
    74   103   100    1
    75   103   104    1
    76   109   110    2
    77   190   191    2
    78   190   189    1
    79   100    99    1
    80    24    23    1
    81   117   116    1
    82   119   116    1
    83    22    23    1
    84   104   106   am
    85   104   105    2
    86   189   192    1
    87   189   188    1
    88    98    97    2
    89    23    26    1
    90   192   193    1
    91   133   130    1
    92    26    28    1
    93    26    27    1
    94    99    97   am
    95    94    93    1
    96    97    96    1
    97   193   194    1
    98   194   195    1
    99   130   129    1
   100   130   131    1
   101   187   185   am
   102   188   181   am
   103   182   181    2
   104   181   180    1
   105   185   184    1
   106   185   186    2
   107   148   147    1
   108   184   183    1
   109    96    95    1
   110   131   132    2
   111   131   134   am
   112    93    90    1
   113   183   180    1
   114    95    91   am
   115   180   179    1
   116    39    42    1
   117    39    38    1
   118    39    40    1
   119    91    90    1
   120    91    92    2
   121   178   176   am
   122   134   135    1
   123    90    89    1
   124   147   149    1
   125   147   146    1
   126   143   144    1
   127   143   146    1
   128   143   142    1
   129   179   173   am
   130    40    41    2
   131   144   145    2
   132   157   155    1
   133    44    43    1
   134    44    45    1
   135    44    47    1
   136   176   177    2
   137   176   175    1
   138    45    46    2
   139   135   136    1
   140   135   138    1
   141   140   139    2
   142    89    82   am
   143    48    47    1
   144    48    49    1
   145   173   174    2
   146   173   172    1
   147   175   172    1
   148   136   137    2
   149   139   141   am
   150   139   138    1
   151   155   154    1
   152    50    49    1
   153    50    51    1
   154    83    82    2
   155    63    62    1
   156    82    81    1
   157   172   171    1
   158   156   154    1
   159    75    74    2
   160   154   151    1
   161    62    61   ar
   162    62    60   ar
   163    71    69    1
   164    61    59   ar
   165    81    80    1
   166    81    84    1
   167   171   168   am
   168    74    80   am
   169    74    73    1
   170   165   163   ar
   171    78    77    1
   172    78    79    1
   173   164   163   ar
   174    85    84    1
   175    85    86    1
   176    60    58   ar
   177   163   162    1
   178    72    73    1
   179    76    73    1
   180    76    77    1
   181   169   168    2
   182   151   150    1
   183   151   152    1
   184   168   167    1
   185   162   159    1
   186    69    68    1
   187    59    57   ar
   188   158   152   am
   189   158   159    1
   190   152   153    2
   191    87    86   ar
   192    86    88   ar
   193    58    57   ar
   194   170   167    1
   195   159   160    1
   196    57    56    1
   197    68    70    1
   198    68    65    1
   199   167   166    1
   200   160   161    2
   201    65    64    1
   202    65    66    1
   203    56    53    1
   204    66    67    2
   205    53    52    1
   206    53    54    1
   207    54    55    2
