@<TRIPOS>MOLECULE
tmp/4o6mB09.pdb
 142 132 0 0 0
SMALL
GASTEIGER

@<TRIPOS>ATOM
      1  N         -0.9010   38.0310   31.9960 N.3   136  LYS136     -0.1245
      2  CA        -0.5840   36.6670   31.5860 C.3   136  LYS136      0.1561
      3  C         -1.8680   35.8740   31.3770 C.2   136  LYS136      0.2260
      4  O         -2.3480   35.1930   32.2880 O.2   136  LYS136     -0.2867
      5  CB         0.2980   35.9660   32.6200 C.3   136  LYS136      0.0271
      6  CG         1.7360   36.4580   32.6670 C.3   136  LYS136      0.0035
      7  CD         2.6460   35.4410   33.3470 C.3   136  LYS136      0.0206
      8  CE         2.1590   35.0880   34.7480 C.3   136  LYS136      0.1093
      9  NZ         3.0150   34.0570   35.3930 N.3   136  LYS136     -0.1314
     10  N          3.6200   31.9840   28.1910 N.3   144  PRO144     -0.2102
     11  CA         4.4690   31.9560   29.3850 C.3   144  PRO144      0.1504
     12  C          4.5890   30.5570   29.9800 C.2   144  PRO144      0.2575
     13  O          4.0540   29.6100   29.4080 O.2   144  PRO144     -0.2718
     14  CB         3.7330   32.8930   30.3400 C.3   144  PRO144      0.0282
     15  CG         2.2900   32.6500   30.0170 C.3   144  PRO144      0.0208
     16  CD         2.2250   32.3160   28.5360 C.3   144  PRO144      0.0893
     17  N          5.2760   30.4340   31.1120 N.am  145  ALA145     -0.1980
     18  CA         5.3580   29.1590   31.8140 C.3   145  ALA145      0.1597
     19  C          3.9740   28.7390   32.3050 C.2   145  ALA145      0.2287
     20  O          3.6080   27.5680   32.2250 O.2   145  ALA145     -0.2864
     21  CB         6.3300   29.2490   32.9740 C.3   145  ALA145      0.0319
     22  N         -2.0360   33.6700   34.6750 N.3   148  ASP148     -0.1239
     23  CA        -2.4850   34.2490   35.9390 C.3   148  ASP148      0.1674
     24  C         -3.6540   33.4750   36.5240 C.2   148  ASP148      0.2266
     25  O         -4.5510   33.0540   35.7930 O.2   148  ASP148     -0.2867
     26  CB        -2.9220   35.7070   35.7560 C.3   148  ASP148      0.1410
     27  CG        -1.7710   36.6360   35.4410 C.2   148  ASP148      0.3668
     28  OD1       -0.6610   36.4350   35.9850 O.co2 148  ASP148     -0.2456
     29  OD2       -1.9930   37.5920   34.6660 O.co2 148  ASP148     -0.2456
     30  N         -3.8770   42.4100   39.0550 N.3   157  ARG157     -0.1245
     31  CA        -3.5310   43.1050   37.8040 C.3   157  ARG157      0.1563
     32  C         -4.2060   44.4740   37.6900 C.2   157  ARG157      0.2260
     33  O         -3.6810   45.3760   37.0410 O.2   157  ARG157     -0.2867
     34  CB        -3.8980   42.2720   36.5690 C.3   157  ARG157      0.0307
     35  CG        -3.0680   41.0100   36.3340 C.3   157  ARG157      0.0489
     36  CD        -1.5790   41.2840   36.0630 C.3   157  ARG157      0.2205
     37  NE        -0.8700   40.0330   35.8070 N.pl3 157  ARG157     -0.0865
     38  CZ         0.4510   39.9030   35.7150 C.cat 157  ARG157      0.5346
     39  NH1        1.2500   40.9520   35.8600 N.pl3 157  ARG157      0.1354
     40  NH2        0.9760   38.7080   35.4810 N.pl3 157  ARG157      0.1354
     41  N         12.7760   45.6360   34.4890 N.3   174  PRO174     -0.2102
     42  CA        12.1060   44.4800   35.0990 C.3   174  PRO174      0.1504
     43  C         12.8970   43.8200   36.2180 C.2   174  PRO174      0.2575
     44  O         12.3120   43.4860   37.2510 O.2   174  PRO174     -0.2718
     45  CB        11.9310   43.5190   33.9200 C.3   174  PRO174      0.0282
     46  CG        11.8780   44.4020   32.7210 C.3   174  PRO174      0.0208
     47  CD        12.8120   45.5420   33.0180 C.3   174  PRO174      0.0893
     48  N         14.2030   43.6390   36.0270 N.am  175  ASN175     -0.1975
     49  CA        15.0270   42.9960   37.0430 C.3   175  ASN175      0.1688
     50  C         15.0420   43.7920   38.3420 C.2   175  ASN175      0.2292
     51  O         15.0340   43.2140   39.4210 O.2   175  ASN175     -0.2864
     52  CB        16.4510   42.7810   36.5260 C.3   175  ASN175      0.1181
     53  CG        16.5420   41.6120   35.5430 C.2   175  ASN175      0.2629
     54  OD1       15.6050   40.8170   35.4150 O.2   175  ASN175     -0.2716
     55  ND2       17.6730   41.4980   34.8570 N.am  175  ASN175     -0.0877
     56  N         11.7630   43.0920   40.0750 N.3   178  THR178     -0.1218
     57  CA        11.8410   41.7480   40.6320 C.3   178  THR178      0.1862
     58  C         12.6040   41.7420   41.9600 C.2   178  THR178      0.2287
     59  O         12.1810   41.1160   42.9340 O.2   178  THR178     -0.2866
     60  CB        12.5280   40.7900   39.6390 C.3   178  THR178      0.1770
     61  OG1       11.7630   40.7260   38.4340 O.3   178  THR178     -0.2211
     62  CG2       12.6900   39.3920   40.2280 C.3   178  THR178      0.0375
     63  N          4.7890   42.2320   42.3690 N.3   214  ASP214     -0.1225
     64  CA         5.4650   41.1500   41.6550 C.3   214  ASP214      0.1805
     65  C          4.8860   40.9450   40.2500 C.2   214  ASP214      0.2598
     66  O          5.4890   40.2770   39.4260 O.2   214  ASP214     -0.2718
     67  CB         5.4080   39.8440   42.4480 C.3   214  ASP214      0.1424
     68  CG         6.3070   38.7620   41.8560 C.2   214  ASP214      0.3668
     69  OD1        7.5410   38.9480   41.8540 O.co2 214  ASP214     -0.2456
     70  OD2        5.7790   37.7100   41.4190 O.co2 214  ASP214     -0.2456
     71  N          3.7060   41.4870   39.9760 N.am  215  GLY215     -0.1957
     72  CA         3.2020   41.4860   38.6150 C.3   215  GLY215      0.1869
     73  C          3.7710   42.6040   37.7460 C.2   215  GLY215      0.2309
     74  O          3.6820   42.5440   36.5210 O.2   215  GLY215     -0.2863
     75  N          6.9440   43.5390   37.2620 N.3   217  ASP217     -0.1225
     76  CA         8.1860   43.2390   36.5650 C.3   217  ASP217      0.1805
     77  C          7.8770   42.6130   35.2100 C.2   217  ASP217      0.2598
     78  O          8.4500   43.0070   34.1930 O.2   217  ASP217     -0.2718
     79  CB         9.1020   42.3410   37.4230 C.3   217  ASP217      0.1424
     80  CG         8.3940   41.1230   37.9920 C.2   217  ASP217      0.3668
     81  OD1        7.1400   41.0850   38.0080 O.co2 217  ASP217     -0.2456
     82  OD2        9.1060   40.2140   38.4700 O.co2 217  ASP217     -0.2456
     83  N          6.9200   41.6940   35.1750 N.am  218  GLY218     -0.1957
     84  CA         6.5350   41.0780   33.9240 C.3   218  GLY218      0.1869
     85  C          5.8140   42.0560   33.0120 C.2   218  GLY218      0.2309
     86  O          6.0360   42.0720   31.7960 O.2   218  GLY218     -0.2863
     87  N          8.2990   44.3480   31.4970 N.3   221  ALA221     -0.1231
     88  CA         9.1010   43.5710   30.5550 C.3   221  ALA221      0.1694
     89  C          8.4040   43.4780   29.2050 C.2   221  ALA221      0.2591
     90  O          9.0080   43.7240   28.1590 O.2   221  ALA221     -0.2718
     91  CB         9.3670   42.1790   31.1060 C.3   221  ALA221      0.0304
     92  N          7.1210   43.1400   29.2350 N.am  222  ARG222     -0.1980
     93  CA         6.3490   42.9880   28.0090 C.3   222  ARG222      0.1597
     94  C          6.0510   44.3560   27.3980 C.2   222  ARG222      0.2287
     95  O          6.0700   44.5150   26.1770 O.2   222  ARG222     -0.2864
     96  CB         5.0650   42.1960   28.2880 C.3   222  ARG222      0.0334
     97  CG         5.3570   40.7450   28.7040 C.3   222  ARG222      0.0492
     98  CD         4.1050   39.9100   28.9760 C.3   222  ARG222      0.2205
     99  NE         3.4580   40.2450   30.2430 N.pl3 222  ARG222     -0.0865
    100  CZ         3.7940   39.7340   31.4260 C.cat 222  ARG222      0.5346
    101  NH1        4.7810   38.8520   31.5290 N.pl3 222  ARG222      0.1354
    102  NH2        3.1370   40.1050   32.5150 N.pl3 222  ARG222      0.1354
    103  N         11.4800   44.2920   27.1530 N.3   226  MET226     -0.1230
    104  CA        12.6800   44.0630   27.9390 C.3   226  MET226      0.1702
    105  C         12.6320   42.6860   28.5870 C.2   226  MET226      0.2592
    106  O         13.2610   42.4700   29.6120 O.2   226  MET226     -0.2718
    107  CB        12.8320   45.1550   29.0010 C.3   226  MET226      0.0401
    108  CG        13.0280   46.5530   28.4270 C.3   226  MET226      0.0596
    109  SD        13.1670   47.8410   29.6880 S.3   226  MET226     -0.1393
    110  CE        14.7610   47.4600   30.4060 C.3   226  MET226      0.0692
    111  N         11.8790   41.7570   27.9980 N.am  227  GLU227     -0.1966
    112  CA        11.8540   40.3880   28.5080 C.3   227  GLU227      0.1733
    113  C         13.2280   39.7530   28.3290 C.2   227  GLU227      0.2617
    114  O         13.9250   40.0310   27.3560 O.2   227  GLU227     -0.2715
    115  CB        10.8050   39.5260   27.8040 C.3   227  GLU227      0.0429
    116  CG         9.4300   40.1420   27.6980 C.3   227  GLU227      0.1163
    117  CD         9.1630   40.6920   26.3120 C.2   227  GLU227      0.3649
    118  OE1       10.0860   41.3100   25.7260 O.co2 227  GLU227     -0.2457
    119  OE2        8.0390   40.4780   25.8040 O.co2 227  GLU227     -0.2457
    120  N         13.6150   38.8980   29.2650 N.am  228  SER228     -0.1950
    121  CA        14.8650   38.1550   29.1300 C.3   228  SER228      0.1924
    122  C         14.7240   36.7850   29.7560 C.2   228  SER228      0.2314
    123  O         13.8790   36.5730   30.6190 O.2   228  SER228     -0.2863
    124  CB        16.0310   38.9200   29.7720 C.3   228  SER228      0.2116
    125  OG        15.9230   38.9680   31.1870 O.3   228  SER228     -0.2180
    126  N         15.6880   37.1350   33.3820 N.3   231  GLY231     -0.1210
    127  CA        14.6110   37.7860   34.1060 C.3   231  GLY231      0.1956
    128  C         13.4990   36.8180   34.4890 C.2   231  GLY231      0.2611
    129  O         13.0070   36.8460   35.6120 O.2   231  GLY231     -0.2717
    130  N         13.1130   35.9440   33.5650 N.am  232  ALA232     -0.1979
    131  CA        12.0800   34.9460   33.8470 C.3   232  ALA232      0.1597
    132  C         12.5600   33.9320   34.8820 C.2   232  ALA232      0.2287
    133  O         11.8100   33.5300   35.7790 O.2   232  ALA232     -0.2864
    134  CB        11.6620   34.2360   32.5610 C.3   232  ALA232      0.0319
    135  N         12.8850   35.7510   38.4190 N.3   235  ASP235     -0.1239
    136  CA        11.5820   36.0550   39.0010 C.3   235  ASP235      0.1674
    137  C         11.0020   34.8010   39.6640 C.2   235  ASP235      0.2266
    138  O         10.5330   34.8500   40.8010 O.2   235  ASP235     -0.2867
    139  CB        10.6590   36.6070   37.9170 C.3   235  ASP235      0.1410
    140  CG         9.3460   37.1490   38.4690 C.2   235  ASP235      0.3668
    141  OD1        9.2940   37.5610   39.6500 O.co2 235  ASP235     -0.2456
    142  OD2        8.3730   37.1850   37.6960 O.co2 235  ASP235     -0.2456
@<TRIPOS>BOND
     1   118   117   ar
     2   119   117   ar
     3    95    94    2
     4   117   116    1
     5   103   104    1
     6   114   113    2
     7    94    93    1
     8   116   115    1
     9   115   112    1
    10   104   105    1
    11   104   107    1
    12   111   112    1
    13   111   105   am
    14    93    96    1
    15    93    92    1
    16    90    89    2
    17    10    16    1
    18    10    11    1
    19    96    97    1
    20   113   112    1
    21   113   120   am
    22   108   107    1
    23   108   109    1
    24    16    15    1
    25   105   106    2
    26    97    98    1
    27    98    99    1
    28   121   120    1
    29   121   122    1
    30   121   124    1
    31    89    92   am
    32    89    88    1
    33    11    12    1
    34    11    14    1
    35    13    12    2
    36   109   110    1
    37   122   123    2
    38   124   125    1
    39    12    17   am
    40    15    14    1
    41    99   100    2
    42    88    91    1
    43    88    87    1
    44    17    18    1
    45     3     2    1
    46     3     4    2
    47   100   101    1
    48   100   102    1
    49     2     1    1
    50     2     5    1
    51    86    85    2
    52    18    19    1
    53    18    21    1
    54    20    19    2
    55   134   131    1
    56     5     6    1
    57     6     7    1
    58    46    47    1
    59    46    45    1
    60    85    84    1
    61    47    41    1
    62     7     8    1
    63   126   127    1
    64   130   131    1
    65   130   128   am
    66   131   132    1
    67    45    42    1
    68    84    83    1
    69   127   128    1
    70    78    77    2
    71    41    42    1
    72   128   129    2
    73    29    27   ar
    74    22    23    1
    75     8     9    1
    76    55    53   am
    77   132   133    2
    78    42    43    1
    79    83    77   am
    80    77    76    1
    81    54    53    2
    82    27    26    1
    83    27    28   ar
    84    40    38    1
    85    53    52    1
    86    38    37    2
    87    38    39    1
    88    26    23    1
    89    25    24    2
    90    37    36    1
    91    23    24    1
    92    48    43   am
    93    48    49    1
    94    36    35    1
    95    43    44    2
    96    35    34    1
    97    74    73    2
    98    52    49    1
    99    76    75    1
   100    76    79    1
   101    34    31    1
   102    33    32    2
   103    49    50    1
   104    79    80    1
   105    32    31    1
   106   142   140   ar
   107    73    72    1
   108    31    30    1
   109   139   140    1
   110   139   136    1
   111    80    81   ar
   112    80    82   ar
   113    50    51    2
   114   135   136    1
   115    61    60    1
   116   140   141   ar
   117    72    71    1
   118   136   137    1
   119    66    65    2
   120    60    62    1
   121    60    57    1
   122   137   138    2
   123    71    65   am
   124    56    57    1
   125    65    64    1
   126    57    58    1
   127    70    68   ar
   128    64    63    1
   129    64    67    1
   130    69    68   ar
   131    68    67    1
   132    58    59    2
