@<TRIPOS>MOLECULE
tmp/4o6nA00.pdb
 149 140 0 0 0
SMALL
GASTEIGER

@<TRIPOS>ATOM
      1  N         24.4750   14.7600   31.6380 N.3   136  TYR136     -0.1227
      2  CA        24.4710   15.7580   32.7010 C.3   136  TYR136      0.1736
      3  C         24.6590   15.1110   34.0710 C.2   136  TYR136      0.2595
      4  O         24.3670   15.7230   35.0980 O.2   136  TYR136     -0.2718
      5  CB        23.1680   16.5590   32.6750 C.3   136  TYR136      0.0548
      6  CG        21.8860   15.8330   32.9930 C.ar  136  TYR136     -0.0200
      7  CD1       21.5540   15.4790   34.2880 C.ar  136  TYR136     -0.0009
      8  CD2       20.9710   15.5190   31.9900 C.ar  136  TYR136     -0.0009
      9  CE1       20.3750   14.8270   34.5930 C.ar  136  TYR136      0.0417
     10  CE2       19.7860   14.8680   32.2770 C.ar  136  TYR136      0.0417
     11  CZ        19.4930   14.5290   33.5780 C.ar  136  TYR136      0.1957
     12  OH        18.3120   13.8820   33.8760 O.3   136  TYR136     -0.2866
     13  N         25.1360   13.8700   34.0770 N.am  137  ASP137     -0.1974
     14  CA        25.3860   13.1470   35.3200 C.3   137  ASP137      0.1709
     15  C         26.5180   13.7870   36.1120 C.2   137  ASP137      0.2293
     16  O         27.5090   14.2410   35.5390 O.2   137  ASP137     -0.2864
     17  CB        25.7310   11.6810   35.0350 C.3   137  ASP137      0.1436
     18  CG        24.5270   10.8640   34.6020 C.2   137  ASP137      0.3671
     19  OD1       23.3850   11.2580   34.9180 O.co2 137  ASP137     -0.2456
     20  OD2       24.7280    9.8170   33.9500 O.co2 137  ASP137     -0.2456
     21  N         26.3650    4.6050   38.1170 N.3   146  ARG146     -0.1245
     22  CA        26.0620    4.0350   36.8060 C.3   146  ARG146      0.1563
     23  C         26.6670    2.6440   36.6600 C.2   146  ARG146      0.2260
     24  O         26.1120    1.7870   35.9740 O.2   146  ARG146     -0.2867
     25  CB        26.5760    4.9320   35.6780 C.3   146  ARG146      0.0307
     26  CG        25.7890    6.2150   35.4400 C.3   146  ARG146      0.0489
     27  CD        24.3090    5.9650   35.2130 C.3   146  ARG146      0.2205
     28  NE        23.6210    7.1840   34.7970 N.pl3 146  ARG146     -0.0865
     29  CZ        22.3160    7.2660   34.5600 C.cat 146  ARG146      0.5346
     30  NH1       21.5430    6.1960   34.6910 N.pl3 146  ARG146      0.1354
     31  NH2       21.7850    8.4220   34.1870 N.pl3 146  ARG146      0.1354
     32  N          9.9020    1.6820   32.4700 N.3   163  PRO163     -0.2102
     33  CA        10.5900    2.7690   33.1770 C.3   163  PRO163      0.1504
     34  C          9.7620    3.3600   34.3150 C.2   163  PRO163      0.2575
     35  O         10.2990    3.6220   35.3920 O.2   163  PRO163     -0.2718
     36  CB        10.8200    3.8100   32.0790 C.3   163  PRO163      0.0282
     37  CG        10.8740    3.0270   30.8250 C.3   163  PRO163      0.0208
     38  CD         9.9250    1.8800   31.0090 C.3   163  PRO163      0.0893
     39  N          8.4710    3.5710   34.0730 N.am  164  ASN164     -0.1975
     40  CA         7.5940    4.1600   35.0800 C.3   164  ASN164      0.1688
     41  C          7.5110    3.2960   36.3300 C.2   164  ASN164      0.2292
     42  O          7.4690    3.8090   37.4460 O.2   164  ASN164     -0.2864
     43  CB         6.1940    4.3750   34.5050 C.3   164  ASN164      0.1181
     44  CG         6.1480    5.4970   33.4860 C.2   164  ASN164      0.2629
     45  OD1        7.1390    6.1930   33.2640 O.2   164  ASN164     -0.2716
     46  ND2        4.9940    5.6750   32.8560 N.am  164  ASN164     -0.0877
     47  N         10.6140    3.8800   38.2840 N.3   167  THR167     -0.1218
     48  CA        10.5450    5.1980   38.9050 C.3   167  THR167      0.1862
     49  C          9.7130    5.1610   40.1850 C.2   167  THR167      0.2287
     50  O         10.1250    5.6900   41.2170 O.2   167  THR167     -0.2866
     51  CB         9.9410    6.2370   37.9390 C.3   167  THR167      0.1770
     52  OG1       10.7220    6.2900   36.7400 O.3   167  THR167     -0.2211
     53  CG2        9.8990    7.6220   38.5760 C.3   167  THR167      0.0375
     54  N         17.5290    4.7630   40.8920 N.3   203  ASP203     -0.1225
     55  CA        16.8980    5.9180   40.2600 C.3   203  ASP203      0.1805
     56  C         17.5520    6.2550   38.9150 C.2   203  ASP203      0.2598
     57  O         17.0940    7.1450   38.2010 O.2   203  ASP203     -0.2718
     58  CB        16.9510    7.1340   41.1910 C.3   203  ASP203      0.1424
     59  CG        16.1030    8.2930   40.6900 C.2   203  ASP203      0.3668
     60  OD1       14.8740    8.2790   40.9190 O.co2 203  ASP203     -0.2456
     61  OD2       16.6670    9.2200   40.0680 O.co2 203  ASP203     -0.2456
     62  N         18.6250    5.5470   38.5760 N.am  204  GLY204     -0.1957
     63  CA        19.2480    5.6750   37.2690 C.3   204  GLY204      0.1869
     64  C         18.7340    4.6470   36.2750 C.2   204  GLY204      0.2309
     65  O         18.8740    4.8190   35.0630 O.2   204  GLY204     -0.2863
     66  N         15.6100    3.6580   35.5910 N.3   206  ASP206     -0.1225
     67  CA        14.4160    4.0290   34.8430 C.3   206  ASP206      0.1805
     68  C         14.8010    4.7350   33.5460 C.2   206  ASP206      0.2598
     69  O         14.2150    4.4770   32.4940 O.2   206  ASP206     -0.2718
     70  CB        13.4910    4.9160   35.6840 C.3   206  ASP206      0.1424
     71  CG        14.2070    6.1030   36.2990 C.2   206  ASP206      0.3668
     72  OD1       15.4240    6.2620   36.0690 O.co2 206  ASP206     -0.2456
     73  OD2       13.5440    6.8840   37.0120 O.co2 206  ASP206     -0.2456
     74  N         15.7930    5.6170   33.6220 N.am  207  GLY207     -0.1957
     75  CA        16.2800    6.3160   32.4470 C.3   207  GLY207      0.1869
     76  C         17.0490    5.3990   31.5150 C.2   207  GLY207      0.2309
     77  O         16.9530    5.5150   30.2920 O.2   207  GLY207     -0.2863
     78  N         14.5850    3.0810   29.7960 N.3   210  ALA210     -0.1231
     79  CA        13.7910    3.8810   28.8730 C.3   210  ALA210      0.1694
     80  C         14.5330    4.0650   27.5540 C.2   210  ALA210      0.2591
     81  O         13.9750    3.8450   26.4770 O.2   210  ALA210     -0.2718
     82  CB        13.4600    5.2290   29.4880 C.3   210  ALA210      0.0304
     83  N         15.7990    4.4590   27.6490 N.am  211  ARG211     -0.1980
     84  CA        16.6270    4.6720   26.4700 C.3   211  ARG211      0.1597
     85  C         17.0080    3.3440   25.8190 C.2   211  ARG211      0.2287
     86  O         17.0800    3.2420   24.5970 O.2   211  ARG211     -0.2864
     87  CB        17.8870    5.4620   26.8410 C.3   211  ARG211      0.0334
     88  CG        17.6130    6.9200   27.1900 C.3   211  ARG211      0.0492
     89  CD        18.8890    7.6840   27.5260 C.3   211  ARG211      0.2205
     90  NE        19.4980    7.2430   28.7800 N.pl3 211  ARG211     -0.0865
     91  CZ        19.1590    7.6940   29.9850 C.cat 211  ARG211      0.5346
     92  NH1       18.2010    8.6010   30.1240 N.pl3 211  ARG211      0.1354
     93  NH2       19.7790    7.2300   31.0620 N.pl3 211  ARG211      0.1354
     94  N         11.6180    3.3700   25.2630 N.3   215  MET215     -0.1230
     95  CA        10.3790    3.6090   25.9980 C.3   215  MET215      0.1702
     96  C         10.4110    4.9420   26.7480 C.2   215  MET215      0.2592
     97  O          9.8110    5.0770   27.8140 O.2   215  MET215     -0.2718
     98  CB        10.1150    2.4570   26.9730 C.3   215  MET215      0.0401
     99  CG         9.7140    1.1610   26.2860 C.3   215  MET215      0.0596
    100  SD         9.1000   -0.0870   27.4360 S.3   215  MET215     -0.1393
    101  CE        10.6160   -0.6280   28.2090 C.3   215  MET215      0.0692
    102  N         11.1070    5.9270   26.1870 N.am  216  GLU216     -0.1966
    103  CA        11.1220    7.2630   26.7740 C.3   216  GLU216      0.1733
    104  C          9.7520    7.9090   26.6160 C.2   216  GLU216      0.2617
    105  O          9.0540    7.6610   25.6340 O.2   216  GLU216     -0.2715
    106  CB        12.1800    8.1520   26.1170 C.3   216  GLU216      0.0429
    107  CG        13.5870    7.5920   26.1330 C.3   216  GLU216      0.1163
    108  CD        14.0000    7.0640   24.7720 C.2   216  GLU216      0.3649
    109  OE1       13.2260    6.2800   24.1830 O.co2 216  GLU216     -0.2457
    110  OE2       15.0850    7.4450   24.2830 O.co2 216  GLU216     -0.2457
    111  N          9.3700    8.7340   27.5840 N.am  217  SER217     -0.1950
    112  CA         8.0950    9.4380   27.5290 C.3   217  SER217      0.1924
    113  C          8.1950   10.7560   28.2850 C.2   217  SER217      0.2314
    114  O          9.0100   10.8940   29.1980 O.2   217  SER217     -0.2863
    115  CB         6.9720    8.5730   28.1050 C.3   217  SER217      0.2116
    116  OG         7.0490    8.5000   29.5180 O.3   217  SER217     -0.2180
    117  N          7.0190   10.2650   31.8670 N.3   220  GLY220     -0.1210
    118  CA         8.0480    9.5540   32.6000 C.3   220  GLY220      0.1956
    119  C          9.1270   10.4990   33.0890 C.2   220  GLY220      0.2611
    120  O          9.5510   10.4230   34.2420 O.2   220  GLY220     -0.2717
    121  N          9.5600   11.3990   32.2090 N.am  221  ALA221     -0.1979
    122  CA        10.5710   12.3970   32.5500 C.3   221  ALA221      0.1597
    123  C         10.0460   13.3450   33.6190 C.2   221  ALA221      0.2287
    124  O         10.7770   13.7480   34.5240 O.2   221  ALA221     -0.2864
    125  CB        10.9850   13.1770   31.3130 C.3   221  ALA221      0.0319
    126  N          7.5270   12.6540   35.8180 N.3   223  LEU223     -0.1231
    127  CA         7.3420   11.8840   37.0440 C.3   223  LEU223      0.1693
    128  C          8.6750   11.5870   37.7310 C.2   223  LEU223      0.2592
    129  O          8.7760   11.6470   38.9580 O.2   223  LEU223     -0.2718
    130  CB         6.6080   10.5770   36.7400 C.3   223  LEU223      0.0284
    131  CG         6.2200    9.7250   37.9490 C.3   223  LEU223      0.0019
    132  CD1        5.0930   10.3870   38.7260 C.3   223  LEU223      0.0001
    133  CD2        5.8240    8.3260   37.5080 C.3   223  LEU223      0.0001
    134  N          9.6830   11.2510   36.9310 N.am  224  ASP224     -0.1974
    135  CA        11.0130   10.9290   37.4410 C.3   224  ASP224      0.1709
    136  C         11.5380   12.0620   38.3180 C.2   224  ASP224      0.2293
    137  O         12.0910   11.8240   39.3930 O.2   224  ASP224     -0.2864
    138  CB        11.9740   10.6570   36.2750 C.3   224  ASP224      0.1436
    139  CG        13.2890   10.0320   36.7200 C.2   224  ASP224      0.3671
    140  OD1       13.3720    9.5270   37.8580 O.co2 224  ASP224     -0.2456
    141  OD2       14.2420   10.0330   35.9150 O.co2 224  ASP224     -0.2456
    142  N         11.2740   12.5700   42.7750 N.3   228  ASP228     -0.1239
    143  CA        12.5800   12.7900   43.3840 C.3   228  ASP228      0.1674
    144  C         12.5310   13.9920   44.3240 C.2   228  ASP228      0.2266
    145  O         13.2700   14.0500   45.3060 O.2   228  ASP228     -0.2867
    146  CB        13.6530   12.9760   42.3070 C.3   228  ASP228      0.1410
    147  CG        14.0620   11.6610   41.6600 C.2   228  ASP228      0.3668
    148  OD1       13.7200   10.5930   42.2090 O.co2 228  ASP228     -0.2456
    149  OD2       14.7160   11.6910   40.5990 O.co2 228  ASP228     -0.2456
@<TRIPOS>BOND
     1   109   108   ar
     2   110   108   ar
     3    86    85    2
     4   108   107    1
     5    94    95    1
     6   105   104    2
     7    85    84    1
     8    95    96    1
     9    95    98    1
    10   106   107    1
    11   106   103    1
    12   102    96   am
    13   102   103    1
    14    99    98    1
    15    99   100    1
    16    84    87    1
    17    84    83    1
    18    81    80    2
    19   104   103    1
    20   104   111   am
    21    96    97    2
    22    87    88    1
    23    88    89    1
    24   100   101    1
    25    89    90    1
    26   112   111    1
    27   112   115    1
    28   112   113    1
    29    80    83   am
    30    80    79    1
    31   115   116    1
    32   113   114    2
    33    90    91    2
    34    79    82    1
    35    79    78    1
    36    91    92    1
    37    91    93    1
    38    77    76    2
    39    37    38    1
    40    37    36    1
    41    38    32    1
    42   125   122    1
    43    76    75    1
    44     1     2    1
    45   117   118    1
    46     8    10   ar
    47     8     6   ar
    48    36    33    1
    49   121   122    1
    50   121   119   am
    51    10    11   ar
    52    75    74    1
    53    32    33    1
    54    69    68    2
    55   122   123    1
    56   118   119    1
    57     5     2    1
    58     5     6    1
    59     2     3    1
    60    46    44   am
    61     6     7   ar
    62   119   120    2
    63    33    34    1
    64    45    44    2
    65    44    43    1
    66    68    74   am
    67    68    67    1
    68    11    12    1
    69    11     9   ar
    70   123   124    2
    71    20    18   ar
    72     3    13   am
    73     3     4    2
    74    39    34   am
    75    39    40    1
    76    13    14    1
    77    31    29    1
    78     7     9   ar
    79    34    35    2
    80    43    40    1
    81    29    30    1
    82    29    28    2
    83    18    19   ar
    84    18    17    1
    85    28    27    1
    86    67    66    1
    87    67    70    1
    88    17    14    1
    89    65    64    2
    90    40    41    1
    91    27    26    1
    92    14    15    1
    93    26    25    1
    94    16    15    2
    95    25    22    1
    96    70    71    1
    97   126   127    1
    98   141   139   ar
    99    24    23    2
   100    72    71   ar
   101   138   139    1
   102   138   135    1
   103    64    63    1
   104    71    73   ar
   105    41    42    2
   106    23    22    1
   107   139   140   ar
   108   130   127    1
   109   130   131    1
   110    52    51    1
   111    22    21    1
   112   134   135    1
   113   134   128   am
   114   127   128    1
   115    63    62    1
   116   135   136    1
   117   133   131    1
   118   128   129    2
   119    51    53    1
   120    51    48    1
   121   131   132    1
   122    57    56    2
   123    47    48    1
   124   136   137    2
   125    62    56   am
   126    48    49    1
   127    56    55    1
   128    61    59   ar
   129    49    50    2
   130    55    54    1
   131    55    58    1
   132   149   147   ar
   133    59    60   ar
   134    59    58    1
   135   147   148   ar
   136   147   146    1
   137   146   143    1
   138   142   143    1
   139   143   144    1
   140   144   145    2
