@<TRIPOS>MOLECULE
tmp/4o6rD00.pdb
 146 142 0 0 0
SMALL
GASTEIGER

@<TRIPOS>ATOM
      1  N         66.0770  127.4340   51.8120 N.3   146  ILE146     -0.1231
      2  CA        64.7630  127.6030   52.4150 C.3   146  ILE146      0.1692
      3  C         64.1170  126.2220   52.4710 C.2   146  ILE146      0.2592
      4  O         63.9990  125.5340   51.4560 O.2   146  ILE146     -0.2718
      5  CB        63.8920  128.5870   51.6090 C.3   146  ILE146      0.0266
      6  CG1       64.5220  129.9790   51.6150 C.3   146  ILE146      0.0019
      7  CG2       62.4680  128.6490   52.1700 C.3   146  ILE146      0.0020
      8  CD1       63.8920  130.9380   50.6340 C.3   146  ILE146      0.0001
      9  N         63.6930  125.8280   53.6650 N.am  147  VAL147     -0.1966
     10  CA        63.3080  124.4570   54.0140 C.3   147  VAL147      0.1712
     11  C         61.8750  124.4160   54.6060 C.2   147  VAL147      0.2458
     12  O         61.5840  125.2460   55.4470 O.2   147  VAL147     -0.2730
     13  CB        64.3120  123.9920   55.0990 C.3   147  VAL147      0.0289
     14  CG1       64.1240  122.5430   55.4680 C.3   147  VAL147      0.0023
     15  CG2       65.7580  124.2500   54.6630 C.3   147  VAL147      0.0023
     16  N         61.0280  123.4370   54.2300 N.am  148  PRO148     -0.2716
     17  CA        59.6780  123.4080   54.7540 C.3   148  PRO148      0.1536
     18  C         59.5950  122.6390   56.0800 C.2   148  PRO148      0.2598
     19  O         60.6240  122.2580   56.6600 O.2   148  PRO148     -0.2715
     20  CB        58.9130  122.6910   53.6690 C.3   148  PRO148      0.0310
     21  CG        59.8990  121.7740   53.0510 C.3   148  PRO148      0.0237
     22  CD        61.2300  122.3900   53.2040 C.3   148  PRO148      0.0939
     23  N         58.3720  122.4030   56.5250 N.am  149  TRP149     -0.1974
     24  CA        58.1180  121.9340   57.8920 C.3   149  TRP149      0.1640
     25  C         57.9000  120.4320   58.0030 C.2   149  TRP149      0.2290
     26  O         57.6720  119.9400   59.0860 O.2   149  TRP149     -0.2864
     27  CB        56.9170  122.7030   58.5050 C.3   149  TRP149      0.0576
     28  CG        55.7460  122.8560   57.5770 C.ar  149  TRP149      0.0006
     29  CD1       55.3810  123.9820   56.8960 C.ar  149  TRP149      0.0946
     30  CD2       54.7880  121.8370   57.2140 C.ar  149  TRP149      0.0152
     31  NE1       54.2660  123.7210   56.1310 N.ar  149  TRP149     -0.2442
     32  CE2       53.8890  122.4140   56.3040 C.ar  149  TRP149      0.0810
     33  CE3       54.6150  120.5040   57.5710 C.ar  149  TRP149      0.0012
     34  CZ2       52.8160  121.7050   55.7590 C.ar  149  TRP149      0.0191
     35  CZ3       53.5420  119.7960   57.0300 C.ar  149  TRP149      0.0001
     36  CH2       52.6590  120.3970   56.1380 C.ar  149  TRP149      0.0015
     37  N         66.9760  129.2870   56.1400 N.3   173  LYS173     -0.1245
     38  CA        65.7470  129.7930   56.6940 C.3   173  LYS173      0.1561
     39  C         64.8300  128.5690   56.8750 C.2   173  LYS173      0.2260
     40  O         64.2060  128.1280   55.9160 O.2   173  LYS173     -0.2867
     41  CB        65.1570  130.7650   55.6690 C.3   173  LYS173      0.0271
     42  CG        64.2160  131.8110   56.2070 C.3   173  LYS173      0.0035
     43  CD        62.9490  131.2490   56.7750 C.3   173  LYS173      0.0206
     44  CE        61.9190  130.8820   55.7210 C.3   173  LYS173      0.1093
     45  NZ        60.8150  130.2180   56.4870 N.3   173  LYS173     -0.1314
     46  N         61.4720  126.4160   58.4240 N.3   175  SER175     -0.1202
     47  CA        60.0870  126.8150   58.5680 C.3   175  SER175      0.2020
     48  C         59.8910  127.3620   59.9550 C.2   175  SER175      0.2618
     49  O         60.3280  126.7550   60.9390 O.2   175  SER175     -0.2717
     50  CB        59.1360  125.6360   58.3720 C.3   175  SER175      0.2103
     51  OG        57.8170  126.0090   58.7670 O.3   175  SER175     -0.2182
     52  N         59.1840  128.4890   60.0320 N.am  176  GLU176     -0.1979
     53  CA        58.8110  129.0670   61.3140 C.3   176  GLU176      0.1602
     54  C         57.7510  128.2230   62.0720 C.2   176  GLU176      0.2287
     55  O         57.4960  128.4330   63.2740 O.2   176  GLU176     -0.2864
     56  CB        58.2980  130.5000   61.1000 C.3   176  GLU176      0.0415
     57  CG        56.9220  130.6330   60.4710 C.3   176  GLU176      0.1163
     58  CD        56.8660  130.4270   58.9650 C.2   176  GLU176      0.3649
     59  OE1       57.8550  130.0800   58.2840 O.co2 176  GLU176     -0.2457
     60  OE2       55.7510  130.5630   58.4520 O.co2 176  GLU176     -0.2457
     61  N         58.1280  133.2720   55.4520 N.3   206  GLY206     -0.1210
     62  CA        58.5150  133.2020   54.0450 C.3   206  GLY206      0.1956
     63  C         58.5000  134.5610   53.3780 C.2   206  GLY206      0.2611
     64  O         59.3650  134.8690   52.5330 O.2   206  GLY206     -0.2717
     65  N         57.5420  135.3960   53.7580 N.am  207  HIS207     -0.1975
     66  CA        57.3700  136.6620   53.0610 C.3   207  HIS207      0.1656
     67  C         58.2850  137.7590   53.6090 C.2   207  HIS207      0.2291
     68  O         58.3550  138.8310   53.0410 O.2   207  HIS207     -0.2864
     69  CB        55.8940  137.0890   53.0550 C.3   207  HIS207      0.0771
     70  CG        55.3030  137.2560   54.4200 C.ar  207  HIS207      0.0820
     71  ND1       54.7960  136.1990   55.1390 N.ar  207  HIS207     -0.2267
     72  CD2       55.1700  138.3410   55.2050 C.ar  207  HIS207      0.1154
     73  CE1       54.3640  136.6280   56.3080 C.ar  207  HIS207      0.1986
     74  NE2       54.5830  137.9230   56.3760 N.ar  207  HIS207     -0.2212
     75  N         62.3490  134.7610   54.1110 N.3   210  GLY210     -0.1210
     76  CA        62.5260  133.9120   52.9090 C.3   210  GLY210      0.1956
     77  C         62.6920  134.7520   51.6350 C.2   210  GLY210      0.2611
     78  O         63.5700  134.5080   50.7950 O.2   210  GLY210     -0.2717
     79  N         61.8220  135.7330   51.4800 N.am  211  GLN211     -0.1979
     80  CA        61.8480  136.6170   50.3090 C.3   211  GLN211      0.1601
     81  C         63.1590  137.3720   50.1990 C.2   211  GLN211      0.2287
     82  O         63.7160  137.4730   49.1100 O.2   211  GLN211     -0.2864
     83  CB        60.6740  137.6260   50.3860 C.3   211  GLN211      0.0394
     84  CG        60.4450  138.4710   49.1330 C.3   211  GLN211      0.0908
     85  CD        60.0900  137.6380   47.9090 C.2   211  GLN211      0.2608
     86  OE1       59.3580  136.6480   47.9910 O.2   211  GLN211     -0.2717
     87  NE2       60.6560  138.0100   46.7640 N.am  211  GLN211     -0.0878
     88  N         65.9960  134.9840   49.1000 N.3   214  ALA214     -0.1245
     89  CA        65.9240  134.6150   47.6660 C.3   214  ALA214      0.1562
     90  C         66.3650  135.7800   46.7660 C.2   214  ALA214      0.2260
     91  O         66.9650  135.5720   45.7130 O.2   214  ALA214     -0.2867
     92  CB        64.5200  134.1640   47.3000 C.3   214  ALA214      0.0290
     93  N         65.4960  125.7170   47.3050 N.3   224  PHE224     -0.1227
     94  CA        64.1520  125.7900   47.8500 C.3   224  PHE224      0.1736
     95  C         63.4410  124.4400   47.7350 C.2   224  PHE224      0.2596
     96  O         63.4850  123.8040   46.6800 O.2   224  PHE224     -0.2718
     97  CB        63.3310  126.8770   47.1160 C.3   224  PHE224      0.0547
     98  CG        61.8700  126.8890   47.4910 C.ar  224  PHE224     -0.0202
     99  CD1       61.4500  127.5240   48.6440 C.ar  224  PHE224     -0.0042
    100  CD2       60.9210  126.2340   46.7000 C.ar  224  PHE224     -0.0042
    101  CE1       60.1220  127.5160   49.0140 C.ar  224  PHE224     -0.0003
    102  CE2       59.6000  126.2080   47.0690 C.ar  224  PHE224     -0.0003
    103  CZ        59.2010  126.8320   48.2400 C.ar  224  PHE224     -0.0000
    104  N         62.7740  124.0170   48.8070 N.am  225  THR225     -0.1939
    105  CA        61.8720  122.8640   48.7720 C.3   225  THR225      0.2028
    106  C         60.4950  123.3440   49.2690 C.2   225  THR225      0.2643
    107  O         60.3960  123.9990   50.3000 O.2   225  THR225     -0.2714
    108  CB        62.4110  121.7380   49.6730 C.3   225  THR225      0.1808
    109  OG1       63.6990  121.3670   49.2290 O.3   225  THR225     -0.2208
    110  CG2       61.5320  120.4840   49.6620 C.3   225  THR225      0.0379
    111  N         59.4470  123.0060   48.5310 N.am  226  GLY226     -0.1939
    112  CA        58.0890  123.4230   48.8560 C.3   226  GLY226      0.2014
    113  C         57.2080  123.3260   47.6300 C.2   226  GLY226      0.2639
    114  O         57.4080  122.4780   46.8000 O.2   226  GLY226     -0.2714
    115  N         56.2180  124.1860   47.5360 N.am  227  SER227     -0.1949
    116  CA        55.2100  124.0820   46.4970 C.3   227  SER227      0.1924
    117  C         55.7300  124.5870   45.1560 C.2   227  SER227      0.2314
    118  O         56.6240  125.4340   45.0950 O.2   227  SER227     -0.2863
    119  CB        53.9480  124.8450   46.9110 C.3   227  SER227      0.2116
    120  OG        54.1000  126.2390   46.7600 O.3   227  SER227     -0.2180
    121  N         55.3080  128.4500   44.9880 N.3   230  THR230     -0.1218
    122  CA        56.3710  129.2110   45.6220 C.3   230  THR230      0.1862
    123  C         57.6790  129.0860   44.8710 C.2   230  THR230      0.2287
    124  O         58.4640  130.0410   44.8320 O.2   230  THR230     -0.2866
    125  CB        56.4910  128.7950   47.0870 C.3   230  THR230      0.1770
    126  OG1       55.2080  129.0260   47.6840 O.3   230  THR230     -0.2211
    127  CG2       57.5140  129.6060   47.7830 C.3   230  THR230      0.0375
    128  N         58.0560  131.7370   42.5150 N.3   233  ARG233     -0.1231
    129  CA        58.4310  133.0160   43.1050 C.3   233  ARG233      0.1694
    130  C         59.9140  133.0720   43.4450 C.2   233  ARG233      0.2591
    131  O         60.5270  134.1490   43.4120 O.2   233  ARG233     -0.2718
    132  CB        57.5830  133.3330   44.3500 C.3   233  ARG233      0.0321
    133  CG        56.0810  133.2070   44.1350 C.3   233  ARG233      0.0489
    134  CD        55.5810  134.2160   43.1390 C.3   233  ARG233      0.2205
    135  NE        55.7710  135.5680   43.6450 N.pl3 233  ARG233     -0.0865
    136  CZ        55.6590  136.6740   42.9120 C.cat 233  ARG233      0.5346
    137  NH1       55.3360  136.6120   41.6150 N.pl3 233  ARG233      0.1354
    138  NH2       55.8530  137.8540   43.4960 N.pl3 233  ARG233      0.1354
    139  N         60.5020  131.9170   43.7570 N.am  234  ILE234     -0.1980
    140  CA        61.9490  131.8220   43.9570 C.3   234  ILE234      0.1595
    141  C         62.6690  132.1680   42.6500 C.2   234  ILE234      0.2287
    142  O         63.6310  132.9410   42.6350 O.2   234  ILE234     -0.2864
    143  CB        62.3790  130.3970   44.4190 C.3   234  ILE234      0.0276
    144  CG1       61.7690  130.0410   45.7890 C.3   234  ILE234      0.0022
    145  CG2       63.9040  130.2520   44.4430 C.3   234  ILE234      0.0022
    146  CD1       62.3100  130.8720   46.9230 C.3   234  ILE234      0.0001
@<TRIPOS>BOND
     1   137   136    1
     2   128   129    1
     3   142   141    2
     4   141   140    1
     5   136   138    1
     6   136   135    2
     7   129   130    1
     8   129   132    1
     9   134   135    1
    10   134   133    1
    11   131   130    2
    12   130   139   am
    13   139   140    1
    14   140   143    1
    15   133   132    1
    16   143   145    1
    17   143   144    1
    18   124   123    2
    19   123   122    1
    20   121   122    1
    21   118   117    2
    22   117   116    1
    23   122   125    1
    24    91    90    2
    25   144   146    1
    26   116   119    1
    27   116   115    1
    28    96    95    2
    29   100   102   ar
    30   100    98   ar
    31   120   119    1
    32    87    85   am
    33    90    89    1
    34   114   113    2
    35   102   103   ar
    36   125   126    1
    37   125   127    1
    38    97    98    1
    39    97    94    1
    40    92    89    1
    41    93    94    1
    42    98    99   ar
    43   115   113   am
    44   113   112    1
    45    89    88    1
    46    95    94    1
    47    95   104   am
    48    85    86    2
    49    85    84    1
    50   103   101   ar
    51   111   112    1
    52   111   106   am
    53    99   101   ar
    54   105   104    1
    55   105   106    1
    56   105   108    1
    57    82    81    2
    58    84    83    1
    59   109   108    1
    60   106   107    2
    61   110   108    1
    62    81    80    1
    63    80    83    1
    64    80    79    1
    65     8     6    1
    66    78    77    2
    67     4     3    2
    68    79    77   am
    69     5     6    1
    70     5     7    1
    71     5     2    1
    72    77    76    1
    73     1     2    1
    74     2     3    1
    75     3     9   am
    76    64    63    2
    77    76    75    1
    78    68    67    2
    79    21    22    1
    80    21    20    1
    81    69    66    1
    82    69    70    1
    83    66    67    1
    84    66    65    1
    85    22    16    1
    86    63    65   am
    87    63    62    1
    88     9    10    1
    89    20    17    1
    90    10    11    1
    91    10    13    1
    92    62    61    1
    93    16    11   am
    94    16    17    1
    95    70    71   ar
    96    70    72   ar
    97    11    12    2
    98    15    13    1
    99    17    18    1
   100    13    14    1
   101    71    73   ar
   102    72    74   ar
   103    41    42    1
   104    41    38    1
   105    44    45    1
   106    44    43    1
   107    34    36   ar
   108    34    32   ar
   109    40    39    2
   110    18    23   am
   111    18    19    2
   112    31    32   ar
   113    31    29   ar
   114    36    35   ar
   115    37    38    1
   116    42    43    1
   117    32    30   ar
   118    73    74   ar
   119    23    24    1
   120    38    39    1
   121    29    28   ar
   122    35    33   ar
   123    30    33   ar
   124    30    28   ar
   125    28    27    1
   126    24    25    1
   127    24    27    1
   128    25    26    2
   129    59    58   ar
   130    50    47    1
   131    50    51    1
   132    46    47    1
   133    60    58   ar
   134    47    48    1
   135    58    57    1
   136    48    52   am
   137    48    49    2
   138    52    53    1
   139    57    56    1
   140    56    53    1
   141    53    54    1
   142    54    55    2
