@<TRIPOS>MOLECULE
tmp/4o6uA00.pdb
 210 207 0 0 0
SMALL
GASTEIGER

@<TRIPOS>ATOM
      1  N          7.4970    6.2310  -12.7710 N.3    31  HIS31      -0.1226
      2  CA         6.2190    6.6020  -13.3670 C.3    31  HIS31       0.1752
      3  C          5.4080    7.3510  -12.3020 C.2    31  HIS31       0.2596
      4  O          4.5300    6.7930  -11.6390 O.2    31  HIS31      -0.2718
      5  CB         5.5010    5.3480  -13.8480 C.3    31  HIS31       0.0759
      6  CG         4.2590    5.6190  -14.6440 C.ar   31  HIS31       0.0818
      7  ND1        4.2210    5.4590  -16.0030 N.ar   31  HIS31      -0.2268
      8  CD2        3.0020    5.9740  -14.2760 C.ar   31  HIS31       0.1154
      9  CE1        2.9820    5.6980  -16.4260 C.ar   31  HIS31       0.1986
     10  NE2        2.2170    6.0300  -15.4080 N.ar   31  HIS31      -0.2212
     11  N          5.7400    8.6250  -12.1310 N.am   32  ARG32      -0.1966
     12  CA         5.2260    9.4700  -11.0550 C.3    32  ARG32       0.1714
     13  C          5.0210   10.8740  -11.6210 C.2    32  ARG32       0.2458
     14  O          5.5680   11.2200  -12.6770 O.2    32  ARG32      -0.2730
     15  CB         6.1970    9.5300   -9.8640 C.3    32  ARG32       0.0347
     16  CG         6.1990    8.2420   -9.0570 C.3    32  ARG32       0.0492
     17  CD         6.9130    8.3490   -7.7350 C.3    32  ARG32       0.2205
     18  NE         8.3250    8.5830   -7.9350 N.pl3  32  ARG32      -0.0865
     19  CZ         9.1950    7.6300   -8.2280 C.cat  32  ARG32       0.5346
     20  NH1        8.8010    6.3940   -8.3000 N.pl3  32  ARG32       0.1354
     21  NH2       10.4790    7.9160   -8.3780 N.pl3  32  ARG32       0.1354
     22  N          4.2500   11.7090  -10.9260 N.am   33  PRO33      -0.2716
     23  CA         3.9950   13.0560  -11.4350 C.3    33  PRO33       0.1536
     24  C          5.2730   13.8030  -11.7410 C.2    33  PRO33       0.2599
     25  O          6.2340   13.7540  -10.9620 O.2    33  PRO33      -0.2715
     26  CB         3.1840   13.7100  -10.3000 C.3    33  PRO33       0.0310
     27  CG         2.4500   12.5500   -9.6840 C.3    33  PRO33       0.0237
     28  CD         3.4880   11.4470   -9.7000 C.3    33  PRO33       0.0939
     29  N          5.2730   14.4810  -12.8800 N.am   34  GLY34      -0.1941
     30  CA         6.4340   15.2130  -13.3350 C.3    34  GLY34       0.2014
     31  C          7.4460   14.3840  -14.1210 C.2    34  GLY34       0.2639
     32  O          8.3470   14.9640  -14.7240 O.2    34  GLY34      -0.2714
     33  N          7.3310   13.0590  -14.0890 N.am   35  GLN35      -0.1963
     34  CA         8.3550   12.1650  -14.6270 C.3    35  GLN35       0.1733
     35  C          7.8230   11.1780  -15.6490 C.2    35  GLN35       0.2616
     36  O          8.5850   10.3000  -16.0520 O.2    35  GLN35      -0.2715
     37  CB         9.0750   11.4070  -13.4890 C.3    35  GLN35       0.0408
     38  CG         9.9000   12.3130  -12.6250 C.3    35  GLN35       0.0908
     39  CD        10.7510   11.5130  -11.6850 C.2    35  GLN35       0.2608
     40  OE1       11.6960   10.8390  -12.0900 O.2    35  GLN35      -0.2717
     41  NE2       10.3840   11.5260  -10.4320 N.am   35  GLN35      -0.0878
     42  N          6.5600   11.2820  -16.0550 N.am   36  VAL36      -0.1977
     43  CA         6.0320   10.3440  -17.0320 C.3    36  VAL36       0.1596
     44  C          6.3790   10.8340  -18.4350 C.2    36  VAL36       0.2287
     45  O          6.0600   11.9710  -18.7920 O.2    36  VAL36      -0.2864
     46  CB         4.5350   10.1550  -16.8760 C.3    36  VAL36       0.0276
     47  CG1        3.9730    9.2800  -17.9920 C.3    36  VAL36       0.0022
     48  CG2        4.2170    9.5200  -15.5340 C.3    36  VAL36       0.0022
     49  N          5.9550    9.4750  -22.3420 N.3    38  ASP38      -0.1239
     50  CA         5.3450    8.5110  -23.2410 C.3    38  ASP38       0.1674
     51  C          6.4260    7.9000  -24.1140 C.2    38  ASP38       0.2266
     52  O          7.2240    8.6200  -24.7030 O.2    38  ASP38      -0.2867
     53  CB         4.2730    9.1910  -24.1000 C.3    38  ASP38       0.1410
     54  CG         3.3270    8.1960  -24.7160 C.2    38  ASP38       0.3668
     55  OD1        3.3850    7.0310  -24.2560 O.co2  38  ASP38      -0.2456
     56  OD2        2.5130    8.5700  -25.5990 O.co2  38  ASP38      -0.2456
     57  N          6.0230    4.7440  -19.8580 N.3    42  THR42      -0.1203
     58  CA         4.6030    4.4900  -19.7910 C.3    42  THR42       0.1994
     59  C          4.2260    3.0280  -19.9730 C.2    42  THR42       0.2618
     60  O          3.1880    2.6120  -19.4640 O.2    42  THR42      -0.2717
     61  CB         3.8280    5.3030  -20.8620 C.3    42  THR42       0.1784
     62  OG1        4.4090    5.0610  -22.1390 O.3    42  THR42      -0.2211
     63  CG2        3.8420    6.7640  -20.5170 C.3    42  THR42       0.0376
     64  N          5.0260    2.2870  -20.7220 N.am   43  GLY43      -0.1942
     65  CA         4.5910    1.0020  -21.2220 C.3    43  GLY43       0.2014
     66  C          3.4930    1.1880  -22.2590 C.2    43  GLY43       0.2639
     67  O          3.2650    2.2990  -22.7460 O.2    43  GLY43      -0.2714
     68  N          2.8070    0.1040  -22.5720 N.am   44  GLY44      -0.1939
     69  CA         1.7640    0.1760  -23.5770 C.3    44  GLY44       0.2014
     70  C          0.7890   -0.9780  -23.4210 C.2    44  GLY44       0.2638
     71  O          1.0670   -2.0080  -22.8040 O.2    44  GLY44      -0.2714
     72  N         -0.3730   -0.7680  -24.0280 N.am   45  PHE45      -0.1973
     73  CA        -1.4570   -1.7230  -24.0460 C.3    45  PHE45       0.1639
     74  C         -1.6450   -2.3220  -25.4290 C.2    45  PHE45       0.2290
     75  O         -1.4470   -1.6570  -26.4640 O.2    45  PHE45      -0.2864
     76  CB        -2.7800   -1.0420  -23.6510 C.3    45  PHE45       0.0560
     77  CG        -2.8720   -0.7220  -22.1770 C.ar   45  PHE45      -0.0200
     78  CD1       -2.4430    0.5000  -21.6920 C.ar   45  PHE45      -0.0042
     79  CD2       -3.3680   -1.6550  -21.2660 C.ar   45  PHE45      -0.0042
     80  CE1       -2.5010    0.8010  -20.3350 C.ar   45  PHE45      -0.0003
     81  CE2       -3.4380   -1.3410  -19.9190 C.ar   45  PHE45      -0.0003
     82  CZ        -2.9890   -0.1250  -19.4510 C.ar   45  PHE45      -0.0000
     83  N         -5.4400    2.4050  -26.9010 N.3    49  PRO49      -0.2102
     84  CA        -4.2880    2.9950  -26.2310 C.3    49  PRO49       0.1504
     85  C         -4.2250    2.8040  -24.7160 C.2    49  PRO49       0.2575
     86  O         -3.1300    2.8000  -24.1610 O.2    49  PRO49      -0.2718
     87  CB        -4.4230    4.4970  -26.5770 C.3    49  PRO49       0.0282
     88  CG        -5.8700    4.6800  -26.8460 C.3    49  PRO49       0.0208
     89  CD        -6.3110    3.4290  -27.5170 C.3    49  PRO49       0.0893
     90  N         -5.3740    2.6500  -24.0600 N.am   50  PHE50      -0.1977
     91  CA        -5.4520    2.6500  -22.6050 C.3    50  PHE50       0.1639
     92  C         -6.2090    1.4660  -22.0330 C.2    50  PHE50       0.2290
     93  O         -6.5350    1.4490  -20.8450 O.2    50  PHE50      -0.2864
     94  CB        -6.0310    3.9670  -22.0710 C.3    50  PHE50       0.0560
     95  CG        -5.2520    5.1700  -22.5480 C.ar   50  PHE50      -0.0200
     96  CD1       -5.8030    6.0710  -23.4480 C.ar   50  PHE50      -0.0042
     97  CD2       -3.9510    5.3770  -22.1720 C.ar   50  PHE50      -0.0042
     98  CE1       -5.0860    7.1670  -23.9310 C.ar   50  PHE50      -0.0003
     99  CE2       -3.2280    6.4930  -22.6760 C.ar   50  PHE50      -0.0003
    100  CZ        -3.8090    7.3490  -23.5650 C.ar   50  PHE50      -0.0000
    101  N         -0.8460   -5.4350  -20.9330 N.3    55  TYR55      -0.1241
    102  CA        -0.0490   -4.2470  -20.6360 C.3    55  TYR55       0.1605
    103  C          1.4000   -4.7230  -20.5060 C.2    55  TYR55       0.2264
    104  O          1.6420   -5.6910  -19.8130 O.2    55  TYR55      -0.2867
    105  CB        -0.4860   -3.5800  -19.3170 C.3    55  TYR55       0.0534
    106  CG         0.4590   -2.4870  -18.9090 C.ar   55  TYR55      -0.0201
    107  CD1        0.4520   -1.2680  -19.5550 C.ar   55  TYR55      -0.0009
    108  CD2        1.4180   -2.6880  -17.9210 C.ar   55  TYR55      -0.0009
    109  CE1        1.3800   -0.2830  -19.2400 C.ar   55  TYR55       0.0417
    110  CE2        2.3420   -1.7200  -17.5970 C.ar   55  TYR55       0.0417
    111  CZ         2.3210   -0.5110  -18.2430 C.ar   55  TYR55       0.1957
    112  OH         3.2590    0.4160  -17.8830 O.3    55  TYR55      -0.2866
    113  N         -7.1190    1.2570  -18.0350 N.3    74  TYR74      -0.1241
    114  CA        -6.4010    2.3160  -17.3490 C.3    74  TYR74       0.1605
    115  C         -7.1900    3.6130  -17.4310 C.2    74  TYR74       0.2264
    116  O         -7.5570    4.0410  -18.5430 O.2    74  TYR74      -0.2867
    117  CB        -5.0140    2.5070  -17.9340 C.3    74  TYR74       0.0534
    118  CG        -4.2110    3.5890  -17.2510 C.ar   74  TYR74      -0.0201
    119  CD1       -3.7840    4.7170  -17.9380 C.ar   74  TYR74      -0.0009
    120  CD2       -3.8830    3.4780  -15.9040 C.ar   74  TYR74      -0.0009
    121  CE1       -3.0300    5.6990  -17.3120 C.ar   74  TYR74       0.0417
    122  CE2       -3.1480    4.4590  -15.2590 C.ar   74  TYR74       0.0417
    123  CZ        -2.7130    5.5600  -15.9710 C.ar   74  TYR74       0.1957
    124  OH        -1.9250    6.4930  -15.3380 O.3    74  TYR74      -0.2866
    125  N         -6.3930    6.7670  -16.8050 N.3    76  LEU76      -0.1231
    126  CA        -5.6760    7.9720  -17.2180 C.3    76  LEU76       0.1693
    127  C         -6.1320    9.1320  -16.3290 C.2    76  LEU76       0.2592
    128  O         -5.8030    9.1340  -15.1420 O.2    76  LEU76      -0.2718
    129  CB        -5.7640    8.1880  -18.7180 C.3    76  LEU76       0.0284
    130  CG        -4.8180    9.2920  -19.2400 C.3    76  LEU76       0.0019
    131  CD1       -3.3500    8.9230  -19.1350 C.3    76  LEU76       0.0001
    132  CD2       -5.1650    9.6080  -20.6600 C.3    76  LEU76       0.0001
    133  N         -6.8520   10.1210  -16.8680 N.am   77  PHE77      -0.1976
    134  CA        -7.2320   11.2900  -16.0790 C.3    77  PHE77       0.1639
    135  C         -8.6480   11.1930  -15.5340 C.2    77  PHE77       0.2290
    136  O         -9.0690   12.0710  -14.7770 O.2    77  PHE77      -0.2864
    137  CB        -7.0920   12.5630  -16.9170 C.3    77  PHE77       0.0560
    138  CG        -5.7580   12.6770  -17.6060 C.ar   77  PHE77      -0.0200
    139  CD1       -4.5770   12.3850  -16.9360 C.ar   77  PHE77      -0.0042
    140  CD2       -5.6750   13.0540  -18.9170 C.ar   77  PHE77      -0.0042
    141  CE1       -3.3550   12.4620  -17.5860 C.ar   77  PHE77      -0.0003
    142  CE2       -4.4450   13.1490  -19.5500 C.ar   77  PHE77      -0.0003
    143  CZ        -3.2990   12.8580  -18.8950 C.ar   77  PHE77      -0.0000
    144  N         -8.5440    8.7680  -10.9990 N.3    81  SER81      -0.1202
    145  CA        -7.4480    8.9560  -11.9350 C.3    81  SER81       0.2020
    146  C         -6.3000    8.0030  -11.6590 C.2    81  SER81       0.2618
    147  O         -6.0540    7.5550  -10.5250 O.2    81  SER81      -0.2717
    148  CB        -6.9410   10.4030  -11.8850 C.3    81  SER81       0.2103
    149  OG        -6.3030   10.6700  -10.6550 O.3    81  SER81      -0.2182
    150  N         -5.5780    7.7220  -12.7190 N.am   82  ALA82      -0.1979
    151  CA        -4.3370    6.9440  -12.6930 C.3    82  ALA82       0.1597
    152  C         -4.5540    5.6080  -11.9650 C.2    82  ALA82       0.2287
    153  O         -3.7750    5.2250  -11.0880 O.2    82  ALA82      -0.2864
    154  CB        -3.1740    7.7300  -12.1100 C.3    82  ALA82       0.0319
    155  N         -5.0960    1.4830  -12.7710 N.3    84  LEU84      -0.1245
    156  CA        -5.2070    0.2780  -13.5970 C.3    84  LEU84       0.1561
    157  C         -6.1570   -0.6800  -12.8750 C.2    84  LEU84       0.2260
    158  O         -5.9070   -1.0090  -11.7160 O.2    84  LEU84      -0.2867
    159  CB        -3.8630   -0.4100  -13.7760 C.3    84  LEU84       0.0270
    160  CG        -3.9350   -1.6650  -14.6410 C.3    84  LEU84       0.0019
    161  CD1       -4.0820   -1.3000  -16.1140 C.3    84  LEU84       0.0001
    162  CD2       -2.6980   -2.5240  -14.4540 C.3    84  LEU84       0.0001
    163  N         -6.8610    3.0970   -6.8500 N.3   128  ARG128     -0.1245
    164  CA        -5.4800    2.6730   -6.7190 C.3   128  ARG128      0.1563
    165  C         -5.2700    1.6870   -5.5670 C.2   128  ARG128      0.2260
    166  O         -4.1640    1.1810   -5.3820 O.2   128  ARG128     -0.2867
    167  CB        -4.5510    3.8630   -6.5890 C.3   128  ARG128      0.0307
    168  CG        -4.6190    4.8230   -7.7710 C.3   128  ARG128      0.0489
    169  CD        -3.5850    5.9030   -7.6010 C.3   128  ARG128      0.2205
    170  NE        -3.9330    7.0620   -8.4100 N.pl3 128  ARG128     -0.0865
    171  CZ        -3.7110    8.3260   -8.0890 C.cat 128  ARG128      0.5346
    172  NH1       -2.9810    8.6320   -7.0400 N.pl3 128  ARG128      0.1354
    173  NH2       -4.1900    9.2850   -8.8290 N.pl3 128  ARG128      0.1354
    174  N         -4.1100   -2.9030   -9.6160 N.3   133  HIS133     -0.1241
    175  CA        -3.2810   -1.7070   -9.6240 C.3   133  HIS133      0.1621
    176  C         -2.0380   -1.9270   -8.7760 C.2   133  HIS133      0.2264
    177  O         -0.9140   -1.6220   -9.1940 O.2   133  HIS133     -0.2867
    178  CB        -4.0750   -0.5140   -9.0780 C.3   133  HIS133      0.0745
    179  CG        -3.2970    0.7520   -9.1420 C.ar  133  HIS133      0.0817
    180  ND1       -3.3820    1.6080  -10.2140 N.ar  133  HIS133     -0.2268
    181  CD2       -2.4170    1.2630   -8.2470 C.ar  133  HIS133      0.1154
    182  CE1       -2.5630    2.6190   -9.9480 C.ar  133  HIS133      0.1986
    183  NE2       -1.9600    2.4310   -8.7790 N.ar  133  HIS133     -0.2212
    184  N          0.5570   -4.3570  -10.5130 N.3   136  VAL136     -0.1231
    185  CA         1.2410   -3.8670  -11.6900 C.3   136  VAL136      0.1692
    186  C          2.0320   -2.5850  -11.3890 C.2   136  VAL136      0.2592
    187  O          3.1810   -2.4590  -11.8210 O.2   136  VAL136     -0.2718
    188  CB         0.2760   -3.6990  -12.8660 C.3   136  VAL136      0.0266
    189  CG1        0.9880   -3.1220  -14.0770 C.3   136  VAL136      0.0020
    190  CG2       -0.3790   -5.0330  -13.2040 C.3   136  VAL136      0.0020
    191  N          1.4310   -1.6400  -10.6500 N.am  137  TYR137     -0.1976
    192  CA         2.1760   -0.4190  -10.3180 C.3   137  TYR137      0.1639
    193  C          3.3850   -0.7660   -9.4660 C.2   137  TYR137      0.2290
    194  O          4.4370   -0.1450   -9.5910 O.2   137  TYR137     -0.2864
    195  CB         1.3040    0.6160   -9.6330 C.3   137  TYR137      0.0560
    196  CG         1.9790    1.9570   -9.5680 C.ar  137  TYR137     -0.0198
    197  CD1        2.2850    2.6700  -10.7240 C.ar  137  TYR137     -0.0009
    198  CD2        2.3050    2.5290   -8.3500 C.ar  137  TYR137     -0.0009
    199  CE1        2.9200    3.8910  -10.6660 C.ar  137  TYR137      0.0417
    200  CE2        2.9250    3.7690   -8.2750 C.ar  137  TYR137      0.0417
    201  CZ         3.2450    4.4330   -9.4480 C.ar  137  TYR137      0.1957
    202  OH         3.8360    5.6760   -9.3170 O.3   137  TYR137     -0.2866
    203  N          5.9810   -1.8150  -11.9300 N.3   140  MET140     -0.1245
    204  CA         6.4900   -0.6440  -12.6240 C.3   140  MET140      0.1570
    205  C          7.5180    0.0960  -11.7750 C.2   140  MET140      0.2261
    206  O          8.4600    0.6990  -12.3110 O.2   140  MET140     -0.2867
    207  CB         5.3380    0.3270  -12.9580 C.3   140  MET140      0.0387
    208  CG         4.3290   -0.2510  -13.9220 C.3   140  MET140      0.0595
    209  SD         2.8150    0.7310  -14.0750 S.3   140  MET140     -0.1393
    210  CE         3.4390    2.1910  -14.9020 C.3   140  MET140      0.0692
@<TRIPOS>BOND
     1    89    83    1
     2    89    88    1
     3    83    84    1
     4    88    87    1
     5    87    84    1
     6    75    74    2
     7    84    85    1
     8    56    54   ar
     9    74    73    1
    10    85    86    2
    11    85    90   am
    12    54    55   ar
    13    54    53    1
    14    52    51    2
    15    51    50    1
    16    53    50    1
    17    90    91    1
    18    73    72    1
    19    73    76    1
    20    72    70   am
    21    98   100   ar
    22    98    96   ar
    23    76    77    1
    24    69    70    1
    25    69    68    1
    26   100    99   ar
    27    96    95   ar
    28    70    71    2
    29    50    49    1
    30    67    66    2
    31    99    97   ar
    32    91    94    1
    33    91    92    1
    34    68    66   am
    35    95    97   ar
    36    95    94    1
    37    66    65    1
    38    77    78   ar
    39    77    79   ar
    40    62    61    1
    41    92    93    2
    42    78    80   ar
    43    79    81   ar
    44    65    64    1
    45   101   102    1
    46    61    63    1
    47    61    58    1
    48    64    59   am
    49   132   130    1
    50   102   103    1
    51   102   105    1
    52   103   104    2
    53    80    82   ar
    54    59    58    1
    55    59    60    2
    56    81    82   ar
    57    57    58    1
    58   107   109   ar
    59   107   106   ar
    60   142   140   ar
    61   142   143   ar
    62   105   106    1
    63   130   131    1
    64   130   129    1
    65   109   111   ar
    66   140   138   ar
    67   106   108   ar
    68   143   141   ar
    69    45    44    2
    70   129   126    1
    71   116   115    2
    72    44    43    1
    73   111   112    1
    74   111   110   ar
    75   113   114    1
    76    47    46    1
    77   119   121   ar
    78   119   118   ar
    79   117   114    1
    80   117   118    1
    81   108   110   ar
    82   138   139   ar
    83   138   137    1
    84   141   139   ar
    85   115   114    1
    86   121   123   ar
    87   118   120   ar
    88   126   125    1
    89   126   127    1
    90    43    46    1
    91    43    42    1
    92   137   134    1
    93    46    48    1
    94   133   127   am
    95   133   134    1
    96     9     7   ar
    97     9    10   ar
    98   127   128    2
    99   161   160    1
   100   134   135    1
   101    42    35   am
   102    36    35    2
   103     7     6   ar
   104   123   124    1
   105   123   122   ar
   106   120   122   ar
   107    35    34    1
   108   135   136    2
   109    10     8   ar
   110   210   209    1
   111    32    31    2
   112     6     8   ar
   113     6     5    1
   114   160   162    1
   115   160   159    1
   116    34    33    1
   117    34    37    1
   118    31    33   am
   119    31    30    1
   120   189   188    1
   121   209   208    1
   122   208   207    1
   123     5     2    1
   124   159   156    1
   125   156   157    1
   126   156   155    1
   127    37    38    1
   128     2     1    1
   129     2     3    1
   130    30    29    1
   131   190   188    1
   132   207   204    1
   133    29    24   am
   134   157   158    2
   135   188   185    1
   136   150   151    1
   137   150   146   am
   138   151   154    1
   139   151   152    1
   140    14    13    2
   141    38    39    1
   142   204   203    1
   143   204   205    1
   144   206   205    2
   145     3    11   am
   146     3     4    2
   147    11    12    1
   148    40    39    2
   149   152   153    2
   150   145   148    1
   151   145   146    1
   152   145   144    1
   153   148   149    1
   154   187   186    2
   155    24    23    1
   156    24    25    2
   157   185   186    1
   158   185   184    1
   159    39    41   am
   160   146   147    2
   161    13    12    1
   162    13    22   am
   163    23    22    1
   164    23    26    1
   165   186   191   am
   166    12    15    1
   167    22    28    1
   168   197   199   ar
   169   197   196   ar
   170   199   201   ar
   171   191   192    1
   172   192   195    1
   173   192   193    1
   174    26    27    1
   175   180   182   ar
   176   180   179   ar
   177   182   183   ar
   178    15    16    1
   179    28    27    1
   180   195   196    1
   181   175   174    1
   182   175   178    1
   183   175   176    1
   184   194   193    2
   185   196   198   ar
   186   201   202    1
   187   201   200   ar
   188   177   176    2
   189   179   178    1
   190   179   181   ar
   191    16    17    1
   192   173   171    1
   193   183   181   ar
   194   170   171    2
   195   170   169    1
   196    21    19    1
   197   198   200   ar
   198    20    19    1
   199    19    18    2
   200   171   172    1
   201    18    17    1
   202   168   169    1
   203   168   167    1
   204   163   164    1
   205   164   167    1
   206   164   165    1
   207   165   166    2
