@<TRIPOS>MOLECULE
tmp/4o6zA00.pdb
 130 124 0 0 0
SMALL
GASTEIGER

@<TRIPOS>ATOM
      1  N         38.6160   61.1610  -18.7260 N.3    40  SER40      -0.1217
      2  CA        40.0290   60.7580  -18.8420 C.3    40  SER40       0.1889
      3  C         40.3730   59.9780  -20.1250 C.2    40  SER40       0.2288
      4  O         41.5090   59.5460  -20.3120 O.2    40  SER40      -0.2866
      5  CB        40.4800   59.9710  -17.5930 C.3    40  SER40       0.2089
      6  OG        39.7610   58.7490  -17.4390 O.3    40  SER40      -0.2183
      7  N         53.8120   55.4130  -16.9220 N.3   106  SER106     -0.1202
      8  CA        52.5080   56.0570  -16.7980 C.3   106  SER106      0.2020
      9  C         52.5090   57.1380  -15.7300 C.2   106  SER106      0.2619
     10  O         53.5730   57.4970  -15.2190 O.2   106  SER106     -0.2717
     11  CB        51.4270   55.0360  -16.5000 C.3   106  SER106      0.2103
     12  OG        50.5380   54.9400  -17.6080 O.3   106  SER106     -0.2182
     13  N         51.3260   57.6820  -15.4110 N.am  107  GLY107     -0.1942
     14  CA        51.1860   58.7310  -14.4000 C.3   107  GLY107      0.2014
     15  C         51.5000   58.1710  -13.0290 C.2   107  GLY107      0.2639
     16  O         52.2860   58.7420  -12.2800 O.2   107  GLY107     -0.2714
     17  N         50.9120   57.0290  -12.6930 N.am  108  SER108     -0.1949
     18  CA        51.0700   56.5260  -11.3630 C.3   108  SER108      0.1924
     19  C         52.5220   56.3380  -11.1350 C.2   108  SER108      0.2314
     20  O         52.9980   56.5590  -10.0340 O.2   108  SER108     -0.2863
     21  CB        50.3570   55.2050  -11.1840 C.3   108  SER108      0.2116
     22  OG        48.9800   55.3460  -11.4440 O.3   108  SER108     -0.2180
     23  N         54.3270   59.5720  -10.5520 N.3   111  ASN111     -0.1240
     24  CA        54.0050   60.1170   -9.2420 C.3   111  ASN111      0.1653
     25  C         54.7750   59.4740   -8.0950 C.2   111  ASN111      0.2266
     26  O         55.5010   60.1820   -7.3900 O.2   111  ASN111     -0.2867
     27  CB        52.5180   60.0870   -9.0100 C.3   111  ASN111      0.1155
     28  CG        51.8220   61.3020   -9.6030 C.2   111  ASN111      0.2627
     29  OD1       52.4760   62.2770  -10.0370 O.2   111  ASN111     -0.2716
     30  ND2       50.4820   61.2660   -9.5960 N.am  111  ASN111     -0.0877
     31  N         43.8650   61.4340   -6.5620 N.3   135  HIS135     -0.1241
     32  CA        44.2320   60.1980   -7.2560 C.3   135  HIS135      0.1621
     33  C         44.8180   59.2400   -6.2860 C.2   135  HIS135      0.2264
     34  O         45.3580   59.6650   -5.2660 O.2   135  HIS135     -0.2867
     35  CB        45.2270   60.4620   -8.3920 C.3   135  HIS135      0.0745
     36  CG        45.5140   59.2450   -9.2550 C.ar  135  HIS135      0.0817
     37  ND1       46.7240   58.6370   -9.2960 N.ar  135  HIS135     -0.2268
     38  CD2       44.6810   58.5120  -10.0940 C.ar  135  HIS135      0.1154
     39  CE1       46.6650   57.5780  -10.1280 C.ar  135  HIS135      0.1986
     40  NE2       45.4190   57.5100  -10.6280 N.ar  135  HIS135     -0.2212
     41  N         48.1260   59.7880   -4.7700 N.3   138  HIS138     -0.1241
     42  CA        48.2650   60.9480   -3.8870 C.3   138  HIS138      0.1621
     43  C         48.2700   60.5730   -2.4090 C.2   138  HIS138      0.2264
     44  O         48.1600   61.4250   -1.5340 O.2   138  HIS138     -0.2867
     45  CB        47.2370   62.0390   -4.2100 C.3   138  HIS138      0.0745
     46  CG        47.3810   62.6320   -5.5910 C.ar  138  HIS138      0.0817
     47  ND1       46.3820   63.3100   -6.1990 N.ar  138  HIS138     -0.2268
     48  CD2       48.4390   62.6070   -6.4890 C.ar  138  HIS138      0.1154
     49  CE1       46.7900   63.7160   -7.4140 C.ar  138  HIS138      0.1986
     50  NE2       48.0420   63.2820   -7.5950 N.ar  138  HIS138     -0.2212
     51  N         44.0780   67.3010   -9.6740 N.3   188  TYR188     -0.1227
     52  CA        43.0940   66.3140   -9.2290 C.3   188  TYR188      0.1736
     53  C         42.4120   65.5880  -10.3430 C.2   188  TYR188      0.2596
     54  O         42.2710   66.1180  -11.4330 O.2   188  TYR188     -0.2718
     55  CB        42.0100   66.9810   -8.3610 C.3   188  TYR188      0.0548
     56  CG        42.5650   67.9030   -7.3190 C.ar  188  TYR188     -0.0200
     57  CD1       43.1820   67.3960   -6.1860 C.ar  188  TYR188     -0.0009
     58  CD2       42.4790   69.2740   -7.4640 C.ar  188  TYR188     -0.0009
     59  CE1       43.7220   68.2380   -5.2350 C.ar  188  TYR188      0.0417
     60  CE2       43.0110   70.1250   -6.5060 C.ar  188  TYR188      0.0417
     61  CZ        43.6260   69.6010   -5.3970 C.ar  188  TYR188      0.1957
     62  OH        44.1710   70.4220   -4.4460 O.3   188  TYR188     -0.2866
     63  N         41.9270   64.4000  -10.0140 N.am  189  THR189     -0.1953
     64  CA        41.1460   63.5660  -10.8980 C.3   189  THR189      0.1897
     65  C         39.8090   64.1340  -11.2810 C.2   189  THR189      0.2313
     66  O         39.5120   64.2490  -12.4340 O.2   189  THR189     -0.2863
     67  CB        40.8680   62.2340  -10.2200 C.3   189  THR189      0.1794
     68  OG1       42.0770   61.4750  -10.2220 O.3   189  THR189     -0.2208
     69  CG2       39.8030   61.4700  -10.9780 C.3   189  THR189      0.0378
     70  N         49.9270   67.9270  -10.0340 N.3   214  ASP214     -0.1239
     71  CA        49.5640   66.8230  -10.9320 C.3   214  ASP214      0.1674
     72  C         48.5230   67.3020  -11.9420 C.2   214  ASP214      0.2266
     73  O         47.3280   67.3200  -11.6220 O.2   214  ASP214     -0.2867
     74  CB        48.9870   65.6470  -10.1250 C.3   214  ASP214      0.1410
     75  CG        48.7880   64.3680  -10.9800 C.2   214  ASP214      0.3668
     76  OD1       48.2930   64.4360  -12.1220 O.co2 214  ASP214     -0.2456
     77  OD2       49.1310   63.2660  -10.5130 O.co2 214  ASP214     -0.2456
     78  N         47.4870   65.9610  -14.7830 N.3   216  SER216     -0.1202
     79  CA        47.1780   65.0110  -15.8330 C.3   216  SER216      0.2020
     80  C         45.8200   65.3130  -16.4740 C.2   216  SER216      0.2618
     81  O         45.6500   65.1710  -17.6850 O.2   216  SER216     -0.2717
     82  CB        47.2520   63.5920  -15.3080 C.3   216  SER216      0.2103
     83  OG        48.3670   63.4950  -14.4590 O.3   216  SER216     -0.2182
     84  N         44.8500   65.7390  -15.6750 N.am  217  HIS217     -0.1975
     85  CA        43.5100   65.9650  -16.2400 C.3   217  HIS217      0.1656
     86  C         43.4040   67.1880  -17.0460 C.2   217  HIS217      0.2291
     87  O         42.6840   67.2090  -18.0410 O.2   217  HIS217     -0.2864
     88  CB        42.4160   65.9540  -15.1900 C.3   217  HIS217      0.0771
     89  CG        41.7190   64.6470  -15.0980 C.ar  217  HIS217      0.0820
     90  ND1       40.5750   64.3980  -15.7540 N.ar  217  HIS217     -0.2267
     91  CD2       42.0700   63.4720  -14.4380 C.ar  217  HIS217      0.1154
     92  CE1       40.1890   63.1310  -15.5060 C.ar  217  HIS217      0.1986
     93  NE2       41.1100   62.5610  -14.7030 N.ar  217  HIS217     -0.2212
     94  N         50.2560   63.0260  -17.0250 N.3   240  THR240     -0.1218
     95  CA        50.0810   61.9810  -18.0160 C.3   240  THR240      0.1862
     96  C         50.0700   62.6630  -19.3860 C.2   240  THR240      0.2287
     97  O         49.5490   63.7400  -19.5330 O.2   240  THR240     -0.2866
     98  CB        48.7490   61.2420  -17.8250 C.3   240  THR240      0.1770
     99  OG1       47.6640   62.1770  -17.9280 O.3   240  THR240     -0.2211
    100  CG2       48.6770   60.5800  -16.4690 C.3   240  THR240      0.0375
    101  N         48.6580   61.1970  -21.8460 N.3   242  HIS242     -0.1226
    102  CA        47.3500   60.8450  -22.3520 C.3   242  HIS242      0.1752
    103  C         46.2810   61.6820  -21.7270 C.2   242  HIS242      0.2595
    104  O         46.5680   62.7440  -21.1740 O.2   242  HIS242     -0.2718
    105  CB        47.0660   59.3720  -22.2380 C.3   242  HIS242      0.0759
    106  CG        47.3960   58.7660  -20.9090 C.ar  242  HIS242      0.0818
    107  ND1       48.6090   58.8550  -20.3440 N.ar  242  HIS242     -0.2268
    108  CD2       46.6310   57.9700  -20.0620 C.ar  242  HIS242      0.1154
    109  CE1       48.6140   58.1890  -19.1670 C.ar  242  HIS242      0.1986
    110  NE2       47.4010   57.6460  -18.9970 N.ar  242  HIS242     -0.2212
    111  N         45.0270   61.2450  -21.8160 N.am  243  LYS243     -0.1980
    112  CA        43.8940   62.0700  -21.3710 C.3   243  LYS243      0.1596
    113  C         43.8730   63.3280  -22.2020 C.2   243  LYS243      0.2287
    114  O         43.9670   63.2520  -23.4230 O.2   243  LYS243     -0.2864
    115  CB        44.0030   62.4000  -19.8900 C.3   243  LYS243      0.0298
    116  CG        44.3430   61.1790  -19.0760 C.3   243  LYS243      0.0038
    117  CD        44.4170   61.4400  -17.5970 C.3   243  LYS243      0.0206
    118  CE        44.4490   60.0810  -16.9130 C.3   243  LYS243      0.1093
    119  NZ        44.7550   60.1210  -15.4510 N.3   243  LYS243     -0.1314
    120  N         50.0320   56.6810  -23.8470 N.3   249  ARG249     -0.1245
    121  CA        49.9880   56.4930  -22.3980 C.3   249  ARG249      0.1563
    122  C         51.4130   56.5220  -21.9300 C.2   249  ARG249      0.2260
    123  O         52.1680   55.5810  -22.2010 O.2   249  ARG249     -0.2867
    124  CB        49.3810   55.1510  -22.0290 C.3   249  ARG249      0.0307
    125  CG        47.8800   55.2060  -22.0450 C.3   249  ARG249      0.0489
    126  CD        47.2290   53.9510  -21.5130 C.3   249  ARG249      0.2205
    127  NE        45.8480   54.0660  -21.8990 N.pl3 249  ARG249     -0.0865
    128  CZ        44.9120   54.5310  -21.0940 C.cat 249  ARG249      0.5346
    129  NH1       45.2230   54.8430  -19.8340 N.pl3 249  ARG249      0.1354
    130  NH2       43.6640   54.6510  -21.5470 N.pl3 249  ARG249      0.1354
@<TRIPOS>BOND
     1   120   121    1
     2   114   113    2
     3   121   124    1
     4   121   122    1
     5   102   105    1
     6   102   101    1
     7   102   103    1
     8   105   106    1
     9   113   112    1
    10   123   122    2
    11   125   124    1
    12   125   126    1
    13   127   126    1
    14   127   128    2
    15   111   103   am
    16   111   112    1
    17   103   104    2
    18   130   128    1
    19   112   115    1
    20   128   129    1
    21   106   107   ar
    22   106   108   ar
    23   107   109   ar
    24     4     3    2
    25     3     2    1
    26   108   110   ar
    27   115   116    1
    28    97    96    2
    29    96    95    1
    30   109   110   ar
    31   116   117    1
    32     2     1    1
    33     2     5    1
    34    87    86    2
    35    95    98    1
    36    95    94    1
    37    99    98    1
    38    98   100    1
    39    81    80    2
    40    12    11    1
    41   117   118    1
    42     5     6    1
    43    86    85    1
    44     7     8    1
    45   118   119    1
    46     8    11    1
    47     8     9    1
    48    80    79    1
    49    80    84   am
    50    85    84    1
    51    85    88    1
    52    79    82    1
    53    79    78    1
    54    90    92   ar
    55    90    89   ar
    56     9    13   am
    57     9    10    2
    58    92    93   ar
    59    13    14    1
    60    82    83    1
    61    88    89    1
    62    89    91   ar
    63    93    91   ar
    64    14    15    1
    65    15    17   am
    66    15    16    2
    67    17    18    1
    68    66    65    2
    69    76    75   ar
    70    72    73    2
    71    72    71    1
    72    22    21    1
    73    54    53    2
    74    18    21    1
    75    18    19    1
    76    65    64    1
    77    19    20    2
    78    75    77   ar
    79    75    74    1
    80    69    67    1
    81    71    74    1
    82    71    70    1
    83    64    67    1
    84    64    63    1
    85    40    39   ar
    86    40    38   ar
    87    23    24    1
    88    53    63   am
    89    53    52    1
    90    68    67    1
    91    39    37   ar
    92    38    36   ar
    93    29    28    2
    94    51    52    1
    95    28    30   am
    96    28    27    1
    97    37    36   ar
    98    36    35    1
    99    24    27    1
   100    24    25    1
   101    52    55    1
   102    35    32    1
   103    55    56    1
   104    25    26    2
   105    50    49   ar
   106    50    48   ar
   107    58    56   ar
   108    58    60   ar
   109    49    47   ar
   110    56    57   ar
   111    32    31    1
   112    32    33    1
   113    60    61   ar
   114    48    46   ar
   115    33    34    2
   116    47    46   ar
   117    57    59   ar
   118    46    45    1
   119    61    59   ar
   120    61    62    1
   121    41    42    1
   122    45    42    1
   123    42    43    1
   124    43    44    2
