@<TRIPOS>MOLECULE
tmp/4o70A00.pdb
 158 152 0 0 0
SMALL
GASTEIGER

@<TRIPOS>ATOM
      1  N         20.9870  -27.5450  -23.0240 N.3    40  TRP40      -0.1228
      2  CA        20.6060  -28.9500  -22.8930 C.3    40  TRP40       0.1722
      3  C         21.5620  -29.8110  -21.9960 C.2    40  TRP40       0.2437
      4  O         21.0600  -30.6440  -21.2630 O.2    40  TRP40      -0.2733
      5  CB        20.3360  -29.6090  -24.2630 C.3    40  TRP40       0.0563
      6  CG        21.4850  -29.5700  -25.2240 C.ar   40  TRP40       0.0003
      7  CD1       21.8410  -28.5180  -26.0420 C.ar   40  TRP40       0.0946
      8  CD2       22.4200  -30.6260  -25.4930 C.ar   40  TRP40       0.0152
      9  NE1       22.9900  -28.8470  -26.7520 N.ar   40  TRP40      -0.2442
     10  CE2       23.3500  -30.1340  -26.4360 C.ar   40  TRP40       0.0810
     11  CE3       22.5880  -31.9200  -24.9960 C.ar   40  TRP40       0.0012
     12  CZ2       24.4080  -30.9380  -26.9440 C.ar   40  TRP40       0.0191
     13  CZ3       23.6510  -32.6760  -25.4480 C.ar   40  TRP40       0.0001
     14  CH2       24.5130  -32.1950  -26.4410 C.ar   40  TRP40       0.0015
     15  N         22.9180  -29.5860  -21.9910 N.am   41  PRO41      -0.2718
     16  CA        23.7070  -30.4660  -21.1140 C.3    41  PRO41       0.1535
     17  C         23.5370  -30.1370  -19.6500 C.2    41  PRO41       0.2598
     18  O         23.9730  -30.9220  -18.8230 O.2    41  PRO41      -0.2715
     19  CB        25.1610  -30.1280  -21.5010 C.3    41  PRO41       0.0310
     20  CG        25.0540  -29.6100  -22.8980 C.3    41  PRO41       0.0237
     21  CD        23.8030  -28.7980  -22.8660 C.3    41  PRO41       0.0939
     22  N         22.8970  -29.0080  -19.3650 N.am   42  PHE42      -0.1974
     23  CA        22.7720  -28.4710  -17.9970 C.3    42  PHE42       0.1639
     24  C         21.3430  -28.6160  -17.4470 C.2    42  PHE42       0.2290
     25  O         21.0360  -28.1830  -16.3280 O.2    42  PHE42      -0.2864
     26  CB        23.1620  -26.9700  -17.9930 C.3    42  PHE42       0.0560
     27  CG        24.5430  -26.7270  -18.5390 C.ar   42  PHE42      -0.0200
     28  CD1       24.7360  -26.5480  -19.9270 C.ar   42  PHE42      -0.0042
     29  CD2       25.6530  -26.8070  -17.7170 C.ar   42  PHE42      -0.0042
     30  CE1       26.0220  -26.3840  -20.4340 C.ar   42  PHE42      -0.0003
     31  CE2       26.9190  -26.6640  -18.2570 C.ar   42  PHE42      -0.0003
     32  CZ        27.1200  -26.4610  -19.5730 C.ar   42  PHE42      -0.0000
     33  N         19.7660  -31.4130  -16.6080 N.3    44  GLN44      -0.1245
     34  CA        19.6410  -32.5430  -15.6980 C.3    44  GLN44       0.1566
     35  C         20.9830  -32.8940  -15.1150 C.2    44  GLN44       0.2260
     36  O         22.0380  -32.4400  -15.6250 O.2    44  GLN44      -0.2867
     37  CB        19.0880  -33.7420  -16.4390 C.3    44  GLN44       0.0367
     38  CG        19.9650  -34.2150  -17.6150 C.3    44  GLN44       0.0905
     39  CD        19.9600  -33.2780  -18.8420 C.2    44  GLN44       0.2608
     40  OE1       18.9010  -32.9610  -19.3930 O.2    44  GLN44      -0.2717
     41  NE2       21.1610  -32.8710  -19.3060 N.am   44  GLN44      -0.0878
     42  N         24.4050  -34.6570  -14.3200 N.3    46  VAL46      -0.1245
     43  CA        25.3410  -35.4530  -15.1040 C.3    46  VAL46       0.1561
     44  C         25.1980  -36.9330  -14.7950 C.2    46  VAL46       0.2260
     45  O         25.3370  -37.3710  -13.6640 O.2    46  VAL46      -0.2867
     46  CB        26.7540  -35.0170  -14.8270 C.3    46  VAL46       0.0252
     47  CG1       27.7510  -35.9440  -15.5190 C.3    46  VAL46       0.0019
     48  CG2       26.9370  -33.5760  -15.2730 C.3    46  VAL46       0.0019
     49  N         27.2120  -41.6380  -19.6640 N.3    51  LEU51      -0.1245
     50  CA        28.1370  -40.8040  -20.4110 C.3    51  LEU51       0.1561
     51  C         29.5810  -41.2900  -20.5130 C.2    51  LEU51       0.2260
     52  O         30.2860  -40.8600  -21.3770 O.2    51  LEU51      -0.2867
     53  CB        28.1040  -39.3550  -19.8890 C.3    51  LEU51       0.0270
     54  CG        26.8210  -38.5730  -20.1520 C.3    51  LEU51       0.0019
     55  CD1       26.8830  -37.1940  -19.4960 C.3    51  LEU51       0.0001
     56  CD2       26.5010  -38.4710  -21.6650 C.3    51  LEU51       0.0001
     57  N         32.0800  -40.7410  -18.1560 N.3    53  LEU53      -0.1245
     58  CA        32.9510  -39.7600  -17.5480 C.3    53  LEU53       0.1561
     59  C         33.4230  -40.2530  -16.1430 C.2    53  LEU53       0.2260
     60  O         33.4290  -39.4620  -15.2480 O.2    53  LEU53      -0.2867
     61  CB        32.2130  -38.4090  -17.3870 C.3    53  LEU53       0.0270
     62  CG        31.3250  -37.7770  -18.4880 C.3    53  LEU53       0.0019
     63  CD1       30.3040  -36.8630  -17.8460 C.3    53  LEU53       0.0001
     64  CD2       32.0990  -36.9750  -19.5180 C.3    53  LEU53       0.0001
     65  N         33.9510  -38.4300  -12.7490 N.3    56  TYR56      -0.1241
     66  CA        33.1700  -37.1940  -12.5990 C.3    56  TYR56       0.1605
     67  C         32.8130  -36.8980  -11.1230 C.2    56  TYR56       0.2264
     68  O         33.0720  -35.8020  -10.5910 O.2    56  TYR56      -0.2867
     69  CB        31.8820  -37.2270  -13.4290 C.3    56  TYR56       0.0534
     70  CG        31.1730  -35.9120  -13.3720 C.ar   56  TYR56      -0.0201
     71  CD1       31.5140  -34.8910  -14.2370 C.ar   56  TYR56      -0.0009
     72  CD2       30.1950  -35.6740  -12.4080 C.ar   56  TYR56      -0.0009
     73  CE1       30.8720  -33.6450  -14.1740 C.ar   56  TYR56       0.0417
     74  CE2       29.5480  -34.4460  -12.3100 C.ar   56  TYR56       0.0417
     75  CZ        29.9010  -33.4400  -13.1970 C.ar   56  TYR56       0.1957
     76  OH        29.3290  -32.2240  -13.1070 O.3    56  TYR56      -0.2866
     77  N         25.3600  -29.8720   -9.4140 N.3    64  MET64      -0.1245
     78  CA        24.1760  -29.0350   -9.5310 C.3    64  MET64       0.1570
     79  C         23.8410  -28.8850  -10.9980 C.2    64  MET64       0.2261
     80  O         24.7070  -28.9490  -11.8500 O.2    64  MET64      -0.2867
     81  CB        24.3760  -27.6720   -8.8400 C.3    64  MET64       0.0387
     82  CG        23.2290  -26.7640   -8.8620 C.3    64  MET64       0.0595
     83  SD        21.7520  -27.5190   -8.0520 S.3    64  MET64      -0.1393
     84  CE        22.3260  -28.2010   -6.4750 C.3    64  MET64       0.0692
     85  N         26.8210  -24.7780  -10.6030 N.3    91  MET91      -0.1245
     86  CA        26.6930  -25.4620  -11.8870 C.3    91  MET91       0.1570
     87  C         27.7640  -25.0070  -12.8940 C.2    91  MET91       0.2261
     88  O         28.4380  -25.8310  -13.5400 O.2    91  MET91      -0.2867
     89  CB        25.2980  -25.2000  -12.4370 C.3    91  MET91       0.0387
     90  CG        25.0470  -25.8790  -13.7840 C.3    91  MET91       0.0595
     91  SD        23.3820  -25.5140  -14.3570 S.3    91  MET91      -0.1393
     92  CE        23.7020  -23.9030  -15.0750 C.3    91  MET91       0.0692
     93  N         31.2880  -26.0310  -11.6690 N.3    94  ASN94      -0.1225
     94  CA        31.5280  -27.4550  -11.8070 C.3    94  ASN94       0.1785
     95  C         31.9310  -27.8240  -13.2180 C.2    94  ASN94       0.2597
     96  O         32.6600  -28.7770  -13.4190 O.2    94  ASN94      -0.2718
     97  CB        30.2450  -28.2320  -11.4970 C.3    94  ASN94       0.1169
     98  CG        29.9100  -28.2960  -10.0220 C.2    94  ASN94       0.2627
     99  OD1       30.7700  -28.0820   -9.1610 O.2    94  ASN94      -0.2716
    100  ND2       28.6620  -28.7450   -9.7280 N.am   94  ASN94      -0.0877
    101  N         31.4140  -27.1040  -14.2100 N.am   95  CYS95      -0.1970
    102  CA        31.7550  -27.3930  -15.5820 C.3    95  CYS95       0.1712
    103  C         33.2270  -26.9810  -15.8120 C.2    95  CYS95       0.2296
    104  O         34.0320  -27.7350  -16.4260 O.2    95  CYS95      -0.2864
    105  CB        30.8140  -26.6180  -16.5050 C.3    95  CYS95       0.0983
    106  SG        31.0490  -27.0270  -18.2330 S.3    95  CYS95      -0.0798
    107  N         35.5360  -29.6640  -13.8200 N.3    98  TYR98      -0.1227
    108  CA        35.7220  -30.9860  -14.4170 C.3    98  TYR98       0.1736
    109  C         36.4910  -30.9530  -15.7160 C.2    98  TYR98       0.2595
    110  O         37.3560  -31.8200  -15.9770 O.2    98  TYR98      -0.2718
    111  CB        34.3710  -31.7050  -14.5830 C.3    98  TYR98       0.0548
    112  CG        34.5490  -33.0520  -15.1170 C.ar   98  TYR98      -0.0200
    113  CD1       35.1150  -34.0650  -14.3340 C.ar   98  TYR98      -0.0009
    114  CD2       34.1800  -33.3410  -16.4090 C.ar   98  TYR98      -0.0009
    115  CE1       35.3130  -35.3460  -14.8600 C.ar   98  TYR98       0.0417
    116  CE2       34.3940  -34.6330  -16.9580 C.ar   98  TYR98       0.0417
    117  CZ        34.9470  -35.6180  -16.1830 C.ar   98  TYR98       0.1957
    118  OH        35.1980  -36.9190  -16.6640 O.3    98  TYR98      -0.2866
    119  N         36.2610  -29.9040  -16.4800 N.am   99  ASN99      -0.1974
    120  CA        36.8370  -29.7780  -17.8050 C.3    99  ASN99       0.1688
    121  C         38.0610  -28.8630  -17.8030 C.2    99  ASN99       0.2292
    122  O         38.5850  -28.5780  -16.7540 O.2    99  ASN99      -0.2864
    123  CB        35.7370  -29.4080  -18.7890 C.3    99  ASN99       0.1181
    124  CG        34.5960  -30.4220  -18.7480 C.2    99  ASN99       0.2629
    125  OD1       34.7540  -31.5250  -19.2670 O.2    99  ASN99      -0.2716
    126  ND2       33.4490  -30.0480  -18.1670 N.am   99  ASN99      -0.0877
    127  N         37.5730  -26.1480  -23.7420 N.3   103  ASP103     -0.1225
    128  CA        36.7430  -27.2860  -24.1050 C.3   103  ASP103      0.1805
    129  C         35.3980  -26.7870  -24.5970 C.2   103  ASP103      0.2598
    130  O         34.8900  -25.7940  -24.0790 O.2   103  ASP103     -0.2718
    131  CB        36.5120  -28.1780  -22.9050 C.3   103  ASP103      0.1424
    132  CG        37.6910  -29.0720  -22.6040 C.2   103  ASP103      0.3668
    133  OD1       38.6110  -29.2550  -23.4650 O.co2 103  ASP103     -0.2456
    134  OD2       37.6840  -29.6650  -21.5140 O.co2 103  ASP103     -0.2456
    135  N         34.7990  -27.4850  -25.5510 N.am  104  ASP104     -0.1960
    136  CA        33.4790  -27.0810  -26.0560 C.3   104  ASP104      0.1840
    137  C         32.4150  -26.8950  -24.9750 C.2   104  ASP104      0.2621
    138  O         31.6670  -25.9230  -25.0070 O.2   104  ASP104     -0.2715
    139  CB        32.9960  -28.0580  -27.1250 C.3   104  ASP104      0.1450
    140  CG        33.6240  -27.7870  -28.4800 C.2   104  ASP104      0.3671
    141  OD1       34.1560  -26.6810  -28.6680 O.co2 104  ASP104     -0.2456
    142  OD2       33.5840  -28.6610  -29.3710 O.co2 104  ASP104     -0.2456
    143  N         32.3690  -27.8070  -24.0080 N.am  105  ILE105     -0.1977
    144  CA        31.3540  -27.7230  -22.9650 C.3   105  ILE105      0.1596
    145  C         31.5860  -26.4940  -22.0570 C.2   105  ILE105      0.2287
    146  O         30.6420  -25.8250  -21.6350 O.2   105  ILE105     -0.2864
    147  CB        31.2610  -29.0240  -22.1350 C.3   105  ILE105      0.0276
    148  CG1       30.0390  -29.0030  -21.2130 C.3   105  ILE105      0.0022
    149  CG2       32.5060  -29.2620  -21.3440 C.3   105  ILE105      0.0022
    150  CD1       28.7000  -29.1320  -21.9620 C.3   105  ILE105      0.0001
    151  N         30.3150  -23.5400  -23.8340 N.3   108  MET108     -0.1245
    152  CA        28.8460  -23.4850  -23.6440 C.3   108  MET108      0.1570
    153  C         28.4650  -22.9360  -22.2690 C.2   108  MET108      0.2261
    154  O         27.5970  -22.0560  -22.1450 O.2   108  MET108     -0.2867
    155  CB        28.2370  -24.8680  -23.8170 C.3   108  MET108      0.0387
    156  CG        28.4290  -25.4510  -25.2270 C.3   108  MET108      0.0595
    157  SD        27.9320  -27.1650  -25.4250 S.3   108  MET108     -0.1393
    158  CE        26.1980  -26.9950  -25.5110 C.3   108  MET108      0.0692
@<TRIPOS>BOND
     1   142   140   ar
     2   141   140   ar
     3   140   139    1
     4   139   136    1
     5    12    14   ar
     6    12    10   ar
     7     9    10   ar
     8     9     7   ar
     9    14    13   ar
    10    10     8   ar
    11   136   135    1
    12   136   137    1
    13     7     6   ar
    14   135   129   am
    15   158   157    1
    16     8     6   ar
    17     8    11   ar
    18    13    11   ar
    19   157   156    1
    20   156   155    1
    21     6     5    1
    22   138   137    2
    23   137   143   am
    24   129   128    1
    25   129   130    2
    26     5     2    1
    27   128   127    1
    28   128   131    1
    29   143   144    1
    30   151   152    1
    31   155   152    1
    32   152   153    1
    33   133   132   ar
    34     1     2    1
    35   144   147    1
    36   144   145    1
    37   131   132    1
    38    20    21    1
    39    20    19    1
    40     2     3    1
    41    21    15    1
    42   132   134   ar
    43   153   154    2
    44   147   149    1
    45   147   148    1
    46   145   146    2
    47     3    15   am
    48     3     4    2
    49    15    16    1
    50   150   148    1
    51    56    54    1
    52    19    16    1
    53    52    51    2
    54    16    17    1
    55    51    50    1
    56    30    28   ar
    57    30    32   ar
    58    50    53    1
    59    50    49    1
    60    54    53    1
    61    54    55    1
    62    28    27   ar
    63    17    22   am
    64    17    18    2
    65    32    31   ar
    66    64    62    1
    67    40    39    2
    68    22    23    1
    69    41    39   am
    70   125   124    2
    71    39    38    1
    72   123   124    1
    73   123   120    1
    74   124   126   am
    75    27    26    1
    76    27    29   ar
    77    62    63    1
    78    62    61    1
    79    31    29   ar
    80   106   105    1
    81    57    58    1
    82    23    26    1
    83    23    24    1
    84   120   121    1
    85   120   119    1
    86   121   122    2
    87    38    37    1
    88    58    61    1
    89    58    59    1
    90    24    25    2
    91   116   114   ar
    92   116   117   ar
    93   118   117    1
    94    33    34    1
    95   105   102    1
    96   119   109   am
    97    37    34    1
    98   104   103    2
    99   114   112   ar
   100   117   115   ar
   101    59    60    2
   102   110   109    2
   103   103   102    1
   104   109   108    1
   105    34    35    1
   106    36    35    2
   107   102   101    1
   108    47    46    1
   109    48    46    1
   110   112   111    1
   111   112   113   ar
   112    43    46    1
   113    43    44    1
   114    43    42    1
   115    92    91    1
   116   115   113   ar
   117    44    45    2
   118   111   108    1
   119   108   107    1
   120    91    90    1
   121    71    73   ar
   122    71    70   ar
   123   101    95   am
   124    73    75   ar
   125    90    89    1
   126    88    87    2
   127    69    70    1
   128    69    66    1
   129    96    95    2
   130    70    72   ar
   131    95    94    1
   132    75    76    1
   133    75    74   ar
   134    87    86    1
   135    65    66    1
   136    66    67    1
   137    89    86    1
   138    72    74   ar
   139    86    85    1
   140    80    79    2
   141    94    93    1
   142    94    97    1
   143    97    98    1
   144    67    68    2
   145    79    78    1
   146    98   100   am
   147    98    99    2
   148    78    77    1
   149    78    81    1
   150    82    81    1
   151    82    83    1
   152    83    84    1
