@<TRIPOS>MOLECULE
tmp/4o71B01.pdb
 133 131 0 0 0
SMALL
GASTEIGER

@<TRIPOS>ATOM
      1  N         22.6350   91.2110   22.9720 N.3    40  TRP40      -0.1228
      2  CA        21.2310   90.8760   22.7380 C.3    40  TRP40       0.1722
      3  C         20.4860   91.8010   21.7730 C.2    40  TRP40       0.2437
      4  O         19.7530   91.2960   20.9250 O.2    40  TRP40      -0.2733
      5  CB        20.4870   90.6900   24.0780 C.3    40  TRP40       0.0563
      6  CG        18.9940   90.6180   24.0080 C.ar   40  TRP40       0.0003
      7  CD1       18.1250   91.5470   24.4880 C.ar   40  TRP40       0.0946
      8  CD2       18.1900   89.5690   23.4440 C.ar   40  TRP40       0.0152
      9  NE1       16.8300   91.1440   24.2730 N.ar   40  TRP40      -0.2442
     10  CE2       16.8420   89.9410   23.6190 C.ar   40  TRP40       0.0810
     11  CE3       18.4760   88.3610   22.8090 C.ar   40  TRP40       0.0012
     12  CZ2       15.7890   89.1430   23.1990 C.ar   40  TRP40       0.0191
     13  CZ3       17.4240   87.5730   22.3790 C.ar   40  TRP40       0.0001
     14  CH2       16.0990   87.9700   22.5700 C.ar   40  TRP40       0.0015
     15  N         20.6960   93.1340   21.8510 N.am   41  PRO41      -0.2718
     16  CA        19.9700   94.0150   20.9220 C.3    41  PRO41       0.1535
     17  C         20.3530   93.8040   19.4630 C.2    41  PRO41       0.2598
     18  O         19.6240   94.2610   18.5890 O.2    41  PRO41      -0.2715
     19  CB        20.3820   95.4240   21.3740 C.3    41  PRO41       0.0310
     20  CG        20.7920   95.2500   22.8080 C.3    41  PRO41       0.0237
     21  CD        21.4780   93.9140   22.8260 C.3    41  PRO41       0.0939
     22  N         21.4780   93.1430   19.2250 N.am   42  PHE42      -0.1974
     23  CA        22.0880   93.0140   17.9040 C.3    42  PHE42       0.1639
     24  C         22.0440   91.5790   17.3790 C.2    42  PHE42       0.2290
     25  O         22.6100   91.2950   16.3140 O.2    42  PHE42      -0.2864
     26  CB        23.5320   93.5190   17.9930 C.3    42  PHE42       0.0560
     27  CG        23.6220   94.9080   18.5530 C.ar   42  PHE42      -0.0200
     28  CD1       23.2470   96.0060   17.7950 C.ar   42  PHE42      -0.0042
     29  CD2       23.9930   95.1160   19.8740 C.ar   42  PHE42      -0.0042
     30  CE1       23.2770   97.2860   18.3250 C.ar   42  PHE42      -0.0003
     31  CE2       24.0240   96.4070   20.4070 C.ar   42  PHE42      -0.0003
     32  CZ        23.6590   97.4850   19.6330 C.ar   42  PHE42      -0.0000
     33  N         19.3610   89.8840   16.3580 N.3    44  GLN44      -0.1231
     34  CA        18.3070   89.7040   15.3710 C.3    44  GLN44       0.1683
     35  C         17.9710   91.0580   14.7750 C.2    44  GLN44       0.2434
     36  O         18.3570   92.0930   15.3250 O.2    44  GLN44      -0.2733
     37  CB        17.0630   89.0880   16.0210 C.3    44  GLN44       0.0380
     38  CG        16.4740   89.8890   17.1790 C.3    44  GLN44       0.0905
     39  CD        17.3300   89.8180   18.4310 C.2    44  GLN44       0.2608
     40  OE1       17.6720   88.7280   18.8860 O.2    44  GLN44      -0.2717
     41  NE2       17.7000   90.9900   18.9800 N.am   44  GLN44      -0.0878
     42  N         17.2690   91.0750   13.6360 N.am   45  PRO45      -0.2718
     43  CA        16.8820   92.3600   13.0400 C.3    45  PRO45       0.1535
     44  C         16.1450   93.2430   14.0490 C.2    45  PRO45       0.2598
     45  O         15.3970   92.7390   14.8840 O.2    45  PRO45      -0.2715
     46  CB        15.9530   91.9460   11.8910 C.3    45  PRO45       0.0310
     47  CG        16.4760   90.5780   11.4950 C.3    45  PRO45       0.0237
     48  CD        16.8510   89.9300   12.8110 C.3    45  PRO45       0.0939
     49  N         16.3560   94.5480   13.9660 N.am   46  VAL46      -0.1964
     50  CA        15.6220   95.4750   14.8060 C.3    46  VAL46       0.1727
     51  C         14.1240   95.3460   14.5300 C.2    46  VAL46       0.2616
     52  O         13.6590   95.5490   13.4030 O.2    46  VAL46      -0.2715
     53  CB        16.1240   96.9180   14.5800 C.3    46  VAL46       0.0290
     54  CG1       15.2240   97.9730   15.2500 C.3    46  VAL46       0.0023
     55  CG2       17.5770   97.0290   15.0190 C.3    46  VAL46       0.0023
     56  N         13.3720   95.0140   15.5690 N.am   47  ASP47      -0.1971
     57  CA        11.9330   94.9090   15.4770 C.3    47  ASP47       0.1709
     58  C         11.3950   96.2560   15.9020 C.2    47  ASP47       0.2293
     59  O         11.1340   96.5140   17.0810 O.2    47  ASP47      -0.2864
     60  CB        11.4200   93.7800   16.3790 C.3    47  ASP47       0.1436
     61  CG         9.9350   93.5500   16.2470 C.2    47  ASP47       0.3671
     62  OD1        9.2250   94.4650   15.7960 O.co2  47  ASP47      -0.2456
     63  OD2        9.4750   92.4440   16.6230 O.co2  47  ASP47      -0.2456
     64  N          9.7700   97.4800   19.5060 N.3    51  LEU51      -0.1245
     65  CA        10.5920   98.4490   20.2380 C.3    51  LEU51       0.1561
     66  C         10.0100   99.8600   20.2240 C.2    51  LEU51       0.2260
     67  O         10.5580  100.7710   20.8440 O.2    51  LEU51      -0.2867
     68  CB        11.9940   98.4950   19.6350 C.3    51  LEU51       0.0270
     69  CG        12.8080   97.2170   19.7860 C.3    51  LEU51       0.0019
     70  CD1       14.0150   97.2450   18.8690 C.3    51  LEU51       0.0001
     71  CD2       13.2260   97.0010   21.2350 C.3    51  LEU51       0.0001
     72  N          9.8670  102.0520   17.6340 N.3    53  LEU53      -0.1245
     73  CA        10.7440  102.9340   16.8840 C.3    53  LEU53       0.1561
     74  C         10.1430  103.1000   15.4800 C.2    53  LEU53       0.2260
     75  O         10.6740  102.5700   14.5060 O.2    53  LEU53      -0.2867
     76  CB        12.1440  102.3220   16.7790 C.3    53  LEU53       0.0270
     77  CG        12.8280  101.9000   18.0850 C.3    53  LEU53       0.0019
     78  CD1       14.1120  101.1250   17.7990 C.3    53  LEU53       0.0001
     79  CD2       13.1160  103.1140   18.9620 C.3    53  LEU53       0.0001
     80  N         12.3850  103.9230   12.3970 N.3    56  TYR56      -0.1241
     81  CA        13.6710  103.2570   12.2590 C.3    56  TYR56       0.1605
     82  C         13.9820  102.9350   10.7970 C.2    56  TYR56       0.2264
     83  O         15.0610  103.2420   10.3110 O.2    56  TYR56      -0.2867
     84  CB        13.7370  101.9800   13.1170 C.3    56  TYR56       0.0534
     85  CG        15.1200  101.3540   13.1130 C.ar   56  TYR56      -0.0201
     86  CD1       16.0960  101.7860   14.0150 C.ar   56  TYR56      -0.0009
     87  CD2       15.4710  100.3840   12.1730 C.ar   56  TYR56      -0.0009
     88  CE1       17.3810  101.2510   14.0040 C.ar   56  TYR56       0.0417
     89  CE2       16.7370   99.8370   12.1560 C.ar   56  TYR56       0.0417
     90  CZ        17.6860  100.2760   13.0640 C.ar   56  TYR56       0.1957
     91  OH        18.9500   99.7550   13.0140 O.3    56  TYR56      -0.2866
     92  N         23.2870  101.7130   14.1500 N.3    95  CYS95      -0.1235
     93  CA        22.9700  102.1170   15.5110 C.3    95  CYS95       0.1677
     94  C         23.4420  103.5490   15.7630 C.2    95  CYS95       0.2270
     95  O         22.7240  104.3550   16.3670 O.2    95  CYS95      -0.2867
     96  CB        23.6310  101.1610   16.4930 C.3    95  CYS95       0.0956
     97  SG        23.1740  101.3940   18.2130 S.3    95  CYS95      -0.0801
     98  N         21.1040  106.1760   13.8740 N.3    98  TYR98      -0.1227
     99  CA        19.7560  106.3250   14.4120 C.3    98  TYR98       0.1736
    100  C         19.7350  107.0440   15.7750 C.2    98  TYR98       0.2595
    101  O         18.7600  107.6930   16.1130 O.2    98  TYR98      -0.2718
    102  CB        19.0590  104.9480   14.5000 C.3    98  TYR98       0.0548
    103  CG        17.6200  105.0740   14.9230 C.ar   98  TYR98      -0.0200
    104  CD1       16.6680  105.5830   14.0550 C.ar   98  TYR98      -0.0009
    105  CD2       17.2090  104.7050   16.1960 C.ar   98  TYR98      -0.0009
    106  CE1       15.3510  105.7470   14.4530 C.ar   98  TYR98       0.0417
    107  CE2       15.9040  104.8560   16.5970 C.ar   98  TYR98       0.0417
    108  CZ        14.9780  105.3760   15.7270 C.ar   98  TYR98       0.1957
    109  OH        13.6700  105.5220   16.1370 O.3    98  TYR98      -0.2866
    110  N         20.8170  106.9300   16.5330 N.am   99  ASN99      -0.1974
    111  CA        20.8490  107.3480   17.9430 C.3    99  ASN99       0.1688
    112  C         21.8360  108.5080   18.1970 C.2    99  ASN99       0.2292
    113  O         22.4660  108.9940   17.2860 O.2    99  ASN99      -0.2864
    114  CB        21.1830  106.1190   18.7960 C.3    99  ASN99       0.1181
    115  CG        20.1090  105.0490   18.7040 C.2    99  ASN99       0.2629
    116  OD1       19.0090  105.2370   19.2180 O.2    99  ASN99      -0.2716
    117  ND2       20.4150  103.9280   18.0530 N.am   99  ASN99      -0.0877
    118  N         22.3750  102.5410   24.1910 N.3   105  ILE105     -0.1245
    119  CA        22.3850  101.5760   23.0900 C.3   105  ILE105      0.1561
    120  C         23.5980  101.7990   22.1860 C.2   105  ILE105      0.2260
    121  O         24.2040  100.8410   21.7000 O.2   105  ILE105     -0.2867
    122  CB        21.0430  101.6010   22.2950 C.3   105  ILE105      0.0252
    123  CG1       20.9560  100.4470   21.2860 C.3   105  ILE105      0.0019
    124  CG2       20.8300  102.9330   21.5750 C.3   105  ILE105      0.0019
    125  CD1       20.8520   99.0900   21.9050 C.3   105  ILE105      0.0001
    126  N         26.6500  100.4380   23.9210 N.3   108  MET108     -0.1245
    127  CA        26.6440   98.9840   23.7650 C.3   108  MET108      0.1570
    128  C         27.2550   98.5760   22.4270 C.2   108  MET108      0.2261
    129  O         28.1380   97.7190   22.3640 O.2   108  MET108     -0.2867
    130  CB        25.2220   98.4570   23.8360 C.3   108  MET108      0.0387
    131  CG        24.6390   98.4780   25.2350 C.3   108  MET108      0.0595
    132  SD        22.9700   97.7670   25.2440 S.3   108  MET108     -0.1393
    133  CE        22.3200   98.2060   26.8190 C.3   108  MET108      0.0692
@<TRIPOS>BOND
     1    83    82    2
     2    82    81    1
     3    47    46    1
     4    47    48    1
     5    46    43    1
     6    89    87   ar
     7    89    90   ar
     8    87    85   ar
     9    81    80    1
    10    81    84    1
    11    48    42    1
    12    91    90    1
    13    43    42    1
    14    43    44    1
    15    90    88   ar
    16    85    84    1
    17    85    86   ar
    18    52    51    2
    19    42    35   am
    20    98    99    1
    21    49    44   am
    22    49    50    1
    23    88    86   ar
    24    44    45    2
    25   104   106   ar
    26   104   103   ar
    27    92    93    1
    28    99   102    1
    29    99   100    1
    30   106   108   ar
    31   102   103    1
    32    75    74    2
    33    51    50    1
    34    51    56   am
    35    53    50    1
    36    53    55    1
    37    53    54    1
    38    35    36    2
    39    35    34    1
    40   103   105   ar
    41    34    37    1
    42    34    33    1
    43    57    56    1
    44    57    58    1
    45    57    60    1
    46    74    73    1
    47    93    94    1
    48    93    96    1
    49   108   109    1
    50   108   107   ar
    51    94    95    2
    52   100   101    2
    53   100   110   am
    54    62    61   ar
    55    58    59    2
    56    37    38    1
    57   105   107   ar
    58    61    60    1
    59    61    63   ar
    60    25    24    2
    61    96    97    1
    62   110   111    1
    63    76    73    1
    64    76    77    1
    65    73    72    1
    66    38    39    1
    67   113   112    2
    68    24    23    1
    69    28    30   ar
    70    28    27   ar
    71    78    77    1
    72    23    26    1
    73    23    22    1
    74   111   112    1
    75   111   114    1
    76    26    27    1
    77   117   115   am
    78    77    79    1
    79    30    32   ar
    80    39    40    2
    81    39    41   am
    82    27    29   ar
    83    18    17    2
    84   115   114    1
    85   115   116    2
    86    70    69    1
    87    22    17   am
    88    17    16    1
    89    64    65    1
    90    32    31   ar
    91    68    69    1
    92    68    65    1
    93    69    71    1
    94    29    31   ar
    95    66    65    1
    96    66    67    2
    97    16    19    1
    98    16    15    1
    99     4     3    2
   100   123   125    1
   101   123   122    1
   102    19    20    1
   103   124   122    1
   104   121   120    2
   105     3    15   am
   106     3     2    1
   107    15    21    1
   108   120   119    1
   109   122   119    1
   110   129   128    2
   111    13    14   ar
   112    13    11   ar
   113   128   127    1
   114    14    12   ar
   115     2     1    1
   116     2     5    1
   117    20    21    1
   118    11     8   ar
   119   119   118    1
   120    12    10   ar
   121     8    10   ar
   122     8     6   ar
   123    10     9   ar
   124   127   130    1
   125   127   126    1
   126   130   131    1
   127     6     5    1
   128     6     7   ar
   129     9     7   ar
   130   131   132    1
   131   132   133    1
