@<TRIPOS>MOLECULE
tmp/4o72A00.pdb
 142 140 0 0 0
SMALL
GASTEIGER

@<TRIPOS>ATOM
      1  N        117.4760    0.3280    1.9580 N.3    40  TRP40      -0.1228
      2  CA       117.2310   -1.0010    2.5240 C.3    40  TRP40       0.1722
      3  C        118.4970   -1.8670    2.7080 C.2    40  TRP40       0.2437
      4  O        118.6020   -2.5480    3.7060 O.2    40  TRP40      -0.2733
      5  CB       116.1060   -1.7680    1.7810 C.3    40  TRP40       0.0563
      6  CG       116.4260   -2.1090    0.3780 C.ar   40  TRP40       0.0003
      7  CD1      116.0990   -1.4040   -0.7370 C.ar   40  TRP40       0.0946
      8  CD2      117.1620   -3.2470   -0.0670 C.ar   40  TRP40       0.0152
      9  NE1      116.5910   -2.0300   -1.8540 N.ar   40  TRP40      -0.2442
     10  CE2      117.2510   -3.1650   -1.4700 C.ar   40  TRP40       0.0810
     11  CE3      117.7690   -4.3260    0.5890 C.ar   40  TRP40       0.0012
     12  CZ2      117.9120   -4.1210   -2.2250 C.ar   40  TRP40       0.0191
     13  CZ3      118.4350   -5.2730   -0.1660 C.ar   40  TRP40       0.0001
     14  CH2      118.4980   -5.1640   -1.5520 C.ar   40  TRP40       0.0015
     15  N        119.4690   -1.8420    1.7730 N.am   41  PRO41      -0.2718
     16  CA       120.6310   -2.7110    2.0240 C.3    41  PRO41       0.1535
     17  C        121.4400   -2.2960    3.2420 C.2    41  PRO41       0.2598
     18  O        122.1710   -3.1080    3.7900 O.2    41  PRO41      -0.2715
     19  CB       121.4960   -2.5300    0.7640 C.3    41  PRO41       0.0310
     20  CG       120.5510   -2.0350   -0.2750 C.3    41  PRO41       0.0237
     21  CD       119.5890   -1.1460    0.4830 C.3    41  PRO41       0.0939
     22  N        121.3210   -1.0330    3.6300 N.am   42  PHE42      -0.1974
     23  CA       122.1410   -0.4530    4.6820 C.3    42  PHE42       0.1639
     24  C        121.4300   -0.4140    6.0320 C.2    42  PHE42       0.2290
     25  O        121.9570    0.1370    6.9850 O.2    42  PHE42      -0.2864
     26  CB       122.5670    0.9650    4.2490 C.3    42  PHE42       0.0560
     27  CG       123.2810    0.9660    2.9260 C.ar   42  PHE42      -0.0200
     28  CD1      124.5870    0.5560    2.8550 C.ar   42  PHE42      -0.0042
     29  CD2      122.6170    1.2750    1.7470 C.ar   42  PHE42      -0.0042
     30  CE1      125.2390    0.4750    1.6610 C.ar   42  PHE42      -0.0003
     31  CE2      123.2830    1.2180    0.5270 C.ar   42  PHE42      -0.0003
     32  CZ       124.5960    0.8010    0.4890 C.ar   42  PHE42      -0.0000
     33  N        120.7170   -2.9180    7.9830 N.3    44  GLN44      -0.1231
     34  CA       121.1470   -4.0190    8.8310 C.3    44  GLN44       0.1683
     35  C        122.5370   -4.4200    8.3900 C.2    44  GLN44       0.2434
     36  O        122.9490   -4.0750    7.2910 O.2    44  GLN44      -0.2733
     37  CB       120.1880   -5.2190    8.7050 C.3    44  GLN44       0.0380
     38  CG       120.1090   -5.8380    7.3010 C.3    44  GLN44       0.0905
     39  CD       119.3110   -4.9770    6.3280 C.2    44  GLN44       0.2608
     40  OE1      118.1520   -4.6430    6.5780 O.2    44  GLN44      -0.2717
     41  NE2      119.9310   -4.6120    5.2180 N.am   44  GLN44      -0.0878
     42  N        123.2660   -5.1660    9.2320 N.am   45  PRO45      -0.2718
     43  CA       124.5920   -5.6400    8.8260 C.3    45  PRO45       0.1535
     44  C        124.5900   -6.4550    7.5280 C.2    45  PRO45       0.2598
     45  O        123.6370   -7.1740    7.2050 O.2    45  PRO45      -0.2715
     46  CB       125.0200   -6.5240   10.0010 C.3    45  PRO45       0.0310
     47  CG       124.2950   -5.9490   11.1770 C.3    45  PRO45       0.0237
     48  CD       122.9600   -5.5220   10.6270 C.3    45  PRO45       0.0939
     49  N        125.6770   -6.3550    6.7780 N.am   46  VAL46      -0.1964
     50  CA       125.9000   -7.2500    5.6480 C.3    46  VAL46       0.1727
     51  C        125.8530   -8.6920    6.1460 C.2    46  VAL46       0.2616
     52  O        126.5200   -9.0480    7.1140 O.2    46  VAL46      -0.2715
     53  CB       127.2570   -6.9550    4.9830 C.3    46  VAL46       0.0290
     54  CG1      127.6180   -8.0350    3.9680 C.3    46  VAL46       0.0023
     55  CG2      127.2220   -5.5780    4.3400 C.3    46  VAL46       0.0023
     56  N        125.0540   -9.5120    5.4750 N.am   47  ASP47      -0.1971
     57  CA       124.9700  -10.9310    5.7870 C.3    47  ASP47       0.1709
     58  C        125.7180  -11.6990    4.7040 C.2    47  ASP47       0.2293
     59  O        125.2100  -11.9220    3.6130 O.2    47  ASP47      -0.2864
     60  CB       123.5190  -11.3880    5.9000 C.3    47  ASP47       0.1436
     61  CG       123.4000  -12.8030    6.4080 C.2    47  ASP47       0.3671
     62  OD1      124.3100  -13.6330    6.1520 O.co2  47  ASP47      -0.2456
     63  OD2      122.3860  -13.0960    7.0620 O.co2  47  ASP47      -0.2456
     64  N        124.0460  -15.1930    3.5930 N.3    50  LYS50      -0.1231
     65  CA       122.9090  -15.0730    2.6850 C.3    50  LYS50       0.1693
     66  C        123.3580  -14.6430    1.2880 C.2    50  LYS50       0.2591
     67  O        122.8110  -15.0920    0.2900 O.2    50  LYS50      -0.2718
     68  CB       121.9350  -14.0230    3.2110 C.3    50  LYS50       0.0285
     69  CG       121.1280  -14.4400    4.4040 C.3    50  LYS50       0.0035
     70  CD       120.1760  -13.3150    4.8030 C.3    50  LYS50       0.0206
     71  CE       119.1660  -13.7720    5.8400 C.3    50  LYS50       0.1093
     72  NZ       118.1240  -12.7250    6.1120 N.3    50  LYS50      -0.1314
     73  N        124.3430  -13.7500    1.2340 N.am   51  LEU51      -0.1980
     74  CA       124.7880  -13.1640   -0.0250 C.3    51  LEU51       0.1596
     75  C        125.9070  -13.9420   -0.7040 C.2    51  LEU51       0.2287
     76  O        126.3490  -13.5810   -1.7750 O.2    51  LEU51      -0.2864
     77  CB       125.2260  -11.7150    0.2050 C.3    51  LEU51       0.0297
     78  CG       124.1210  -10.7640    0.6820 C.3    51  LEU51       0.0022
     79  CD1      124.7100   -9.4480    1.1610 C.3    51  LEU51       0.0001
     80  CD2      123.1170  -10.5280   -0.4160 C.3    51  LEU51       0.0001
     81  N        129.1560  -14.2240    0.1000 N.3    53  LEU53      -0.1245
     82  CA       130.3450  -13.3870    0.0390 C.3    53  LEU53       0.1561
     83  C        131.3360  -13.8790    1.0700 C.2    53  LEU53       0.2260
     84  O        131.5770  -13.2210    2.0710 O.2    53  LEU53      -0.2867
     85  CB       129.9970  -11.9180    0.3080 C.3    53  LEU53       0.0270
     86  CG       128.8930  -11.3160   -0.5620 C.3    53  LEU53       0.0019
     87  CD1      128.5960   -9.8940   -0.1020 C.3    53  LEU53       0.0001
     88  CD2      129.2720  -11.3200   -2.0150 C.3    53  LEU53       0.0001
     89  N        133.9990  -11.5020    2.5370 N.3    56  TYR56      -0.1241
     90  CA       133.6130  -10.1540    2.9440 C.3    56  TYR56       0.1605
     91  C        134.4130   -9.6740    4.1600 C.2    56  TYR56       0.2264
     92  O        134.9470   -8.5690    4.1570 O.2    56  TYR56      -0.2867
     93  CB       132.0970  -10.0300    3.1640 C.3    56  TYR56       0.0534
     94  CG       131.6780   -8.5960    3.4500 C.ar   56  TYR56      -0.0201
     95  CD1      131.5080   -7.6670    2.4210 C.ar   56  TYR56      -0.0009
     96  CD2      131.5000   -8.1680    4.7500 C.ar   56  TYR56      -0.0009
     97  CE1      131.1680   -6.3520    2.7010 C.ar   56  TYR56       0.0417
     98  CE2      131.1520   -6.8630    5.0420 C.ar   56  TYR56       0.0417
     99  CZ       130.9870   -5.9560    4.0160 C.ar   56  TYR56       0.1957
    100  OH       130.6560   -4.6380    4.2710 O.3    56  TYR56      -0.2866
    101  N        131.6400   -0.0000    1.3710 N.3    95  CYS95      -0.1235
    102  CA       130.9810   -0.3280    0.1400 C.3    95  CYS95       0.1677
    103  C        131.8700    0.0020   -1.0600 C.2    95  CYS95       0.2270
    104  O        131.9840   -0.7940   -1.9950 O.2    95  CYS95      -0.2867
    105  CB       129.6520    0.4100    0.0860 C.3    95  CYS95       0.0956
    106  SG       128.6000   -0.0370   -1.2940 S.3    95  CYS95      -0.0801
    107  N        134.8500   -2.5950   -1.1560 N.3    98  TYR98      -0.1227
    108  CA       134.5380   -3.9820   -1.4770 C.3    98  TYR98       0.1736
    109  C        134.0790   -4.2150   -2.9270 C.2    98  TYR98       0.2595
    110  O        134.3700   -5.2560   -3.5230 O.2    98  TYR98      -0.2718
    111  CB       133.4830   -4.5440   -0.5020 C.3    98  TYR98       0.0548
    112  CG       133.2510   -6.0180   -0.7210 C.ar   98  TYR98      -0.0200
    113  CD1      134.1720   -6.9510   -0.2850 C.ar   98  TYR98      -0.0009
    114  CD2      132.1280   -6.4760   -1.3820 C.ar   98  TYR98      -0.0009
    115  CE1      133.9940   -8.3010   -0.5150 C.ar   98  TYR98       0.0417
    116  CE2      131.9350   -7.8240   -1.6170 C.ar   98  TYR98       0.0417
    117  CZ       132.8730   -8.7350   -1.1770 C.ar   98  TYR98       0.1957
    118  OH       132.6790  -10.0730   -1.4220 O.3    98  TYR98      -0.2866
    119  N        133.3650   -3.2470   -3.4840 N.am   99  ASN99      -0.1974
    120  CA       132.6730   -3.4270   -4.7640 C.3    99  ASN99       0.1688
    121  C        133.2940   -2.6410   -5.8920 C.2    99  ASN99       0.2292
    122  O        134.1010   -1.7470   -5.6800 O.2    99  ASN99      -0.2864
    123  CB       131.2150   -3.0170   -4.6030 C.3    99  ASN99       0.1181
    124  CG       130.5400   -3.8110   -3.5320 C.2    99  ASN99       0.2629
    125  OD1      130.1420   -4.9640   -3.7470 O.2    99  ASN99      -0.2716
    126  ND2      130.3800   -3.1970   -2.3720 N.am   99  ASN99      -0.0877
    127  N        128.8370   -0.4590   -9.5910 N.3   103  ASP103     -0.1239
    128  CA       127.9310   -1.5210   -9.1870 C.3   103  ASP103      0.1674
    129  C        126.7080   -0.9050   -8.5260 C.2   103  ASP103      0.2266
    130  O        126.7800    0.1580   -7.9060 O.2   103  ASP103     -0.2867
    131  CB       128.5850   -2.4670   -8.1900 C.3   103  ASP103      0.1410
    132  CG       129.5750   -3.4020   -8.8250 C.2   103  ASP103      0.3668
    133  OD1      129.6710   -3.4530  -10.0720 O.co2 103  ASP103     -0.2456
    134  OD2      130.2500   -4.0980   -8.0400 O.co2 103  ASP103     -0.2456
    135  N        125.1670   -1.5300   -5.7950 N.3   105  ILE105     -0.1245
    136  CA       125.2450   -1.2370   -4.3790 C.3   105  ILE105      0.1561
    137  C        126.0510    0.0530   -4.1340 C.2   105  ILE105      0.2260
    138  O        125.7550    0.8150   -3.2190 O.2   105  ILE105     -0.2867
    139  CB       125.7960   -2.4460   -3.5900 C.3   105  ILE105      0.0252
    140  CG1      125.6280   -2.2270   -2.0930 C.3   105  ILE105      0.0019
    141  CG2      127.2620   -2.7180   -3.8860 C.3   105  ILE105      0.0019
    142  CD1      124.1960   -2.1840   -1.6320 C.3   105  ILE105      0.0001
@<TRIPOS>BOND
     1   133   132   ar
     2   127   128    1
     3   128   129    1
     4   128   131    1
     5   132   131    1
     6   132   134   ar
     7   129   130    2
     8   121   122    2
     9   121   120    1
    10   135   136    1
    11   120   123    1
    12   120   119    1
    13   123   124    1
    14   136   137    1
    15   136   139    1
    16   137   138    2
    17   141   139    1
    18   125   124    2
    19   139   140    1
    20   124   126   am
    21   110   109    2
    22   119   109   am
    23   109   108    1
    24    12    14   ar
    25    12    10   ar
    26   140   142    1
    27    88    86    1
    28   104   103    2
    29     9    10   ar
    30     9     7   ar
    31    76    75    2
    32   116   114   ar
    33   116   117   ar
    34    14    13   ar
    35   108   107    1
    36   108   111    1
    37    10     8   ar
    38   118   117    1
    39   114   112   ar
    40   106   105    1
    41   117   115   ar
    42   103   102    1
    43     7     6   ar
    44   112   111    1
    45   112   113   ar
    46    75    74    1
    47    86    87    1
    48    86    85    1
    49   115   113   ar
    50    80    78    1
    51    20    21    1
    52    20    19    1
    53    13    11   ar
    54     8     6   ar
    55     8    11   ar
    56    74    77    1
    57    74    73    1
    58    82    81    1
    59    82    85    1
    60    82    83    1
    61   105   102    1
    62   102   101    1
    63    77    78    1
    64    67    66    2
    65     6     5    1
    66    21    15    1
    67    32    31   ar
    68    32    30   ar
    69    31    29   ar
    70    78    79    1
    71    19    16    1
    72    83    84    2
    73    73    66   am
    74    66    65    1
    75    30    28   ar
    76    29    27   ar
    77    15    16    1
    78    15     3   am
    79     5     2    1
    80     1     2    1
    81    16    17    1
    82    95    97   ar
    83    95    94   ar
    84     2     3    1
    85    89    90    1
    86    65    68    1
    87    65    64    1
    88    97    99   ar
    89     3     4    2
    90    28    27   ar
    91    27    26    1
    92    90    93    1
    93    90    91    1
    94    93    94    1
    95    68    69    1
    96    17    22   am
    97    17    18    2
    98    94    96   ar
    99    59    58    2
   100    22    23    1
   101    54    53    1
   102    99   100    1
   103    99    98   ar
   104    92    91    2
   105    26    23    1
   106    55    53    1
   107    69    70    1
   108    23    24    1
   109    58    57    1
   110    96    98   ar
   111    70    71    1
   112    53    50    1
   113    41    39   am
   114    56    57    1
   115    56    51   am
   116    50    51    1
   117    50    49    1
   118    57    60    1
   119    71    72    1
   120    60    61    1
   121    24    25    2
   122    51    52    2
   123    62    61   ar
   124    39    40    2
   125    39    38    1
   126    61    63   ar
   127    49    44   am
   128    45    44    2
   129    36    35    2
   130    38    37    1
   131    44    43    1
   132    33    34    1
   133    35    34    1
   134    35    42   am
   135    37    34    1
   136    43    42    1
   137    43    46    1
   138    42    48    1
   139    46    47    1
   140    48    47    1
