@<TRIPOS>MOLECULE
tmp/4o74A00.pdb
 135 131 0 0 0
SMALL
GASTEIGER

@<TRIPOS>ATOM
      1  N          7.2180   -1.3600  -22.9550 N.3    40  TRP40      -0.1228
      2  CA         5.8450   -0.9450  -22.6540 C.3    40  TRP40       0.1722
      3  C          5.0230   -1.8560  -21.7050 C.2    40  TRP40       0.2437
      4  O          4.2820   -1.3310  -20.8730 O.2    40  TRP40      -0.2733
      5  CB         5.0590   -0.5710  -23.9260 C.3    40  TRP40       0.0563
      6  CG         4.7510   -1.7230  -24.8220 C.ar   40  TRP40       0.0003
      7  CD1        5.4710   -2.1390  -25.9040 C.ar   40  TRP40       0.0946
      8  CD2        3.6420   -2.6120  -24.7120 C.ar   40  TRP40       0.0152
      9  NE1        4.8800   -3.2440  -26.4700 N.ar   40  TRP40      -0.2442
     10  CE2        3.7570   -3.5570  -25.7510 C.ar   40  TRP40       0.0810
     11  CE3        2.5740   -2.7210  -23.8160 C.ar   40  TRP40       0.0012
     12  CZ2        2.8340   -4.5770  -25.9290 C.ar   40  TRP40       0.0191
     13  CZ3        1.6620   -3.7360  -23.9950 C.ar   40  TRP40       0.0001
     14  CH2        1.7940   -4.6490  -25.0360 C.ar   40  TRP40       0.0015
     15  N          5.1550   -3.2010  -21.7940 N.am   41  PRO41      -0.2718
     16  CA         4.3490   -4.0010  -20.8650 C.3    41  PRO41       0.1535
     17  C          4.7760   -3.8210  -19.4080 C.2    41  PRO41       0.2598
     18  O          4.0380   -4.2090  -18.5190 O.2    41  PRO41      -0.2715
     19  CB         4.6080   -5.4460  -21.3160 C.3    41  PRO41       0.0310
     20  CG         5.0770   -5.3300  -22.7100 C.3    41  PRO41       0.0237
     21  CD         5.8990   -4.0740  -22.7100 C.3    41  PRO41       0.0939
     22  N          5.9770   -3.2860  -19.1980 N.am   42  PHE42      -0.1974
     23  CA         6.6100   -3.1830  -17.8880 C.3    42  PHE42       0.1639
     24  C          6.5650   -1.7750  -17.3160 C.2    42  PHE42       0.2290
     25  O          7.1210   -1.5150  -16.2490 O.2    42  PHE42      -0.2864
     26  CB         8.0520   -3.6890  -17.9990 C.3    42  PHE42       0.0560
     27  CG         8.1320   -5.0790  -18.5470 C.ar   42  PHE42      -0.0200
     28  CD1        7.8530   -6.1620  -17.7390 C.ar   42  PHE42      -0.0042
     29  CD2        8.4240   -5.3020  -19.8840 C.ar   42  PHE42      -0.0042
     30  CE1        7.8740   -7.4470  -18.2580 C.ar   42  PHE42      -0.0003
     31  CE2        8.4490   -6.5770  -20.4030 C.ar   42  PHE42      -0.0003
     32  CZ         8.1680   -7.6420  -19.5900 C.ar   42  PHE42      -0.0000
     33  N          3.8740   -0.1090  -16.2320 N.3    44  GLN44      -0.1245
     34  CA         2.7860    0.1090  -15.2780 C.3    44  GLN44       0.1566
     35  C          2.3940   -1.2320  -14.6850 C.2    44  GLN44       0.2260
     36  O          2.7220   -2.2710  -15.2470 O.2    44  GLN44      -0.2867
     37  CB         1.5680    0.7630  -15.9420 C.3    44  GLN44       0.0367
     38  CG         0.9910   -0.0250  -17.1230 C.3    44  GLN44       0.0905
     39  CD         1.8540    0.0300  -18.3780 C.2    44  GLN44       0.2608
     40  OE1        2.1820    1.1080  -18.8670 O.2    44  GLN44      -0.2717
     41  NE2        2.2190   -1.1410  -18.9030 N.am   44  GLN44      -0.0878
     42  N          0.5170   -4.6120  -13.8080 N.3    46  VAL46      -0.1231
     43  CA        -0.3150   -5.4860  -14.6000 C.3    46  VAL46       0.1692
     44  C         -1.7820   -5.2520  -14.2430 C.2    46  VAL46       0.2592
     45  O         -2.1870   -5.3990  -13.0680 O.2    46  VAL46      -0.2718
     46  CB         0.0770   -6.9730  -14.3780 C.3    46  VAL46       0.0266
     47  CG1       -0.9650   -7.9260  -14.9930 C.3    46  VAL46       0.0020
     48  CG2        1.4800   -7.2330  -14.9360 C.3    46  VAL46       0.0020
     49  N         -2.5650   -4.8660  -15.2500 N.am   47  ASP47      -0.1974
     50  CA        -4.0010   -4.7330  -15.0810 C.3    47  ASP47       0.1709
     51  C         -4.6330   -6.0740  -15.4470 C.2    47  ASP47       0.2293
     52  O         -4.9810   -6.3260  -16.6000 O.2    47  ASP47      -0.2864
     53  CB        -4.5510   -3.6000  -15.9510 C.3    47  ASP47       0.1436
     54  CG        -6.0220   -3.3080  -15.6800 C.2    47  ASP47       0.3671
     55  OD1       -6.7240   -4.1930  -15.1450 O.co2  47  ASP47      -0.2456
     56  OD2       -6.4850   -2.1960  -16.0320 O.co2  47  ASP47      -0.2456
     57  N         -8.3090   -5.9300  -16.9150 N.3    50  LYS50      -0.1231
     58  CA        -8.3430   -5.5620  -18.3270 C.3    50  LYS50       0.1693
     59  C         -7.8290   -6.7040  -19.2100 C.2    50  LYS50       0.2591
     60  O         -8.3650   -6.9480  -20.2810 O.2    50  LYS50      -0.2718
     61  CB        -7.5130   -4.2950  -18.5530 C.3    50  LYS50       0.0285
     62  CG        -7.3870   -3.8400  -19.9960 C.3    50  LYS50       0.0035
     63  CD        -6.3950   -2.6950  -20.0970 C.3    50  LYS50       0.0206
     64  CE        -6.2280   -2.1970  -21.5220 C.3    50  LYS50       0.1093
     65  NZ        -7.4630   -1.5390  -22.0560 N.3    50  LYS50      -0.1314
     66  N         -6.8010   -7.4150  -18.7470 N.am   51  LEU51      -0.1980
     67  CA        -6.2140   -8.5020  -19.5320 C.3    51  LEU51       0.1596
     68  C         -6.9620   -9.8350  -19.3940 C.2    51  LEU51       0.2287
     69  O         -6.6260  -10.8190  -20.0650 O.2    51  LEU51      -0.2864
     70  CB        -4.7400   -8.6950  -19.1710 C.3    51  LEU51       0.0297
     71  CG        -3.8050   -7.5070  -19.4110 C.3    51  LEU51       0.0022
     72  CD1       -2.4110   -7.7980  -18.8880 C.3    51  LEU51       0.0001
     73  CD2       -3.7360   -7.1610  -20.8820 C.3    51  LEU51       0.0001
     74  N         -6.9740  -11.9320  -16.8070 N.3    53  LEU53      -0.1245
     75  CA        -6.0960  -12.9320  -16.2140 C.3    53  LEU53       0.1561
     76  C         -6.3570  -12.9850  -14.7060 C.2    53  LEU53       0.2260
     77  O         -5.5450  -12.5090  -13.9000 O.2    53  LEU53      -0.2867
     78  CB        -4.6290  -12.5930  -16.5000 C.3    53  LEU53       0.0270
     79  CG        -4.2360  -12.5830  -17.9810 C.3    53  LEU53       0.0019
     80  CD1       -2.8290  -12.0450  -18.1520 C.3    53  LEU53       0.0001
     81  CD2       -4.3530  -13.9770  -18.5940 C.3    53  LEU53       0.0001
     82  N         -3.5470  -13.9440  -12.1730 N.3    56  TYR56      -0.1241
     83  CA        -2.2490  -13.2660  -12.1040 C.3    56  TYR56       0.1605
     84  C         -1.8390  -12.9690  -10.6640 C.2    56  TYR56       0.2264
     85  O         -0.7210  -13.2810  -10.2590 O.2    56  TYR56      -0.2867
     86  CB        -2.2040  -11.9720  -12.9450 C.3    56  TYR56       0.0534
     87  CG        -0.8110  -11.3910  -12.9770 C.ar   56  TYR56      -0.0201
     88  CD1        0.1460  -11.8660  -13.8690 C.ar   56  TYR56      -0.0009
     89  CD2       -0.4300  -10.4130  -12.0800 C.ar   56  TYR56      -0.0009
     90  CE1        1.4470  -11.3790  -13.8470 C.ar   56  TYR56       0.0417
     91  CE2        0.8490   -9.8970  -12.0670 C.ar   56  TYR56       0.0417
     92  CZ         1.7950  -10.3820  -12.9410 C.ar   56  TYR56       0.1957
     93  OH         3.0780   -9.8660  -12.9030 O.3    56  TYR56      -0.2866
     94  N          7.7400  -12.0390  -14.2540 N.3    95  CYS95      -0.1235
     95  CA         7.4820  -12.3490  -15.6530 C.3    95  CYS95       0.1677
     96  C          7.8900  -13.7930  -15.9610 C.2    95  CYS95       0.2270
     97  O          7.1600  -14.5370  -16.6200 O.2    95  CYS95      -0.2867
     98  CB         8.2280  -11.3750  -16.5590 C.3    95  CYS95       0.0956
     99  SG         7.8620  -11.5560  -18.3010 S.3    95  CYS95      -0.0801
    100  N          5.3540  -16.3120  -14.1750 N.3    98  TYR98      -0.1227
    101  CA         3.9600  -16.3360  -14.6170 C.3    98  TYR98       0.1736
    102  C          3.7620  -16.8780  -16.0290 C.2    98  TYR98       0.2595
    103  O          2.8040  -17.6100  -16.3040 O.2    98  TYR98      -0.2718
    104  CB         3.3130  -14.9560  -14.5160 C.3    98  TYR98       0.0548
    105  CG         1.8610  -15.0190  -14.9190 C.ar   98  TYR98      -0.0200
    106  CD1        0.9010  -15.4950  -14.0320 C.ar   98  TYR98      -0.0009
    107  CD2        1.4500  -14.6430  -16.1870 C.ar   98  TYR98      -0.0009
    108  CE1       -0.4160  -15.6080  -14.3880 C.ar   98  TYR98       0.0417
    109  CE2        0.1180  -14.7330  -16.5570 C.ar   98  TYR98       0.0417
    110  CZ        -0.8140  -15.2300  -15.6550 C.ar   98  TYR98       0.1957
    111  OH        -2.1500  -15.3450  -15.9870 O.3    98  TYR98      -0.2866
    112  N          4.6860  -16.5180  -16.9130 N.am   99  ASN99      -0.1974
    113  CA         4.5450  -16.7670  -18.3480 C.3    99  ASN99       0.1688
    114  C          5.3310  -17.9780  -18.8150 C.2    99  ASN99       0.2292
    115  O          6.3790  -18.2840  -18.2680 O.2    99  ASN99      -0.2864
    116  CB         4.9860  -15.5400  -19.1430 C.3    99  ASN99       0.1181
    117  CG         4.2170  -14.3070  -18.7720 C.2    99  ASN99       0.2629
    118  OD1        3.0700  -14.1170  -19.2000 O.2    99  ASN99      -0.2716
    119  ND2        4.8360  -13.4520  -17.9680 N.am   99  ASN99      -0.0877
    120  N          7.9510  -17.4190  -24.4660 N.3   103  ASP103     -0.1239
    121  CA         6.8950  -16.5870  -25.0510 C.3   103  ASP103      0.1674
    122  C          7.4260  -15.1660  -25.2720 C.2   103  ASP103      0.2266
    123  O          8.4200  -14.7620  -24.6700 O.2   103  ASP103     -0.2867
    124  CB         5.6480  -16.5600  -24.1680 C.3   103  ASP103      0.1410
    125  CG         4.6470  -17.6660  -24.5180 C.2   103  ASP103      0.3668
    126  OD1        5.0210  -18.6440  -25.2040 O.co2 103  ASP103     -0.2456
    127  OD2        3.4820  -17.5520  -24.0980 O.co2 103  ASP103     -0.2456
    128  N          6.5230  -12.2340  -24.3140 N.3   105  ILE105     -0.1245
    129  CA         6.6530  -11.4020  -23.1240 C.3   105  ILE105      0.1561
    130  C          7.9540  -11.7140  -22.3590 C.2   105  ILE105      0.2260
    131  O          8.6230  -10.8050  -21.8340 O.2   105  ILE105     -0.2867
    132  CB         5.4210  -11.5090  -22.2060 C.3   105  ILE105      0.0252
    133  CG1        5.4690  -10.4610  -21.0850 C.3   105  ILE105      0.0019
    134  CG2        5.2890  -12.9090  -21.6330 C.3   105  ILE105      0.0019
    135  CD1        5.2340   -9.0630  -21.5310 C.3   105  ILE105      0.0001
@<TRIPOS>BOND
     1     9     7   ar
     2     9    10   ar
     3    12    10   ar
     4    12    14   ar
     5     7     6   ar
     6    10     8   ar
     7   122   121    1
     8   122   123    2
     9   126   125   ar
    10   121   120    1
    11   121   124    1
    12    14    13   ar
    13     6     8   ar
    14     6     5    1
    15     8    11   ar
    16   125   124    1
    17   125   127   ar
    18   128   129    1
    19    13    11   ar
    20     5     2    1
    21   129   130    1
    22   129   132    1
    23     1     2    1
    24    20    21    1
    25    20    19    1
    26    21    15    1
    27     2     3    1
    28   130   131    2
    29   132   134    1
    30   132   133    1
    31    65    64    1
    32    15     3   am
    33    15    16    1
    34     3     4    2
    35   135   133    1
    36    64    63    1
    37    19    16    1
    38    73    71    1
    39    16    17    1
    40    31    29   ar
    41    31    32   ar
    42    60    59    2
    43    63    62    1
    44    69    68    2
    45    62    61    1
    46    29    27   ar
    47    32    30   ar
    48    67    68    1
    49    67    70    1
    50    67    66    1
    51    71    70    1
    52    71    72    1
    53    17    22   am
    54    17    18    2
    55    59    66   am
    56    59    58    1
    57   118   117    2
    58    22    23    1
    59   116   117    1
    60   116   113    1
    61    41    39   am
    62    40    39    2
    63   114   113    1
    64   114   115    2
    65   117   119   am
    66    81    79    1
    67    61    58    1
    68    27    26    1
    69    27    28   ar
    70    39    38    1
    71   113   112    1
    72    58    57    1
    73    99    98    1
    74    30    28   ar
    75    80    79    1
    76    26    23    1
    77    79    78    1
    78    23    24    1
    79    24    25    2
    80    38    37    1
    81   112   102   am
    82    74    75    1
    83    97    96    2
    84    52    51    2
    85    98    95    1
    86   109   107   ar
    87   109   110   ar
    88    78    75    1
    89   103   102    2
    90    33    34    1
    91    75    76    1
    92   107   105   ar
    93    56    54   ar
    94   102   101    1
    95   111   110    1
    96    96    95    1
    97    53    54    1
    98    53    50    1
    99    37    34    1
   100    54    55   ar
   101   110   108   ar
   102    95    94    1
   103    51    50    1
   104    34    35    1
   105    49    50    1
   106    49    44   am
   107    36    35    2
   108    47    46    1
   109    48    46    1
   110   105   104    1
   111   105   106   ar
   112    76    77    2
   113   101   104    1
   114   101   100    1
   115    43    46    1
   116    43    44    1
   117    43    42    1
   118   108   106   ar
   119    44    45    2
   120    88    90   ar
   121    88    87   ar
   122    90    92   ar
   123    87    86    1
   124    87    89   ar
   125    86    83    1
   126    92    93    1
   127    92    91   ar
   128    82    83    1
   129    83    84    1
   130    89    91   ar
   131    84    85    2
