@<TRIPOS>MOLECULE
tmp/4o75A00.pdb
 127 125 0 0 0
SMALL
GASTEIGER

@<TRIPOS>ATOM
      1  N          7.2970   -2.9580   12.6360 N.3    40  TRP40      -0.1228
      2  CA         8.6740   -3.1200   13.1020 C.3    40  TRP40       0.1722
      3  C          9.5310   -1.8370   13.1580 C.2    40  TRP40       0.2437
      4  O         10.3350   -1.7010   14.0790 O.2    40  TRP40      -0.2733
      5  CB         9.3690   -4.2670   12.3450 C.3    40  TRP40       0.0563
      6  CG         9.4810   -4.0300   10.9050 C.ar   40  TRP40       0.0003
      7  CD1        8.5960   -4.4250    9.9300 C.ar   40  TRP40       0.0946
      8  CD2       10.5350   -3.3290   10.2290 C.ar   40  TRP40       0.0152
      9  NE1        9.0560   -4.0350    8.7010 N.ar   40  TRP40      -0.2442
     10  CE2       10.2250   -3.3400    8.8550 C.ar   40  TRP40       0.0810
     11  CE3       11.6950   -2.6890   10.6490 C.ar   40  TRP40       0.0012
     12  CZ2       11.0400   -2.7340    7.9000 C.ar   40  TRP40       0.0191
     13  CZ3       12.5000   -2.0900    9.7030 C.ar   40  TRP40       0.0001
     14  CH2       12.1760   -2.1240    8.3420 C.ar   40  TRP40       0.0015
     15  N          9.3690   -0.8780   12.2080 N.am   41  PRO41      -0.2718
     16  CA        10.2540    0.3030   12.3270 C.3    41  PRO41       0.1535
     17  C          9.9250    1.1660   13.5210 C.2    41  PRO41       0.2598
     18  O         10.7320    2.0080   13.9450 O.2    41  PRO41      -0.2715
     19  CB         9.9540    1.0980   11.0530 C.3    41  PRO41       0.0310
     20  CG         9.3020    0.0870   10.0890 C.3    41  PRO41       0.0237
     21  CD         8.4960   -0.7890   11.0180 C.3    41  PRO41       0.0939
     22  N          8.7380    0.9330   14.0640 N.am   42  PHE42      -0.1974
     23  CA         8.1610    1.7320   15.1340 C.3    42  PHE42       0.1639
     24  C          8.1460    1.0400   16.4980 C.2    42  PHE42       0.2290
     25  O          7.6370    1.5970   17.4630 O.2    42  PHE42      -0.2864
     26  CB         6.7290    2.1480   14.7240 C.3    42  PHE42       0.0560
     27  CG         6.6700    2.8330   13.4000 C.ar   42  PHE42      -0.0200
     28  CD1        7.0360    4.1540   13.2790 C.ar   42  PHE42      -0.0042
     29  CD2        6.2510    2.1650   12.2530 C.ar   42  PHE42      -0.0042
     30  CE1        7.0170    4.7820   12.0430 C.ar   42  PHE42      -0.0003
     31  CE2        6.2100    2.8140   11.0200 C.ar   42  PHE42      -0.0003
     32  CZ         6.5900    4.0900   10.9190 C.ar   42  PHE42      -0.0000
     33  N         10.6520    0.3370   18.4760 N.3    44  GLN44      -0.1245
     34  CA        11.7250    0.7890   19.3560 C.3    44  GLN44       0.1566
     35  C         12.1600    2.1870   18.9470 C.2    44  GLN44       0.2260
     36  O         11.8600    2.6230   17.8310 O.2    44  GLN44      -0.2867
     37  CB        12.9300   -0.1590   19.2790 C.3    44  GLN44       0.0367
     38  CG        13.5470   -0.2650   17.9200 C.3    44  GLN44       0.0905
     39  CD        12.7120   -1.0740   16.9550 C.2    44  GLN44       0.2608
     40  OE1       12.3310   -2.2180   17.2360 O.2    44  GLN44      -0.2717
     41  NE2       12.3920   -0.4750   15.8220 N.am   44  GLN44      -0.0878
     42  N         14.1510    5.2100   17.4020 N.3    46  VAL46      -0.1245
     43  CA        15.0150    5.3270   16.2250 C.3    46  VAL46       0.1561
     44  C         16.4570    5.3260   16.6840 C.2    46  VAL46       0.2260
     45  O         16.8780    6.1900   17.4630 O.2    46  VAL46      -0.2867
     46  CB        14.6990    6.6000   15.4190 C.3    46  VAL46       0.0252
     47  CG1       15.7240    6.8290   14.3110 C.3    46  VAL46       0.0019
     48  CG2       13.2620    6.5040   14.8260 C.3    46  VAL46       0.0019
     49  N         23.0050    3.6530   14.3020 N.3    50  LYS50      -0.1231
     50  CA        22.9460    2.4640   13.4720 C.3    50  LYS50       0.1693
     51  C         22.4170    2.7810   12.0730 C.2    50  LYS50       0.2592
     52  O         22.9930    2.3530   11.0840 O.2    50  LYS50      -0.2718
     53  CB        22.0760    1.4130   14.1430 C.3    50  LYS50       0.0285
     54  CG        22.3890    0.0020   13.7270 C.3    50  LYS50       0.0035
     55  CD        23.6230   -0.5300   14.4540 C.3    50  LYS50       0.0206
     56  CE        24.1250   -1.8400   13.8320 C.3    50  LYS50       0.1093
     57  NZ        25.3410   -2.3840   14.5190 N.3    50  LYS50      -0.1314
     58  N         21.3320    3.5360   11.9740 N.am   51  LEU51      -0.1966
     59  CA        20.7410    3.8350   10.6640 C.3    51  LEU51       0.1728
     60  C         21.5270    4.8790    9.8470 C.2    51  LEU51       0.2616
     61  O         21.1450    5.2040    8.7140 O.2    51  LEU51      -0.2715
     62  CB        19.2980    4.2980   10.8530 C.3    51  LEU51       0.0311
     63  CG        18.3420    3.2310   11.3760 C.3    51  LEU51       0.0022
     64  CD1       17.0050    3.8780   11.8020 C.3    51  LEU51       0.0001
     65  CD2       18.1000    2.1670   10.3210 C.3    51  LEU51       0.0001
     66  N         22.6230    5.3770   10.4090 N.am   52  ASN52      -0.1958
     67  CA        23.4130    6.4610    9.8050 C.3    52  ASN52       0.1819
     68  C         22.5560    7.6640    9.4150 C.2    52  ASN52       0.2621
     69  O         22.6170    8.1590    8.2900 O.2    52  ASN52      -0.2715
     70  CB        24.2340    5.9530    8.6150 C.3    52  ASN52       0.1195
     71  CG        25.4680    5.1840    9.0440 C.2    52  ASN52       0.2630
     72  OD1       26.1030    5.4960   10.0660 O.2    52  ASN52      -0.2716
     73  ND2       25.8300    4.1730    8.2530 N.am   52  ASN52      -0.0877
     74  N         21.7290    8.1060   10.3600 N.am   53  LEU53      -0.1977
     75  CA        20.9000    9.2860   10.1900 C.3    53  LEU53       0.1596
     76  C         21.3800   10.3170   11.1980 C.2    53  LEU53       0.2287
     77  O         20.7220   10.5620   12.1980 O.2    53  LEU53      -0.2864
     78  CB        19.4230    8.9450   10.4600 C.3    53  LEU53       0.0297
     79  CG        18.8570    7.8240    9.5850 C.3    53  LEU53       0.0022
     80  CD1       17.4280    7.4810    9.9950 C.3    53  LEU53       0.0001
     81  CD2       18.9220    8.2190    8.1190 C.3    53  LEU53       0.0001
     82  N         18.9040   12.9270   12.3920 N.3    56  TYR56      -0.1241
     83  CA        17.5660   12.5730   12.8980 C.3    56  TYR56       0.1605
     84  C         17.2240   13.3380   14.1650 C.2    56  TYR56       0.2264
     85  O         16.1600   13.9610   14.2400 O.2    56  TYR56      -0.2867
     86  CB        17.3820   11.0590   13.1070 C.3    56  TYR56       0.0534
     87  CG        15.9580   10.7380   13.5150 C.ar   56  TYR56      -0.0201
     88  CD1       14.9530   10.6420   12.5530 C.ar   56  TYR56      -0.0009
     89  CD2       15.6050   10.6180   14.8580 C.ar   56  TYR56      -0.0009
     90  CE1       13.6580   10.4010   12.8950 C.ar   56  TYR56       0.0417
     91  CE2       14.2820   10.3720   15.2280 C.ar   56  TYR56       0.0417
     92  CZ        13.3170   10.2470   14.2350 C.ar   56  TYR56       0.1957
     93  OH        11.9890   10.0190   14.5380 O.3    56  TYR56      -0.2866
     94  N          7.4930   10.9510   11.9410 N.3    95  CYS95      -0.1235
     95  CA         7.7580   10.2830   10.6690 C.3    95  CYS95       0.1677
     96  C          7.4040   11.1920    9.4890 C.2    95  CYS95       0.2270
     97  O          8.1730   11.3180    8.5360 O.2    95  CYS95      -0.2867
     98  CB         6.9640    8.9850   10.6090 C.3    95  CYS95       0.0956
     99  SG         7.1630    8.0010    9.1530 S.3    95  CYS95      -0.0801
    100  N         10.0970   14.0790    9.2410 N.3    98  TYR98      -0.1227
    101  CA        11.4700   13.7460    8.8970 C.3    98  TYR98       0.1736
    102  C         11.5940   13.1630    7.5070 C.2    98  TYR98       0.2595
    103  O         12.5100   13.5100    6.7590 O.2    98  TYR98      -0.2718
    104  CB        12.0700   12.7720    9.9110 C.3    98  TYR98       0.0548
    105  CG        13.4820   12.4170    9.5820 C.ar   98  TYR98      -0.0200
    106  CD1       14.5380   13.2760    9.8860 C.ar   98  TYR98      -0.0009
    107  CD2       13.7720   11.2320    8.9460 C.ar   98  TYR98      -0.0009
    108  CE1       15.8360   12.9400    9.5460 C.ar   98  TYR98       0.0417
    109  CE2       15.0640   10.8990    8.5980 C.ar   98  TYR98       0.0417
    110  CZ        16.0860   11.7410    8.9160 C.ar   98  TYR98       0.1957
    111  OH        17.3600   11.3610    8.5350 O.3    98  TYR98      -0.2866
    112  N         10.6480   12.3030    7.1370 N.am   99  ASN99      -0.1974
    113  CA        10.7120   11.6180    5.8510 C.3    99  ASN99       0.1688
    114  C          9.9860   12.3230    4.6920 C.2    99  ASN99       0.2292
    115  O          9.0700   13.1020    4.8960 O.2    99  ASN99      -0.2864
    116  CB        10.1870   10.1950    6.0080 C.3    99  ASN99       0.1181
    117  CG        11.0380    9.3650    6.9560 C.2    99  ASN99       0.2629
    118  OD1       12.1000    8.8590    6.5640 O.2    99  ASN99      -0.2716
    119  ND2       10.5830    9.2120    8.1930 N.am   99  ASN99      -0.0877
    120  N          8.3100    4.3410    4.3300 N.3   105  ILE105     -0.1245
    121  CA         8.1180    4.4080    5.7760 C.3   105  ILE105      0.1561
    122  C          6.9130    5.2880    6.1020 C.2   105  ILE105      0.2260
    123  O          6.1930    5.0230    7.0510 O.2   105  ILE105     -0.2867
    124  CB         9.3980    4.8980    6.4790 C.3   105  ILE105      0.0252
    125  CG1        9.2730    4.7970    8.0060 C.3   105  ILE105      0.0019
    126  CG2        9.7660    6.3060    6.0290 C.3   105  ILE105      0.0019
    127  CD1        9.1730    3.3860    8.5050 C.3   105  ILE105      0.0001
@<TRIPOS>BOND
     1   120   121    1
     2   114   115    2
     3   114   113    1
     4   121   122    1
     5   121   124    1
     6   113   116    1
     7   113   112    1
     8   116   117    1
     9   126   124    1
    10   122   123    2
    11   124   125    1
    12   118   117    2
    13   103   102    2
    14   117   119   am
    15   112   102   am
    16   102   101    1
    17    12    14   ar
    18    12    10   ar
    19   125   127    1
    20    81    79    1
    21    73    71   am
    22    69    68    2
    23    14    13   ar
    24   111   110    1
    25    97    96    2
    26   109   110   ar
    27   109   107   ar
    28    70    71    1
    29    70    67    1
    30     9    10   ar
    31     9     7   ar
    32    61    60    2
    33    10     8   ar
    34   101   100    1
    35   101   104    1
    36   110   108   ar
    37   107   105   ar
    38    71    72    2
    39    99    98    1
    40    68    67    1
    41    68    74   am
    42    96    95    1
    43   108   106   ar
    44   105   106   ar
    45   105   104    1
    46    79    80    1
    47    79    78    1
    48    13    11   ar
    49    67    66    1
    50    60    66   am
    51    60    59    1
    52     7     6   ar
    53    20    21    1
    54    20    19    1
    55    75    74    1
    56    75    78    1
    57    75    76    1
    58     8    11   ar
    59     8     6   ar
    60    65    63    1
    61    98    95    1
    62    59    62    1
    63    59    58    1
    64    95    94    1
    65    62    63    1
    66     6     5    1
    67    32    31   ar
    68    32    30   ar
    69    21    15    1
    70    31    29   ar
    71    19    16    1
    72    52    51    2
    73    76    77    2
    74    63    64    1
    75    58    51   am
    76    30    28   ar
    77    51    50    1
    78    15    16    1
    79    15     3   am
    80    29    27   ar
    81    16    17    1
    82     5     2    1
    83    82    83    1
    84    88    90   ar
    85    88    87   ar
    86     1     2    1
    87    90    92   ar
    88    83    86    1
    89    83    84    1
    90     2     3    1
    91    86    87    1
    92     3     4    2
    93    28    27   ar
    94    27    26    1
    95    50    53    1
    96    50    49    1
    97    87    89   ar
    98    17    18    2
    99    17    22   am
   100    54    53    1
   101    54    55    1
   102    56    55    1
   103    56    57    1
   104    22    23    1
   105    84    85    2
   106    92    93    1
   107    92    91   ar
   108    47    46    1
   109    26    23    1
   110    48    46    1
   111    89    91   ar
   112    23    24    1
   113    46    43    1
   114    41    39   am
   115    43    44    1
   116    43    42    1
   117    24    25    2
   118    44    45    2
   119    39    40    2
   120    39    38    1
   121    36    35    2
   122    38    37    1
   123    33    34    1
   124    35    34    1
   125    37    34    1
