@<TRIPOS>MOLECULE
tmp/4o76C00.pdb
 142 138 0 0 0
SMALL
GASTEIGER

@<TRIPOS>ATOM
      1  N        -16.3250   10.0560  132.3580 N.3    40  TRP40      -0.1228
      2  CA       -15.9170    8.6730  132.0720 C.3    40  TRP40       0.1722
      3  C        -16.8620    7.8440  131.1600 C.2    40  TRP40       0.2437
      4  O        -16.3730    7.0760  130.3490 O.2    40  TRP40      -0.2733
      5  CB       -15.5900    7.9020  133.3750 C.3    40  TRP40       0.0563
      6  CG       -16.7840    7.7010  134.2820 C.ar   40  TRP40       0.0003
      7  CD1      -17.1990    8.5300  135.3030 C.ar   40  TRP40       0.0946
      8  CD2      -17.7250    6.6320  134.2300 C.ar   40  TRP40       0.0152
      9  NE1      -18.3350    8.0320  135.8800 N.ar   40  TRP40      -0.2442
     10  CE2      -18.6870    6.8730  135.2320 C.ar   40  TRP40       0.0810
     11  CE3      -17.8610    5.5040  133.4240 C.ar   40  TRP40       0.0012
     12  CZ2      -19.7570    6.0110  135.4570 C.ar   40  TRP40       0.0191
     13  CZ3      -18.9330    4.6420  133.6550 C.ar   40  TRP40       0.0001
     14  CH2      -19.8650    4.9060  134.6540 C.ar   40  TRP40       0.0015
     15  N        -18.2090    8.0350  131.2280 N.am   41  PRO41      -0.2718
     16  CA       -19.0650    7.2800  130.2970 C.3    41  PRO41       0.1535
     17  C        -18.9100    7.7240  128.8280 C.2    41  PRO41       0.2598
     18  O        -19.3860    7.0230  127.9120 O.2    41  PRO41      -0.2715
     19  CB       -20.5010    7.6280  130.7700 C.3    41  PRO41       0.0310
     20  CG       -20.3390    8.1360  132.2070 C.3    41  PRO41       0.0237
     21  CD       -19.0110    8.8380  132.1690 C.3    41  PRO41       0.0939
     22  N        -18.2120    8.8430  128.6210 N.am   42  PHE42      -0.1974
     23  CA       -18.1610    9.5250  127.3230 C.3    42  PHE42       0.1639
     24  C        -16.7540    9.4650  126.7360 C.2    42  PHE42       0.2290
     25  O        -16.4760   10.0440  125.6820 O.2    42  PHE42      -0.2864
     26  CB       -18.6370   10.9740  127.5000 C.3    42  PHE42       0.0560
     27  CG       -20.0220   11.0670  128.0770 C.ar   42  PHE42      -0.0200
     28  CD1      -21.1450   10.8250  127.2820 C.ar   42  PHE42      -0.0042
     29  CD2      -20.2070   11.3610  129.4180 C.ar   42  PHE42      -0.0042
     30  CE1      -22.4430   10.8600  127.8350 C.ar   42  PHE42      -0.0003
     31  CE2      -21.4740   11.4020  129.9700 C.ar   42  PHE42      -0.0003
     32  CZ       -22.5930   11.1440  129.1880 C.ar   42  PHE42      -0.0000
     33  N        -14.9410    6.7530  125.6950 N.3    44  GLN44      -0.1245
     34  CA       -14.7010    5.7220  124.7150 C.3    44  GLN44       0.1566
     35  C        -16.0010    5.3410  124.0670 C.2    44  GLN44       0.2260
     36  O        -17.0620    5.5570  124.6530 O.2    44  GLN44      -0.2867
     37  CB       -14.1310    4.4900  125.4110 C.3    44  GLN44       0.0367
     38  CG       -15.0100    3.9550  126.5410 C.3    44  GLN44       0.0905
     39  CD       -15.0000    4.7890  127.8490 C.2    44  GLN44       0.2608
     40  OE1      -13.9580    4.8990  128.5220 O.2    44  GLN44      -0.2717
     41  NE2      -16.1990    5.3180  128.2540 N.am   44  GLN44      -0.0878
     42  N        -19.2570    3.3950  123.1920 N.3    46  VAL46      -0.1245
     43  CA       -20.0930    2.5400  124.0320 C.3    46  VAL46       0.1561
     44  C        -19.9040    1.0820  123.6340 C.2    46  VAL46       0.2260
     45  O        -20.1280    0.6910  122.4760 O.2    46  VAL46      -0.2867
     46  CB       -21.5690    2.9550  123.9190 C.3    46  VAL46       0.0252
     47  CG1      -22.4980    1.9420  124.6100 C.3    46  VAL46       0.0019
     48  CG2      -21.7500    4.3460  124.5250 C.3    46  VAL46       0.0019
     49  N        -21.8670   -3.9190  128.1140 N.3    51  LEU51      -0.1231
     50  CA       -22.9090   -3.3290  128.9470 C.3    51  LEU51       0.1693
     51  C        -24.2600   -4.0210  128.7480 C.2    51  LEU51       0.2592
     52  O        -25.2320   -3.7330  129.4450 O.2    51  LEU51      -0.2718
     53  CB       -22.9870   -1.8210  128.6600 C.3    51  LEU51       0.0284
     54  CG       -21.6640   -1.0540  128.8280 C.3    51  LEU51       0.0019
     55  CD1      -21.8470    0.4370  128.4840 C.3    51  LEU51       0.0001
     56  CD2      -21.1630   -1.1970  130.2350 C.3    51  LEU51       0.0001
     57  N        -24.2990   -4.9750  127.8250 N.am   52  ASN52      -0.1960
     58  CA       -25.5220   -5.6920  127.5040 C.3    52  ASN52       0.1819
     59  C        -26.6330   -4.7520  127.0740 C.2    52  ASN52       0.2621
     60  O        -27.7060   -4.7230  127.6900 O.2    52  ASN52      -0.2715
     61  CB       -25.9670   -6.5510  128.6980 C.3    52  ASN52       0.1195
     62  CG       -27.0220   -7.5620  128.3190 C.2    52  ASN52       0.2630
     63  OD1      -27.1100   -7.9860  127.1690 O.2    52  ASN52      -0.2716
     64  ND2      -27.8290   -7.9520  129.2800 N.am   52  ASN52      -0.0877
     65  N        -26.3490   -3.9770  126.0210 N.am   53  LEU53      -0.1977
     66  CA       -27.3070   -3.0760  125.3800 C.3    53  LEU53       0.1596
     67  C        -27.5260   -3.4910  123.9270 C.2    53  LEU53       0.2287
     68  O        -27.0750   -2.8140  123.0020 O.2    53  LEU53      -0.2864
     69  CB       -26.7870   -1.6360  125.4110 C.3    53  LEU53       0.0297
     70  CG       -26.3560   -1.1220  126.7840 C.3    53  LEU53       0.0022
     71  CD1      -25.6930    0.2670  126.6530 C.3    53  LEU53       0.0001
     72  CD2      -27.5330   -1.0970  127.7300 C.3    53  LEU53       0.0001
     73  N        -28.5120   -0.7090  121.3990 N.3    56  TYR56      -0.1241
     74  CA       -27.8440    0.5830  121.3780 C.3    56  TYR56       0.1605
     75  C        -27.5510    1.0580  119.9560 C.2    56  TYR56       0.2264
     76  O        -27.8600    2.2040  119.5950 O.2    56  TYR56      -0.2867
     77  CB       -26.5470    0.5840  122.2140 C.3    56  TYR56       0.0534
     78  CG       -25.9470    1.9640  122.2540 C.ar   56  TYR56      -0.0201
     79  CD1      -26.3880    2.8900  123.1810 C.ar   56  TYR56      -0.0009
     80  CD2      -25.0050    2.3620  121.3310 C.ar   56  TYR56      -0.0009
     81  CE1      -25.8800    4.1770  123.2160 C.ar   56  TYR56       0.0417
     82  CE2      -24.4880    3.6600  121.3400 C.ar   56  TYR56       0.0417
     83  CZ       -24.9140    4.5510  122.2830 C.ar   56  TYR56       0.1957
     84  OH       -24.4150    5.8180  122.2790 O.3    56  TYR56      -0.2866
     85  N        -22.3250   13.5550  120.1300 N.3    91  MET91      -0.1245
     86  CA       -22.1450   12.7680  121.3400 C.3    91  MET91       0.1570
     87  C        -23.2440   13.0630  122.3820 C.2    91  MET91       0.2261
     88  O        -23.8440   12.1490  122.9460 O.2    91  MET91      -0.2867
     89  CB       -20.7480   13.0390  121.9210 C.3    91  MET91       0.0387
     90  CG       -20.4920   12.2750  123.1890 C.3    91  MET91       0.0595
     91  SD       -18.8720   12.6550  123.8930 S.3    91  MET91      -0.1393
     92  CE       -19.1200   14.3250  124.5020 C.3    91  MET91       0.0692
     93  N        -26.7770   10.7060  123.6380 N.3    95  CYS95      -0.1235
     94  CA       -27.0870   10.3510  125.0120 C.3    95  CYS95       0.1677
     95  C        -28.5500   10.7090  125.2730 C.2    95  CYS95       0.2270
     96  O        -29.2750    9.9540  125.9090 O.2    95  CYS95      -0.2867
     97  CB       -26.1660   11.0840  125.9750 C.3    95  CYS95       0.0956
     98  SG       -26.4540   10.6660  127.7210 S.3    95  CYS95      -0.0801
     99  N        -30.9390    8.0980  123.3660 N.3    98  TYR98      -0.1227
    100  CA       -30.9360    6.7240  123.8560 C.3    98  TYR98       0.1736
    101  C        -31.6000    6.5760  125.2360 C.2    98  TYR98       0.2595
    102  O        -32.3270    5.5980  125.4930 O.2    98  TYR98      -0.2718
    103  CB       -29.5040    6.1430  123.8880 C.3    98  TYR98       0.0548
    104  CG       -29.5230    4.6750  124.2540 C.ar   98  TYR98      -0.0200
    105  CD1      -30.0770    3.7300  123.3880 C.ar   98  TYR98      -0.0009
    106  CD2      -29.0450    4.2250  125.4780 C.ar   98  TYR98      -0.0009
    107  CE1      -30.1410    2.3950  123.7250 C.ar   98  TYR98       0.0417
    108  CE2      -29.1060    2.8830  125.8130 C.ar   98  TYR98       0.0417
    109  CZ       -29.6640    1.9700  124.9310 C.ar   98  TYR98       0.1957
    110  OH       -29.7220    0.6070  125.2620 O.3    98  TYR98      -0.2866
    111  N        -31.3550    7.5430  126.1050 N.am   99  ASN99      -0.1974
    112  CA       -31.7770    7.4560  127.4940 C.3    99  ASN99       0.1688
    113  C        -32.9270    8.3690  127.8300 C.2    99  ASN99       0.2292
    114  O        -33.1420    9.3940  127.1850 O.2    99  ASN99      -0.2864
    115  CB       -30.6220    7.8610  128.3860 C.3    99  ASN99       0.1181
    116  CG       -29.4140    6.9940  128.1730 C.2    99  ASN99       0.2629
    117  OD1      -29.3400    5.8740  128.6870 O.2    99  ASN99      -0.2716
    118  ND2      -28.4730    7.4850  127.3830 N.am   99  ASN99      -0.0877
    119  N        -29.8560    9.4500  135.2260 N.3   104  ASP104     -0.1225
    120  CA       -28.5470    9.8790  135.7200 C.3   104  ASP104      0.1805
    121  C        -27.5180   10.1620  134.6130 C.2   104  ASP104      0.2597
    122  O        -26.8490   11.1670  134.6750 O.2   104  ASP104     -0.2718
    123  CB       -27.9850    8.8670  136.7190 C.3   104  ASP104      0.1424
    124  CG       -28.7970    8.8050  138.0100 C.2   104  ASP104      0.3668
    125  OD1      -29.5150    9.7960  138.3410 O.co2 104  ASP104     -0.2456
    126  OD2      -28.7030    7.7640  138.7020 O.co2 104  ASP104     -0.2456
    127  N        -27.4140    9.2990  133.6090 N.am  105  ILE105     -0.1980
    128  CA       -26.4170    9.4800  132.5330 C.3   105  ILE105      0.1595
    129  C        -26.7510   10.7340  131.7350 C.2   105  ILE105      0.2287
    130  O        -25.8470   11.4280  131.2340 O.2   105  ILE105     -0.2864
    131  CB       -26.3140    8.2260  131.5910 C.3   105  ILE105      0.0276
    132  CG1      -25.1150    8.3350  130.6160 C.3   105  ILE105      0.0022
    133  CG2      -27.6100    7.9960  130.8070 C.3   105  ILE105      0.0022
    134  CD1      -23.8150    8.2370  131.3210 C.3   105  ILE105      0.0001
    135  N        -25.5480   13.6760  133.6400 N.3   108  MET108     -0.1245
    136  CA       -24.0940   13.7040  133.5160 C.3   108  MET108      0.1570
    137  C        -23.7220   14.4010  132.1950 C.2   108  MET108      0.2261
    138  O        -22.8650   15.2820  132.1600 O.2   108  MET108     -0.2867
    139  CB       -23.5060   12.2770  133.5740 C.3   108  MET108      0.0387
    140  CG       -23.5810   11.6300  134.9510 C.3   108  MET108      0.0595
    141  SD       -23.0670    9.9110  134.9580 S.3   108  MET108     -0.1393
    142  CE       -21.3410   10.0930  134.9760 C.3   108  MET108      0.0692
@<TRIPOS>BOND
     1    76    75    2
     2    75    74    1
     3    85    86    1
     4    80    82   ar
     5    80    78   ar
     6    82    83   ar
     7    86    89    1
     8    86    87    1
     9    74    73    1
    10    74    77    1
    11    89    90    1
    12    77    78    1
    13    78    79   ar
    14    84    83    1
    15    83    81   ar
    16    87    88    2
    17    45    44    2
    18    68    67    2
    19    79    81   ar
    20    90    91    1
    21    42    43    1
    22    99   100    1
    23   105   107   ar
    24   105   104   ar
    25    44    43    1
    26    93    94    1
    27   107   109   ar
    28   100   103    1
    29   100   101    1
    30   103   104    1
    31    91    92    1
    32    46    43    1
    33    46    48    1
    34    46    47    1
    35    67    66    1
    36    35    36    2
    37    35    34    1
    38   104   106   ar
    39    34    37    1
    40    34    33    1
    41   109   110    1
    42   109   108   ar
    43    94    95    1
    44    94    97    1
    45   101   102    2
    46   101   111   am
    47    95    96    2
    48    66    69    1
    49    66    65    1
    50    37    38    1
    51    69    70    1
    52   106   108   ar
    53    25    24    2
    54    97    98    1
    55    65    59   am
    56   111   112    1
    57    38    39    1
    58    71    70    1
    59    24    23    1
    60    70    72    1
    61    59    58    1
    62    59    60    2
    63    63    62    2
    64   114   113    2
    65    28    30   ar
    66    28    27   ar
    67    23    26    1
    68    23    22    1
    69   118   116   am
    70   112   113    1
    71   112   115    1
    72    26    27    1
    73    58    57    1
    74    58    61    1
    75    57    51   am
    76    30    32   ar
    77    39    41   am
    78    39    40    2
    79    18    17    2
    80    27    29   ar
    81    49    50    1
    82   116   115    1
    83   116   117    2
    84    62    61    1
    85    62    64   am
    86    55    54    1
    87    22    17   am
    88    53    54    1
    89    53    50    1
    90    51    50    1
    91    51    52    2
    92    17    16    1
    93    54    56    1
    94    32    31   ar
    95    29    31   ar
    96    16    19    1
    97    16    15    1
    98     4     3    2
    99   132   134    1
   100   132   131    1
   101    19    20    1
   102   133   131    1
   103     3    15   am
   104     3     2    1
   105    15    21    1
   106   130   129    2
   107   131   128    1
   108   129   128    1
   109     2     1    1
   110     2     5    1
   111   138   137    2
   112    21    20    1
   113   137   136    1
   114   128   127    1
   115     5     6    1
   116    11    13   ar
   117    11     8   ar
   118   136   139    1
   119   136   135    1
   120   139   140    1
   121   127   121   am
   122    13    14   ar
   123     8     6   ar
   124     8    10   ar
   125     6     7   ar
   126   121   122    2
   127   121   120    1
   128    14    12   ar
   129   140   141    1
   130   141   142    1
   131   119   120    1
   132    10    12   ar
   133    10     9   ar
   134     7     9   ar
   135   120   123    1
   136   123   124    1
   137   124   125   ar
   138   124   126   ar
