@<TRIPOS>MOLECULE
tmp/4o77A00.pdb
 134 129 0 0 0
SMALL
GASTEIGER

@<TRIPOS>ATOM
      1  N          1.8900   -1.4040  -23.0660 N.3    40  TRP40      -0.1228
      2  CA         0.4550   -1.1550  -22.8180 C.3    40  TRP40       0.1722
      3  C         -0.2590   -2.0890  -21.8270 C.2    40  TRP40       0.2437
      4  O         -0.9720   -1.6110  -20.9530 O.2    40  TRP40      -0.2733
      5  CB        -0.3520   -1.0340  -24.1210 C.3    40  TRP40       0.0563
      6  CG        -1.8530   -0.8750  -23.9040 C.ar   40  TRP40       0.0003
      7  CD1       -2.8340   -1.7600  -24.2660 C.ar   40  TRP40       0.0946
      8  CD2       -2.5310    0.2290  -23.2730 C.ar   40  TRP40       0.0152
      9  NE1       -4.0760   -1.2760  -23.9070 N.ar   40  TRP40      -0.2442
     10  CE2       -3.9170   -0.0610  -23.2950 C.ar   40  TRP40       0.0810
     11  CE3       -2.1020    1.4280  -22.6880 C.ar   40  TRP40       0.0012
     12  CZ2       -4.8710    0.8060  -22.7590 C.ar   40  TRP40       0.0191
     13  CZ3       -3.0530    2.2900  -22.1550 C.ar   40  TRP40       0.0001
     14  CH2       -4.4220    1.9740  -22.1960 C.ar   40  TRP40       0.0015
     15  N         -0.0780   -3.4140  -21.9510 N.am   41  PRO41      -0.2718
     16  CA        -0.7870   -4.2590  -20.9820 C.3    41  PRO41       0.1535
     17  C         -0.2900   -4.0740  -19.5530 C.2    41  PRO41       0.2598
     18  O         -0.9640   -4.4990  -18.6270 O.2    41  PRO41      -0.2715
     19  CB        -0.4590   -5.6820  -21.4490 C.3    41  PRO41       0.0310
     20  CG        -0.0720   -5.5240  -22.8910 C.3    41  PRO41       0.0237
     21  CD         0.6460   -4.2210  -22.9470 C.3    41  PRO41       0.0939
     22  N          0.8650   -3.4450  -19.3790 N.am   42  PHE42      -0.1974
     23  CA         1.4760   -3.3370  -18.0610 C.3    42  PHE42       0.1639
     24  C          1.4430   -1.9190  -17.4820 C.2    42  PHE42       0.2290
     25  O          1.9910   -1.6640  -16.4040 O.2    42  PHE42      -0.2864
     26  CB         2.9020   -3.8740  -18.1310 C.3    42  PHE42       0.0560
     27  CG         2.9830   -5.2400  -18.7470 C.ar   42  PHE42      -0.0200
     28  CD1        2.7160   -6.3730  -17.9890 C.ar   42  PHE42      -0.0042
     29  CD2        3.2850   -5.3920  -20.0960 C.ar   42  PHE42      -0.0042
     30  CE1        2.7730   -7.6450  -18.5620 C.ar   42  PHE42      -0.0003
     31  CE2        3.3430   -6.6500  -20.6780 C.ar   42  PHE42      -0.0003
     32  CZ         3.0860   -7.7780  -19.9120 C.ar   42  PHE42      -0.0000
     33  N         -1.1970   -0.3190  -16.4120 N.3    44  GLN44      -0.1245
     34  CA        -2.2770   -0.1750  -15.4340 C.3    44  GLN44       0.1566
     35  C         -2.5520   -1.5260  -14.7800 C.2    44  GLN44       0.2260
     36  O         -2.1700   -2.5580  -15.3270 O.2    44  GLN44      -0.2867
     37  CB        -3.5550    0.3440  -16.1130 C.3    44  GLN44       0.0367
     38  CG        -4.1080   -0.5950  -17.2040 C.3    44  GLN44       0.0905
     39  CD        -3.2900   -0.5790  -18.5140 C.2    44  GLN44       0.2608
     40  OE1       -3.0630    0.4810  -19.1170 O.2    44  GLN44      -0.2717
     41  NE2       -2.8570   -1.7630  -18.9580 N.am   44  GLN44      -0.0878
     42  N         -4.1180   -5.0030  -13.9190 N.3    46  VAL46      -0.1245
     43  CA        -4.8770   -5.9130  -14.7610 C.3    46  VAL46       0.1561
     44  C         -6.3560   -5.7150  -14.4590 C.2    46  VAL46       0.2260
     45  O         -6.7910   -5.8420  -13.3120 O.2    46  VAL46      -0.2867
     46  CB        -4.4670   -7.3880  -14.5400 C.3    46  VAL46       0.0252
     47  CG1       -5.3490   -8.3150  -15.3570 C.3    46  VAL46       0.0019
     48  CG2       -3.0020   -7.5840  -14.9030 C.3    46  VAL46       0.0019
     49  N        -11.0040   -7.6240  -19.3250 N.3    51  LEU51      -0.1245
     50  CA       -10.2910   -8.6380  -20.1050 C.3    51  LEU51       0.1561
     51  C        -10.9600  -10.0080  -20.0220 C.2    51  LEU51       0.2260
     52  O        -10.4850  -10.9720  -20.6240 O.2    51  LEU51      -0.2867
     53  CB        -8.8410   -8.7760  -19.6280 C.3    51  LEU51       0.0270
     54  CG        -7.9480   -7.5530  -19.7780 C.3    51  LEU51       0.0019
     55  CD1       -6.5770   -7.8170  -19.1330 C.3    51  LEU51       0.0001
     56  CD2       -7.8020   -7.1780  -21.2480 C.3    51  LEU51       0.0001
     57  N        -11.2190  -12.2060  -17.3140 N.3    53  LEU53      -0.1245
     58  CA       -10.3320  -13.1670  -16.6570 C.3    53  LEU53       0.1561
     59  C        -10.7260  -13.2740  -15.1840 C.2    53  LEU53       0.2260
     60  O         -9.9840  -12.8310  -14.3070 O.2    53  LEU53      -0.2867
     61  CB        -8.8720  -12.7100  -16.7570 C.3    53  LEU53       0.0270
     62  CG        -8.2760  -12.4320  -18.1370 C.3    53  LEU53       0.0019
     63  CD1       -6.9580  -11.6840  -18.0090 C.3    53  LEU53       0.0001
     64  CD2       -8.0850  -13.7360  -18.9100 C.3    53  LEU53       0.0001
     65  N         -8.2880  -14.2370  -12.3270 N.3    56  TYR56      -0.1241
     66  CA        -6.9790  -13.5890  -12.2130 C.3    56  TYR56       0.1605
     67  C         -6.6080  -13.2900  -10.7660 C.2    56  TYR56       0.2264
     68  O         -5.5280  -13.6520  -10.3150 O.2    56  TYR56      -0.2867
     69  CB        -6.8770  -12.3050  -13.0540 C.3    56  TYR56       0.0534
     70  CG        -5.4760  -11.6980  -12.9950 C.ar   56  TYR56      -0.0201
     71  CD1       -4.4430  -12.2210  -13.7740 C.ar   56  TYR56      -0.0009
     72  CD2       -5.1770  -10.6470  -12.1330 C.ar   56  TYR56      -0.0009
     73  CE1       -3.1570  -11.7070  -13.7170 C.ar   56  TYR56       0.0417
     74  CE2       -3.8800  -10.1110  -12.0680 C.ar   56  TYR56       0.0417
     75  CZ        -2.8770  -10.6460  -12.8700 C.ar   56  TYR56       0.1957
     76  OH        -1.5880  -10.1510  -12.8250 O.3    56  TYR56      -0.2866
     77  N          5.6470   -7.6530  -10.9430 N.3    91  MET91      -0.1245
     78  CA         4.8440   -7.4760  -12.1440 C.3    91  MET91       0.1570
     79  C          5.1350   -8.5620  -13.1820 C.2    91  MET91       0.2261
     80  O          4.2170   -9.1710  -13.7380 O.2    91  MET91      -0.2867
     81  CB         5.1130   -6.1030  -12.7520 C.3    91  MET91       0.0387
     82  CG         4.3220   -5.8370  -14.0140 C.3    91  MET91       0.0595
     83  SD         4.7140   -4.2070  -14.6530 S.3    91  MET91      -0.1393
     84  CE         6.2630   -4.5490  -15.4870 C.3    91  MET91       0.0692
     85  N          4.0720  -12.2000  -11.9160 N.3    94  ASN94      -0.1225
     86  CA         2.6220  -12.3700  -11.9810 C.3    94  ASN94       0.1785
     87  C          2.1620  -12.8050  -13.3640 C.2    94  ASN94       0.2597
     88  O          1.3180  -13.6850  -13.4910 O.2    94  ASN94      -0.2718
     89  CB         1.8920  -11.0780  -11.6300 C.3    94  ASN94       0.1169
     90  CG         1.9870  -10.7320  -10.1540 C.2    94  ASN94       0.2627
     91  OD1        2.3790  -11.5630   -9.3310 O.2    94  ASN94      -0.2716
     92  ND2        1.6060   -9.5080   -9.8140 N.am   94  ASN94      -0.0877
     93  N          2.7020  -12.1540  -14.3870 N.am   95  CYS95      -0.1970
     94  CA         2.3850  -12.4960  -15.7660 C.3    95  CYS95       0.1712
     95  C          2.8040  -13.9370  -16.0600 C.2    95  CYS95       0.2296
     96  O          2.0420  -14.7030  -16.6590 O.2    95  CYS95      -0.2864
     97  CB         3.0890  -11.5190  -16.7200 C.3    95  CYS95       0.0983
     98  SG         2.6270  -11.6870  -18.4600 S.3    95  CYS95      -0.0798
     99  N          0.4630  -16.4430  -14.1460 N.3    98  TYR98      -0.1227
    100  CA        -0.9050  -16.5180  -14.6440 C.3    98  TYR98       0.1736
    101  C         -1.0010  -17.1510  -16.0440 C.2    98  TYR98       0.2595
    102  O         -1.9240  -17.9250  -16.3300 O.2    98  TYR98      -0.2718
    103  CB        -1.5810  -15.1270  -14.6280 C.3    98  TYR98       0.0548
    104  CG        -3.0290  -15.2220  -15.0610 C.ar   98  TYR98      -0.0200
    105  CD1       -3.9910  -15.7640  -14.2090 C.ar   98  TYR98      -0.0009
    106  CD2       -3.4200  -14.8410  -16.3400 C.ar   98  TYR98      -0.0009
    107  CE1       -5.3140  -15.8940  -14.6100 C.ar   98  TYR98       0.0417
    108  CE2       -4.7430  -14.9740  -16.7560 C.ar   98  TYR98       0.0417
    109  CZ        -5.6800  -15.5040  -15.8860 C.ar   98  TYR98       0.1957
    110  OH        -6.9930  -15.6220  -16.2820 O.3    98  TYR98      -0.2866
    111  N         -0.0380  -16.8400  -16.9060 N.am   99  ASN99      -0.1974
    112  CA        -0.1050  -17.2360  -18.3120 C.3    99  ASN99       0.1688
    113  C          0.7890  -18.4250  -18.6450 C.2    99  ASN99       0.2292
    114  O          1.6530  -18.7960  -17.8590 O.2    99  ASN99      -0.2864
    115  CB         0.2810  -16.0590  -19.1980 C.3    99  ASN99       0.1181
    116  CG        -0.6200  -14.8700  -19.0050 C.2    99  ASN99       0.2629
    117  OD1       -0.2300  -13.8710  -18.3920 O.2    99  ASN99      -0.2716
    118  ND2       -1.8350  -14.9650  -19.5250 N.am   99  ASN99      -0.0877
    119  N          1.3890  -12.6480  -24.6180 N.3   105  ILE105     -0.1245
    120  CA         1.5150  -11.7490  -23.4730 C.3   105  ILE105      0.1561
    121  C          2.7800  -12.0400  -22.6530 C.2   105  ILE105      0.2260
    122  O          3.4140  -11.1220  -22.1250 O.2   105  ILE105     -0.2867
    123  CB         0.2200  -11.7360  -22.5930 C.3   105  ILE105      0.0252
    124  CG1        0.2450  -10.5730  -21.6000 C.3   105  ILE105      0.0019
    125  CG2       -0.0040  -13.0840  -21.8840 C.3   105  ILE105      0.0019
    126  CD1        0.2300   -9.1990  -22.2800 C.3   105  ILE105      0.0001
    127  N          5.8660  -10.7750  -24.5620 N.3   108  MET108     -0.1245
    128  CA         5.8950   -9.3270  -24.3770 C.3   108  MET108      0.1570
    129  C          6.5200   -8.9560  -23.0410 C.2   108  MET108      0.2261
    130  O          7.3790   -8.0670  -22.9680 O.2   108  MET108     -0.2867
    131  CB         4.4910   -8.7470  -24.4890 C.3   108  MET108      0.0387
    132  CG         3.8960   -8.8570  -25.8840 C.3   108  MET108      0.0595
    133  SD         2.2020   -8.2600  -25.9090 S.3   108  MET108     -0.1393
    134  CE         2.4230   -6.7130  -25.0650 C.3   108  MET108      0.0692
@<TRIPOS>BOND
     1   133   132    1
     2   133   134    1
     3   132   131    1
     4   119   120    1
     5   127   128    1
     6   131   128    1
     7   128   129    1
     8     7     9   ar
     9     7     6   ar
    10     5     6    1
    11     5     2    1
    12     9    10   ar
    13     6     8   ar
    14   120   121    1
    15   120   123    1
    16    10     8   ar
    17    10    12   ar
    18     8    11   ar
    19     1     2    1
    20   129   130    2
    21    21    20    1
    22    21    15    1
    23    20    19    1
    24     2     3    1
    25    12    14   ar
    26    11    13   ar
    27   121   122    2
    28   123   125    1
    29   123   124    1
    30   126   124    1
    31    14    13   ar
    32    15     3   am
    33    15    16    1
    34     3     4    2
    35    19    16    1
    36    56    54    1
    37    16    17    1
    38    31    29   ar
    39    31    32   ar
    40    52    51    2
    41    50    51    1
    42    50    53    1
    43    50    49    1
    44    29    27   ar
    45    32    30   ar
    46    54    53    1
    47    54    55    1
    48    17    22   am
    49    17    18    2
    50   118   116   am
    51    22    23    1
    52   115   116    1
    53   115   112    1
    54    40    39    2
    55   116   117    2
    56    41    39   am
    57    64    62    1
    58    27    26    1
    59    27    28   ar
    60   113   112    1
    61   113   114    2
    62    30    28   ar
    63    39    38    1
    64    98    97    1
    65   112   111    1
    66    62    63    1
    67    62    61    1
    68    26    23    1
    69    23    24    1
    70    24    25    2
    71    57    58    1
    72    38    37    1
    73   111   101   am
    74    61    58    1
    75   108   106   ar
    76   108   109   ar
    77    97    94    1
    78    96    95    2
    79    58    59    1
    80    33    34    1
    81   106   104   ar
    82   102   101    2
    83   110   109    1
    84    37    34    1
    85    95    94    1
    86   101   100    1
    87   109   107   ar
    88    94    93    1
    89    84    83    1
    90    34    35    1
    91    47    46    1
    92    36    35    2
    93    59    60    2
    94   104   103    1
    95   104   105   ar
    96    48    46    1
    97    43    46    1
    98    43    44    1
    99    43    42    1
   100    83    82    1
   101   100   103    1
   102   100    99    1
   103   107   105   ar
   104    44    45    2
   105    93    87   am
   106    82    81    1
   107    71    73   ar
   108    71    70   ar
   109    80    79    2
   110    73    75   ar
   111    88    87    2
   112    87    86    1
   113    79    78    1
   114    69    70    1
   115    69    66    1
   116    70    72   ar
   117    75    76    1
   118    75    74   ar
   119    81    78    1
   120    65    66    1
   121    66    67    1
   122    78    77    1
   123    72    74   ar
   124    86    85    1
   125    86    89    1
   126    89    90    1
   127    67    68    2
   128    90    92   am
   129    90    91    2
