@<TRIPOS>MOLECULE
tmp/4o78A00.pdb
 165 161 0 0 0
SMALL
GASTEIGER

@<TRIPOS>ATOM
      1  N        114.1790   -1.2870    2.3790 N.3    40  TRP40      -0.1228
      2  CA       114.0230   -2.6030    2.9840 C.3    40  TRP40       0.1722
      3  C        115.3260   -3.4060    3.2350 C.2    40  TRP40       0.2437
      4  O        115.4200   -4.0440    4.2800 O.2    40  TRP40      -0.2733
      5  CB       112.9580   -3.4390    2.2440 C.3    40  TRP40       0.0563
      6  CG       113.2520   -3.6210    0.7790 C.ar   40  TRP40       0.0003
      7  CD1      112.9030   -2.7780   -0.2450 C.ar   40  TRP40       0.0946
      8  CD2      114.0170   -4.6820    0.1880 C.ar   40  TRP40       0.0152
      9  NE1      113.4050   -3.2500   -1.4310 N.ar   40  TRP40      -0.2442
     10  CE2      114.0920   -4.4180   -1.1950 C.ar   40  TRP40       0.0810
     11  CE3      114.6370   -5.8340    0.6990 C.ar   40  TRP40       0.0012
     12  CZ2      114.7740   -5.2560   -2.0740 C.ar   40  TRP40       0.0191
     13  CZ3      115.3010   -6.6710   -0.1710 C.ar   40  TRP40       0.0001
     14  CH2      115.3710   -6.3720   -1.5430 C.ar   40  TRP40       0.0015
     15  N        116.3380   -3.3690    2.3340 N.am   41  PRO41      -0.2718
     16  CA       117.5480   -4.1410    2.6640 C.3    41  PRO41       0.1535
     17  C        118.3260   -3.5780    3.8410 C.2    41  PRO41       0.2598
     18  O        119.1670   -4.2710    4.3960 O.2    41  PRO41      -0.2715
     19  CB       118.4070   -4.0580    1.3880 C.3    41  PRO41       0.0310
     20  CG       117.4780   -3.6080    0.3060 C.3    41  PRO41       0.0237
     21  CD       116.4850   -2.7140    1.0200 C.3    41  PRO41       0.0939
     22  N        118.0610   -2.3190    4.1690 N.am   42  PHE42      -0.1974
     23  CA       118.8380   -1.5580    5.1320 C.3    42  PHE42       0.1639
     24  C        118.1220   -1.3970    6.4710 C.2    42  PHE42       0.2290
     25  O        118.6490   -0.7410    7.3580 O.2    42  PHE42      -0.2864
     26  CB       119.1480   -0.1750    4.5420 C.3    42  PHE42       0.0560
     27  CG       119.8060   -0.2470    3.2100 C.ar   42  PHE42      -0.0200
     28  CD1      121.1680   -0.4830    3.0990 C.ar   42  PHE42      -0.0042
     29  CD2      119.0610   -0.0960    2.0510 C.ar   42  PHE42      -0.0042
     30  CE1      121.7790   -0.5720    1.8620 C.ar   42  PHE42      -0.0003
     31  CE2      119.6710   -0.1880    0.7950 C.ar   42  PHE42      -0.0003
     32  CZ       121.0250   -0.4360    0.7090 C.ar   42  PHE42      -0.0000
     33  N        117.5730   -3.6250    8.7530 N.3    44  GLN44      -0.1231
     34  CA       118.0710   -4.5480    9.7660 C.3    44  GLN44       0.1683
     35  C        119.5020   -4.9200    9.3870 C.2    44  GLN44       0.2434
     36  O        119.8980   -4.7490    8.2410 O.2    44  GLN44      -0.2733
     37  CB       117.1950   -5.8100    9.8320 C.3    44  GLN44       0.0380
     38  CG       117.1090   -6.5710    8.4960 C.3    44  GLN44       0.0905
     39  CD       116.1970   -5.8870    7.4790 C.2    44  GLN44       0.2608
     40  OE1      115.0950   -5.4580    7.8100 O.2    44  GLN44      -0.2717
     41  NE2      116.6730   -5.7530    6.2420 N.am   44  GLN44      -0.0878
     42  N        120.2880   -5.4500   10.3360 N.am   45  PRO45      -0.2718
     43  CA       121.6350   -5.9360   10.0130 C.3    45  PRO45       0.1535
     44  C        121.6280   -6.9400    8.8710 C.2    45  PRO45       0.2598
     45  O        120.6750   -7.7130    8.7120 O.2    45  PRO45      -0.2715
     46  CB       122.0890   -6.5940   11.3190 C.3    45  PRO45       0.0310
     47  CG       121.3630   -5.8480   12.3750 C.3    45  PRO45       0.0237
     48  CD       119.9910   -5.5800   11.7710 C.3    45  PRO45       0.0939
     49  N        122.6920   -6.9440    8.0760 N.am   46  VAL46      -0.1964
     50  CA       122.8280   -7.9510    7.0430 C.3    46  VAL46       0.1727
     51  C        122.8410   -9.3510    7.6750 C.2    46  VAL46       0.2616
     52  O        123.6750   -9.6410    8.5300 O.2    46  VAL46      -0.2715
     53  CB       124.1170   -7.7260    6.2390 C.3    46  VAL46       0.0290
     54  CG1      124.3690   -8.8670    5.2670 C.3    46  VAL46       0.0023
     55  CG2      124.0480   -6.4130    5.4860 C.3    46  VAL46       0.0023
     56  N        121.9420  -10.2200    7.2250 N.am   47  ASP47      -0.1971
     57  CA       121.8830  -11.6020    7.6950 C.3    47  ASP47       0.1709
     58  C        122.6300  -12.4600    6.6860 C.2    47  ASP47       0.2293
     59  O        122.0600  -12.9180    5.6980 O.2    47  ASP47      -0.2864
     60  CB       120.4340  -12.0670    7.8390 C.3    47  ASP47       0.1436
     61  CG       120.3160  -13.4680    8.4380 C.2    47  ASP47       0.3671
     62  OD1      121.3210  -14.2000    8.4650 O.co2  47  ASP47      -0.2456
     63  OD2      119.2090  -13.8310    8.8860 O.co2  47  ASP47      -0.2456
     64  N        121.0330  -14.9720    3.7790 N.3    51  LEU51      -0.1245
     65  CA       121.2550  -14.4120    2.4470 C.3    51  LEU51       0.1561
     66  C        122.4350  -15.0550    1.7260 C.2    51  LEU51       0.2260
     67  O        122.7680  -14.6710    0.6120 O.2    51  LEU51      -0.2867
     68  CB       121.4540  -12.9000    2.5500 C.3    51  LEU51       0.0270
     69  CG       120.2600  -12.1570    3.1520 C.3    51  LEU51       0.0019
     70  CD1      120.6450  -10.7160    3.5050 C.3    51  LEU51       0.0001
     71  CD2      119.0680  -12.1660    2.1970 C.3    51  LEU51       0.0001
     72  N        125.7910  -15.0410    2.2690 N.3    53  LEU53      -0.1245
     73  CA       126.8850  -14.0990    2.0410 C.3    53  LEU53       0.1561
     74  C        128.0430  -14.4560    2.9620 C.2    53  LEU53       0.2260
     75  O        128.3440  -13.7170    3.9030 O.2    53  LEU53      -0.2867
     76  CB       126.4360  -12.6660    2.3160 C.3    53  LEU53       0.0270
     77  CG       125.2500  -12.1480    1.5200 C.3    53  LEU53       0.0019
     78  CD1      124.7700  -10.8360    2.1530 C.3    53  LEU53       0.0001
     79  CD2      125.6310  -11.9490    0.0650 C.3    53  LEU53       0.0001
     80  N        130.6070  -11.7160    3.7750 N.3    56  TYR56      -0.1241
     81  CA       130.2000  -10.3500    4.1150 C.3    56  TYR56       0.1605
     82  C        130.9520   -9.8220    5.3380 C.2    56  TYR56       0.2264
     83  O        131.5720   -8.7500    5.2810 O.2    56  TYR56      -0.2867
     84  CB       128.6780  -10.2440    4.3250 C.3    56  TYR56       0.0534
     85  CG       128.2910   -8.8100    4.5510 C.ar   56  TYR56      -0.0201
     86  CD1      128.1680   -7.9350    3.4920 C.ar   56  TYR56      -0.0009
     87  CD2      128.1240   -8.3030    5.8350 C.ar   56  TYR56      -0.0009
     88  CE1      127.8850   -6.5980    3.6950 C.ar   56  TYR56       0.0417
     89  CE2      127.8380   -6.9660    6.0470 C.ar   56  TYR56       0.0417
     90  CZ       127.7210   -6.1200    4.9780 C.ar   56  TYR56       0.1957
     91  OH       127.4430   -4.7980    5.2020 O.3    56  TYR56      -0.2866
     92  N        126.7180   -1.5410    9.7440 N.3    64  MET64      -0.1245
     93  CA       125.7230   -0.6070   10.2450 C.3    64  MET64       0.1570
     94  C        124.5050   -0.6770    9.3510 C.2    64  MET64       0.2261
     95  O        124.6060   -0.9810    8.1590 O.2    64  MET64      -0.2867
     96  CB       126.2990    0.8080   10.2560 C.3    64  MET64       0.0387
     97  CG       125.4250    1.8830   10.9370 C.3    64  MET64       0.0595
     98  SD       124.7900    1.4340   12.5680 S.3    64  MET64      -0.1393
     99  CE       126.3220    1.1340   13.4690 C.3    64  MET64       0.0692
    100  N        127.1180    2.9480    6.9240 N.3    91  MET91      -0.1245
    101  CA       126.1690    2.1030    6.2100 C.3    91  MET91       0.1570
    102  C        126.3430    2.1840    4.6950 C.2    91  MET91       0.2261
    103  O        126.4080    1.1560    4.0060 O.2    91  MET91      -0.2867
    104  CB       124.7540    2.4790    6.6020 C.3    91  MET91       0.0387
    105  CG       123.6850    1.6400    5.8980 C.3    91  MET91       0.0595
    106  SD       122.0140    2.1110    6.3880 S.3    91  MET91      -0.1393
    107  CE       121.8540    3.6110    5.4060 C.3    91  MET91       0.0692
    108  N        128.5700   -0.6040    1.6280 N.3    95  CYS95      -0.1235
    109  CA       128.0750   -1.1330    0.3700 C.3    95  CYS95       0.1677
    110  C        129.0780   -0.8820   -0.7540 C.2    95  CYS95       0.2270
    111  O        129.2890   -1.7370   -1.6180 O.2    95  CYS95      -0.2867
    112  CB       126.7580   -0.4700   -0.0030 C.3    95  CYS95       0.0956
    113  SG       125.4020   -0.7150    1.1310 S.3    95  CYS95      -0.0801
    114  N        131.8390   -3.5170   -0.3220 N.3    98  TYR98      -0.1227
    115  CA       131.4960   -4.9230   -0.5180 C.3    98  TYR98       0.1736
    116  C        131.0200   -5.2050   -1.9370 C.2    98  TYR98       0.2595
    117  O        131.4330   -6.1720   -2.5680 O.2    98  TYR98      -0.2718
    118  CB       130.4050   -5.3650    0.4820 C.3    98  TYR98       0.0548
    119  CG       130.0830   -6.8230    0.3320 C.ar   98  TYR98      -0.0200
    120  CD1      130.9170   -7.7910    0.8620 C.ar   98  TYR98      -0.0009
    121  CD2      128.9940   -7.2320   -0.4030 C.ar   98  TYR98      -0.0009
    122  CE1      130.6620   -9.1410    0.6790 C.ar   98  TYR98       0.0417
    123  CE2      128.7230   -8.5770   -0.5960 C.ar   98  TYR98       0.0417
    124  CZ       129.5600   -9.5260   -0.0620 C.ar   98  TYR98       0.1957
    125  OH       129.2640  -10.8480   -0.2820 O.3    98  TYR98      -0.2866
    126  N        130.1030   -4.3790   -2.4170 N.am   99  ASN99      -0.1974
    127  CA       129.4680   -4.6140   -3.7000 C.3    99  ASN99       0.1688
    128  C        130.3180   -4.1470   -4.8660 C.2    99  ASN99       0.2292
    129  O        131.3110   -3.4450   -4.7010 O.2    99  ASN99      -0.2864
    130  CB       128.1220   -3.9160   -3.7240 C.3    99  ASN99       0.1181
    131  CG       127.1190   -4.5700   -2.8290 C.2    99  ASN99       0.2629
    132  OD1      126.8740   -4.1100   -1.7170 O.2    99  ASN99      -0.2716
    133  ND2      126.5370   -5.6490   -3.2960 N.am   99  ASN99      -0.0877
    134  N        125.5060   -3.5190   -8.9440 N.3   103  ASP103     -0.1225
    135  CA       124.7590   -4.4090   -8.0490 C.3   103  ASP103      0.1805
    136  C        123.4840   -3.7220   -7.5720 C.2   103  ASP103      0.2598
    137  O        123.4770   -2.5150   -7.3070 O.2   103  ASP103     -0.2718
    138  CB       125.5970   -4.7790   -6.8200 C.3   103  ASP103      0.1424
    139  CG       126.5920   -5.8870   -7.0630 C.2   103  ASP103      0.3668
    140  OD1      126.5800   -6.5230   -8.1340 O.co2 103  ASP103     -0.2456
    141  OD2      127.4130   -6.1230   -6.1470 O.co2 103  ASP103     -0.2456
    142  N        122.4280   -4.5010   -7.3770 N.am  104  ASP104     -0.1960
    143  CA       121.1630   -3.9650   -6.8780 C.3   104  ASP104      0.1840
    144  C        121.3860   -3.1120   -5.6280 C.2   104  ASP104      0.2621
    145  O        120.8630   -2.0010   -5.4980 O.2   104  ASP104     -0.2715
    146  CB       120.2020   -5.0950   -6.4860 C.3   104  ASP104      0.1450
    147  CG       119.6930   -5.9260   -7.6560 C.2   104  ASP104      0.3671
    148  OD1      119.9880   -5.6220   -8.8240 O.co2 104  ASP104     -0.2456
    149  OD2      118.9890   -6.9180   -7.3680 O.co2 104  ASP104     -0.2456
    150  N        122.1220   -3.6530   -4.6700 N.am  105  ILE105     -0.1977
    151  CA       122.2550   -3.0130   -3.3710 C.3   105  ILE105      0.1596
    152  C        123.0090   -1.6960   -3.4970 C.2   105  ILE105      0.2287
    153  O        122.7160   -0.7380   -2.8060 O.2   105  ILE105     -0.2864
    154  CB       122.9090   -3.9730   -2.3530 C.3   105  ILE105      0.0276
    155  CG1      121.9500   -5.1360   -2.0180 C.3   105  ILE105      0.0022
    156  CG2      123.3600   -3.2350   -1.0970 C.3   105  ILE105      0.0022
    157  CD1      120.7160   -4.7550   -1.2290 C.3   105  ILE105      0.0001
    158  N        120.6860    0.9420   -4.9560 N.3   108  MET108     -0.1245
    159  CA       119.7460    1.3490   -3.9180 C.3   108  MET108      0.1570
    160  C        120.4140    2.2630   -2.8770 C.2   108  MET108      0.2261
    161  O        119.8570    3.2920   -2.4810 O.2   108  MET108     -0.2867
    162  CB       119.1450    0.1030   -3.2670 C.3   108  MET108      0.0387
    163  CG       118.2900   -0.6970   -4.2570 C.3   108  MET108      0.0595
    164  SD       117.7990   -2.3240   -3.6580 S.3   108  MET108     -0.1393
    165  CE       116.4180   -1.9100   -2.5880 C.3   108  MET108      0.0692
@<TRIPOS>BOND
     1   134   135    1
     2   148   147   ar
     3   140   139   ar
     4   135   136    1
     5   135   138    1
     6   147   149   ar
     7   147   146    1
     8   136   142   am
     9   136   137    2
    10   142   143    1
    11   139   138    1
    12   139   141   ar
    13   143   146    1
    14   143   144    1
    15   144   145    2
    16   144   150   am
    17   158   159    1
    18   128   129    2
    19   128   127    1
    20   150   151    1
    21   163   164    1
    22   163   162    1
    23   159   162    1
    24   159   160    1
    25   130   127    1
    26   130   131    1
    27   127   126    1
    28   164   165    1
    29   152   151    1
    30   152   153    2
    31   151   154    1
    32   133   131   am
    33   160   161    2
    34   131   132    2
    35   117   116    2
    36   126   116   am
    37   154   155    1
    38   154   156    1
    39    12    14   ar
    40    12    10   ar
    41   155   157    1
    42   116   115    1
    43   111   110    2
    44    14    13   ar
    45     9    10   ar
    46     9     7   ar
    47    10     8   ar
    48   110   109    1
    49   123   121   ar
    50   123   124   ar
    51   115   114    1
    52   115   118    1
    53   121   119   ar
    54   125   124    1
    55     7     6   ar
    56    13    11   ar
    57   124   122   ar
    58   112   109    1
    59   112   113    1
    60    79    77    1
    61     8    11   ar
    62     8     6   ar
    63    20    21    1
    64    20    19    1
    65   119   118    1
    66   119   120   ar
    67   109   108    1
    68    67    66    2
    69   122   120   ar
    70    32    31   ar
    71    32    30   ar
    72     6     5    1
    73    31    29   ar
    74    21    15    1
    75    19    16    1
    76    77    78    1
    77    77    76    1
    78    66    65    1
    79    30    28   ar
    80    73    72    1
    81    73    76    1
    82    73    74    1
    83    29    27   ar
    84    71    69    1
    85     5     2    1
    86    15    16    1
    87    15     3   am
    88     1     2    1
    89    65    68    1
    90    65    64    1
    91    68    69    1
    92    16    17    1
    93    74    75    2
    94     2     3    1
    95    28    27   ar
    96    69    70    1
    97    27    26    1
    98     3     4    2
    99    86    88   ar
   100    86    85   ar
   101    88    90   ar
   102    80    81    1
   103    17    22   am
   104    17    18    2
   105   103   102    2
   106    81    84    1
   107    81    82    1
   108    22    23    1
   109    84    85    1
   110    26    23    1
   111    85    87   ar
   112   102   101    1
   113    90    91    1
   114    90    89   ar
   115    23    24    1
   116    54    53    1
   117    83    82    2
   118   107   106    1
   119    55    53    1
   120    59    58    2
   121    87    89   ar
   122   105   106    1
   123   105   104    1
   124   101   104    1
   125   101   100    1
   126    53    50    1
   127    41    39   am
   128    24    25    2
   129    58    57    1
   130    50    51    1
   131    50    49    1
   132    56    51   am
   133    56    57    1
   134    39    40    2
   135    39    38    1
   136    51    52    2
   137    57    60    1
   138    60    61    1
   139    49    44   am
   140    95    94    2
   141    36    35    2
   142    61    62   ar
   143    61    63   ar
   144    38    37    1
   145    45    44    2
   146    33    34    1
   147    44    43    1
   148    94    93    1
   149    35    34    1
   150    35    42   am
   151    92    93    1
   152    34    37    1
   153    43    42    1
   154    43    46    1
   155    93    96    1
   156    96    97    1
   157    42    48    1
   158    97    98    1
   159    46    47    1
   160    48    47    1
   161    98    99    1
