@<TRIPOS>MOLECULE
tmp/4o7aA00.pdb
 141 139 0 0 0
SMALL
GASTEIGER

@<TRIPOS>ATOM
      1  N        115.5030   -0.2750    1.0270 N.3    40  TRP40      -0.1228
      2  CA       115.3100   -1.6410    1.5130 C.3    40  TRP40       0.1722
      3  C        116.5760   -2.4950    1.7520 C.2    40  TRP40       0.2437
      4  O        116.6200   -3.2060    2.7450 O.2    40  TRP40      -0.2733
      5  CB       114.2430   -2.3980    0.6840 C.3    40  TRP40       0.0563
      6  CG       114.5750   -2.5660   -0.7650 C.ar   40  TRP40       0.0003
      7  CD1      114.2410   -1.7240   -1.7770 C.ar   40  TRP40       0.0946
      8  CD2      115.3150   -3.6400   -1.3630 C.ar   40  TRP40       0.0152
      9  NE1      114.7290   -2.1990   -2.9760 N.ar   40  TRP40      -0.2442
     10  CE2      115.3980   -3.3700   -2.7450 C.ar   40  TRP40       0.0810
     11  CE3      115.9220   -4.8060   -0.8620 C.ar   40  TRP40       0.0012
     12  CZ2      116.0550   -4.2190   -3.6320 C.ar   40  TRP40       0.0191
     13  CZ3      116.5740   -5.6460   -1.7530 C.ar   40  TRP40       0.0001
     14  CH2      116.6450   -5.3390   -3.1100 C.ar   40  TRP40       0.0015
     15  N        117.6160   -2.4150    0.8860 N.am   41  PRO41      -0.2718
     16  CA       118.8010   -3.2360    1.1790 C.3    41  PRO41       0.1535
     17  C        119.5380   -2.8020    2.4420 C.2    41  PRO41       0.2598
     18  O        120.3340   -3.5870    2.9590 O.2    41  PRO41      -0.2715
     19  CB       119.6960   -3.0170   -0.0440 C.3    41  PRO41       0.0310
     20  CG       118.7660   -2.5070   -1.1230 C.3    41  PRO41       0.0237
     21  CD       117.7900   -1.6580   -0.3680 C.3    41  PRO41       0.0939
     22  N        119.2700   -1.5900    2.9280 N.am   42  PHE42      -0.1974
     23  CA       120.0080   -0.9540    3.9930 C.3    42  PHE42       0.1639
     24  C        119.2160   -0.8930    5.2950 C.2    42  PHE42       0.2290
     25  O        119.7000   -0.3290    6.2620 O.2    42  PHE42      -0.2864
     26  CB       120.4030    0.4490    3.5150 C.3    42  PHE42       0.0560
     27  CG       121.2220    0.4360    2.2500 C.ar   42  PHE42      -0.0200
     28  CD1      122.5630    0.0580    2.2330 C.ar   42  PHE42      -0.0042
     29  CD2      120.6190    0.7590    1.0560 C.ar   42  PHE42      -0.0042
     30  CE1      123.2830    0.0280    1.0430 C.ar   42  PHE42      -0.0003
     31  CE2      121.3320    0.7330   -0.1210 C.ar   42  PHE42      -0.0003
     32  CZ       122.6650    0.3660   -0.1220 C.ar   42  PHE42      -0.0000
     33  N        118.4490   -3.2900    7.3800 N.3    44  GLN44      -0.1231
     34  CA       118.7980   -4.3540    8.3270 C.3    44  GLN44       0.1683
     35  C        120.2170   -4.8060    8.0190 C.2    44  GLN44       0.2434
     36  O        120.7190   -4.5660    6.9210 O.2    44  GLN44      -0.2733
     37  CB       117.8180   -5.5500    8.2210 C.3    44  GLN44       0.0380
     38  CG       117.7840   -6.2100    6.8260 C.3    44  GLN44       0.0905
     39  CD       117.0720   -5.3410    5.7890 C.2    44  GLN44       0.2608
     40  OE1      115.9410   -4.9030    6.0120 O.2    44  GLN44      -0.2717
     41  NE2      117.7290   -5.0780    4.6610 N.am   44  GLN44      -0.0878
     42  N        120.8700   -5.4820    8.9760 N.am   45  PRO45      -0.2718
     43  CA       122.1870   -6.0620    8.6920 C.3    45  PRO45       0.1535
     44  C        122.1660   -6.9590    7.4590 C.2    45  PRO45       0.2598
     45  O        121.1810   -7.6350    7.1630 O.2    45  PRO45      -0.2715
     46  CB       122.4860   -6.8820    9.9530 C.3    45  PRO45       0.0310
     47  CG       121.7760   -6.1280   11.0390 C.3    45  PRO45       0.0237
     48  CD       120.4810   -5.6960   10.3860 C.3    45  PRO45       0.0939
     49  N        123.2650   -6.9540    6.7230 N.am   46  VAL46      -0.1964
     50  CA       123.4090   -7.8290    5.5800 C.3    46  VAL46       0.1727
     51  C        123.3790   -9.2900    6.0610 C.2    46  VAL46       0.2616
     52  O        124.2050   -9.7060    6.8850 O.2    46  VAL46      -0.2715
     53  CB       124.7280   -7.5420    4.8530 C.3    46  VAL46       0.0290
     54  CG1      125.0050   -8.6080    3.7610 C.3    46  VAL46       0.0023
     55  CG2      124.7150   -6.1190    4.2630 C.3    46  VAL46       0.0023
     56  N        122.4280  -10.0600    5.5320 N.am   47  ASP47      -0.1971
     57  CA       122.3250  -11.4940    5.8090 C.3    47  ASP47       0.1709
     58  C        123.1350  -12.2130    4.7400 C.2    47  ASP47       0.2293
     59  O        122.6520  -12.4930    3.6310 O.2    47  ASP47      -0.2864
     60  CB       120.8640  -11.9420    5.8100 C.3    47  ASP47       0.1436
     61  CG       120.7010  -13.4020    6.1830 C.2    47  ASP47       0.3671
     62  OD1      121.6850  -14.1520    6.0720 O.co2  47  ASP47      -0.2456
     63  OD2      119.5830  -13.8120    6.5660 O.co2  47  ASP47      -0.2456
     64  N        121.7500  -14.1480    1.3160 N.3    51  LEU51      -0.1245
     65  CA       122.2060  -13.4930    0.0810 C.3    51  LEU51       0.1561
     66  C        123.3460  -14.2310   -0.6310 C.2    51  LEU51       0.2260
     67  O        123.7770  -13.8180   -1.6940 O.2    51  LEU51      -0.2867
     68  CB       122.6070  -12.0450    0.3750 C.3    51  LEU51       0.0270
     69  CG       121.4800  -11.1590    0.9290 C.3    51  LEU51       0.0019
     70  CD1      121.9860   -9.7810    1.3220 C.3    51  LEU51       0.0001
     71  CD2      120.3250  -11.0480   -0.0400 C.3    51  LEU51       0.0001
     72  N        126.5940  -14.5000    0.1700 N.3    53  LEU53      -0.1245
     73  CA       127.7700  -13.6380    0.1140 C.3    53  LEU53       0.1561
     74  C        128.7390  -14.1290    1.1850 C.2    53  LEU53       0.2260
     75  O        128.9530  -13.4580    2.1850 O.2    53  LEU53      -0.2867
     76  CB       127.3750  -12.1780    0.3730 C.3    53  LEU53       0.0270
     77  CG       126.3190  -11.5970   -0.5590 C.3    53  LEU53       0.0019
     78  CD1      125.9620  -10.1830   -0.1210 C.3    53  LEU53       0.0001
     79  CD2      126.7550  -11.6450   -2.0190 C.3    53  LEU53       0.0001
     80  N        131.3530  -11.7290    2.5520 N.3    56  TYR56      -0.1241
     81  CA       130.9680  -10.3820    2.9560 C.3    56  TYR56       0.1605
     82  C        131.6520   -9.9360    4.2450 C.2    56  TYR56       0.2264
     83  O        132.2490   -8.8560    4.3150 O.2    56  TYR56      -0.2867
     84  CB       129.4490  -10.2390    3.1290 C.3    56  TYR56       0.0534
     85  CG       129.0540   -8.7900    3.3670 C.ar   56  TYR56      -0.0201
     86  CD1      128.9430   -7.8970    2.3080 C.ar   56  TYR56      -0.0009
     87  CD2      128.8600   -8.3000    4.6520 C.ar   56  TYR56      -0.0009
     88  CE1      128.6360   -6.5610    2.5220 C.ar   56  TYR56       0.0417
     89  CE2      128.5460   -6.9670    4.8780 C.ar   56  TYR56       0.0417
     90  CZ       128.4370   -6.1000    3.8160 C.ar   56  TYR56       0.1957
     91  OH       128.1330   -4.7630    4.0610 O.3    56  TYR56      -0.2866
     92  N        129.3690   -0.4770    1.3930 N.3    95  CYS95      -0.1235
     93  CA       128.7470   -0.8310    0.1270 C.3    95  CYS95       0.1677
     94  C        129.7340   -0.6160   -1.0340 C.2    95  CYS95       0.2270
     95  O        129.8820   -1.4670   -1.9070 O.2    95  CYS95      -0.2867
     96  CB       127.4850    0.0100   -0.0730 C.3    95  CYS95       0.0956
     97  SG       126.5760   -0.3850   -1.5680 S.3    95  CYS95      -0.0801
     98  N        132.6360   -3.2880   -0.8460 N.3    98  TYR98      -0.1227
     99  CA       132.2790   -4.6530   -1.2030 C.3    98  TYR98       0.1736
    100  C        131.9000   -4.8370   -2.6680 C.2    98  TYR98       0.2595
    101  O        132.2780   -5.8300   -3.2830 O.2    98  TYR98      -0.2718
    102  CB       131.1660   -5.1880   -0.2830 C.3    98  TYR98       0.0548
    103  CG       130.8780   -6.6450   -0.5610 C.ar   98  TYR98      -0.0200
    104  CD1      131.7510   -7.6300   -0.1530 C.ar   98  TYR98      -0.0009
    105  CD2      129.7590   -7.0190   -1.2640 C.ar   98  TYR98      -0.0009
    106  CE1      131.5140   -8.9510   -0.4470 C.ar   98  TYR98       0.0417
    107  CE2      129.5170   -8.3320   -1.5740 C.ar   98  TYR98       0.0417
    108  CZ       130.3810   -9.3010   -1.1490 C.ar   98  TYR98       0.1957
    109  OH       130.1140  -10.6130   -1.4850 O.3    98  TYR98      -0.2866
    110  N        131.1570   -3.8920   -3.2240 N.am   99  ASN99      -0.1974
    111  CA       130.5500   -4.0540   -4.5430 C.3    99  ASN99       0.1688
    112  C        131.3740   -3.4100   -5.6570 C.2    99  ASN99       0.2292
    113  O        132.4150   -2.8590   -5.4070 O.2    99  ASN99      -0.2864
    114  CB       129.1180   -3.5120   -4.4770 C.3    99  ASN99       0.1181
    115  CG       128.2700   -4.3070   -3.5230 C.2    99  ASN99       0.2629
    116  OD1      127.8620   -5.4150   -3.8330 O.2    99  ASN99      -0.2716
    117  ND2      128.0060   -3.7510   -2.3510 N.am   99  ASN99      -0.0877
    118  N        123.7880   -2.1850   -9.1310 N.3   104  ASP104     -0.1225
    119  CA       122.5470   -1.6060   -8.6240 C.3   104  ASP104      0.1805
    120  C        122.6930   -1.1330   -7.1910 C.2   104  ASP104      0.2597
    121  O        122.2550   -0.0400   -6.8600 O.2   104  ASP104     -0.2718
    122  CB       121.3810   -2.6050   -8.6960 C.3   104  ASP104      0.1424
    123  CG       120.7660   -2.7040  -10.0830 C.2   104  ASP104      0.3668
    124  OD1      121.0010   -1.8110  -10.9340 O.co2 104  ASP104     -0.2456
    125  OD2      120.0340   -3.6920  -10.3210 O.co2 104  ASP104     -0.2456
    126  N        123.2970   -1.9440   -6.3360 N.am  105  ILE105     -0.1980
    127  CA       123.3420   -1.6050   -4.9330 C.3   105  ILE105      0.1595
    128  C        124.1800   -0.3300   -4.7190 C.2   105  ILE105      0.2287
    129  O        123.8800    0.4600   -3.8400 O.2   105  ILE105     -0.2864
    130  CB       123.8590   -2.7950   -4.0900 C.3   105  ILE105      0.0276
    131  CG1      123.7100   -2.5240   -2.5950 C.3   105  ILE105      0.0022
    132  CG2      125.3220   -3.1340   -4.4130 C.3   105  ILE105      0.0022
    133  CD1      122.3020   -2.6120   -2.1100 C.3   105  ILE105      0.0001
    134  N        122.0890    2.6300   -5.6010 N.3   108  MET108     -0.1245
    135  CA       121.1350    2.8200   -4.5050 C.3   108  MET108      0.1570
    136  C        121.7890    3.5740   -3.3470 C.2   108  MET108      0.2261
    137  O        121.2480    4.5530   -2.8440 O.2   108  MET108     -0.2867
    138  CB       120.5790    1.4720   -4.0540 C.3   108  MET108      0.0387
    139  CG       119.7570    0.8080   -5.1510 C.3   108  MET108      0.0595
    140  SD       119.3710   -0.9190   -4.8800 S.3   108  MET108     -0.1393
    141  CE       117.8050   -0.7370   -4.0870 C.3   108  MET108      0.0692
@<TRIPOS>BOND
     1   124   123   ar
     2   125   123   ar
     3   123   122    1
     4   118   119    1
     5   122   119    1
     6   119   120    1
     7   120   121    2
     8   120   126   am
     9   126   127    1
    10   112   113    2
    11   112   111    1
    12   134   135    1
    13   139   140    1
    14   139   138    1
    15   127   128    1
    16   127   130    1
    17   140   141    1
    18   128   129    2
    19   111   114    1
    20   111   110    1
    21   135   138    1
    22   135   136    1
    23   114   115    1
    24   132   130    1
    25   130   131    1
    26   116   115    2
    27    12    14   ar
    28    12    10   ar
    29   115   117   am
    30   136   137    2
    31   101   100    2
    32   110   100   am
    33    14    13   ar
    34     9    10   ar
    35     9     7   ar
    36    10     8   ar
    37   100    99    1
    38   131   133    1
    39    79    77    1
    40    95    94    2
    41     7     6   ar
    42    13    11   ar
    43    67    66    2
    44   107   105   ar
    45   107   108   ar
    46    97    96    1
    47   109   108    1
    48     8    11   ar
    49     8     6   ar
    50   105   103   ar
    51    99    98    1
    52    99   102    1
    53   108   106   ar
    54    20    21    1
    55    20    19    1
    56    94    93    1
    57     6     5    1
    58    66    65    1
    59   103   102    1
    60   103   104   ar
    61    77    78    1
    62    77    76    1
    63   106   104   ar
    64    21    15    1
    65    32    31   ar
    66    32    30   ar
    67    31    29   ar
    68    96    93    1
    69    19    16    1
    70    71    69    1
    71    65    68    1
    72    65    64    1
    73    73    72    1
    74    73    76    1
    75    73    74    1
    76    93    92    1
    77    68    69    1
    78     5     2    1
    79    15    16    1
    80    15     3   am
    81    69    70    1
    82     1     2    1
    83    30    28   ar
    84    29    27   ar
    85    16    17    1
    86    74    75    2
    87     2     3    1
    88     3     4    2
    89    28    27   ar
    90    27    26    1
    91    86    88   ar
    92    86    85   ar
    93    17    22   am
    94    17    18    2
    95    88    90   ar
    96    80    81    1
    97    22    23    1
    98    81    84    1
    99    81    82    1
   100    84    85    1
   101    85    87   ar
   102    26    23    1
   103    59    58    2
   104    54    53    1
   105    90    91    1
   106    90    89   ar
   107    23    24    1
   108    82    83    2
   109    55    53    1
   110    87    89   ar
   111    41    39   am
   112    58    57    1
   113    53    50    1
   114    24    25    2
   115    56    57    1
   116    56    51   am
   117    50    51    1
   118    50    49    1
   119    39    40    2
   120    39    38    1
   121    57    60    1
   122    60    61    1
   123    51    52    2
   124    62    61   ar
   125    61    63   ar
   126    49    44   am
   127    38    37    1
   128    36    35    2
   129    45    44    2
   130    33    34    1
   131    44    43    1
   132    35    34    1
   133    35    42   am
   134    37    34    1
   135    43    42    1
   136    43    46    1
   137    42    48    1
   138    46    47    1
   139    48    47    1
