@<TRIPOS>MOLECULE
tmp/4o7bA00.pdb
 174 168 0 0 0
SMALL
GASTEIGER

@<TRIPOS>ATOM
      1  N        116.5170   -0.2770    1.0060 N.3    40  TRP40      -0.1228
      2  CA       116.3140   -1.6290    1.5350 C.3    40  TRP40       0.1722
      3  C        117.5810   -2.4790    1.7790 C.2    40  TRP40       0.2437
      4  O        117.6330   -3.1600    2.7810 O.2    40  TRP40      -0.2733
      5  CB       115.2550   -2.4140    0.7270 C.3    40  TRP40       0.0563
      6  CG       115.5690   -2.5720   -0.7140 C.ar   40  TRP40       0.0003
      7  CD1      115.2370   -1.7130   -1.7340 C.ar   40  TRP40       0.0946
      8  CD2      116.2810   -3.6550   -1.3190 C.ar   40  TRP40       0.0152
      9  NE1      115.7140   -2.1990   -2.9300 N.ar   40  TRP40      -0.2442
     10  CE2      116.3580   -3.3860   -2.7010 C.ar   40  TRP40       0.0810
     11  CE3      116.8840   -4.8210   -0.8220 C.ar   40  TRP40       0.0012
     12  CZ2      116.9990   -4.2470   -3.5930 C.ar   40  TRP40       0.0191
     13  CZ3      117.5270   -5.6610   -1.7100 C.ar   40  TRP40       0.0001
     14  CH2      117.5730   -5.3750   -3.0740 C.ar   40  TRP40       0.0015
     15  N        118.6180   -2.4190    0.9050 N.am   41  PRO41      -0.2718
     16  CA       119.7910   -3.2530    1.2130 C.3    41  PRO41       0.1535
     17  C        120.5650   -2.7880    2.4330 C.2    41  PRO41       0.2598
     18  O        121.4200   -3.5300    2.9250 O.2    41  PRO41      -0.2715
     19  CB       120.6760   -3.0840   -0.0280 C.3    41  PRO41       0.0310
     20  CG       119.7550   -2.5520   -1.1000 C.3    41  PRO41       0.0237
     21  CD       118.8150   -1.6840   -0.3560 C.3    41  PRO41       0.0939
     22  N        120.2750   -1.5690    2.8900 N.am   42  PHE42      -0.1974
     23  CA       121.0110   -0.9400    3.9680 C.3    42  PHE42       0.1639
     24  C        120.2310   -0.8870    5.2820 C.2    42  PHE42       0.2290
     25  O        120.7320   -0.3440    6.2720 O.2    42  PHE42      -0.2864
     26  CB       121.4140    0.4820    3.5450 C.3    42  PHE42       0.0560
     27  CG       122.1590    0.5240    2.2440 C.ar   42  PHE42      -0.0200
     28  CD1      123.5390    0.3970    2.2210 C.ar   42  PHE42      -0.0042
     29  CD2      121.4880    0.6780    1.0430 C.ar   42  PHE42      -0.0042
     30  CE1      124.2250    0.4060    1.0270 C.ar   42  PHE42      -0.0003
     31  CE2      122.1960    0.7040   -0.1480 C.ar   42  PHE42      -0.0003
     32  CZ       123.5490    0.5490   -0.1470 C.ar   42  PHE42      -0.0000
     33  N        119.3760   -3.2670    7.3750 N.3    44  GLN44      -0.1245
     34  CA       119.7180   -4.2790    8.3630 C.3    44  GLN44       0.1566
     35  C        121.1240   -4.7710    8.0510 C.2    44  GLN44       0.2260
     36  O        121.6270   -4.5360    6.9620 O.2    44  GLN44      -0.2867
     37  CB       118.7320   -5.4550    8.2900 C.3    44  GLN44       0.0367
     38  CG       118.6790   -6.1460    6.9160 C.3    44  GLN44       0.0905
     39  CD       117.9380   -5.3370    5.8820 C.2    44  GLN44       0.2608
     40  OE1      116.8100   -4.8970    6.1130 O.2    44  GLN44      -0.2717
     41  NE2      118.5680   -5.1320    4.7350 N.am   44  GLN44      -0.0878
     42  N        124.1550   -6.9400    6.7540 N.3    46  VAL46      -0.1231
     43  CA       124.2730   -7.7730    5.5750 C.3    46  VAL46       0.1692
     44  C        124.1950   -9.2410    5.9900 C.2    46  VAL46       0.2592
     45  O        124.9770   -9.7060    6.8180 O.2    46  VAL46      -0.2718
     46  CB       125.6010   -7.5220    4.8340 C.3    46  VAL46       0.0266
     47  CG1      125.7920   -8.5450    3.6720 C.3    46  VAL46       0.0020
     48  CG2      125.6810   -6.0750    4.3230 C.3    46  VAL46       0.0020
     49  N        123.2400   -9.9620    5.4180 N.am   47  ASP47      -0.1974
     50  CA       123.1000  -11.3890    5.6750 C.3    47  ASP47       0.1709
     51  C        123.9170  -12.1450    4.6450 C.2    47  ASP47       0.2293
     52  O        123.4250  -12.4660    3.5600 O.2    47  ASP47      -0.2864
     53  CB       121.6350  -11.8090    5.6250 C.3    47  ASP47       0.1436
     54  CG       121.4290  -13.2600    6.0290 C.2    47  ASP47       0.3671
     55  OD1      122.4110  -14.0330    6.0100 O.co2  47  ASP47      -0.2456
     56  OD2      120.2790  -13.6250    6.3460 O.co2  47  ASP47      -0.2456
     57  N        122.7110  -14.2250    1.1940 N.3    51  LEU51      -0.1245
     58  CA       123.1780  -13.6070   -0.0450 C.3    51  LEU51       0.1561
     59  C        124.3330  -14.3870   -0.6880 C.2    51  LEU51       0.2260
     60  O        124.8080  -14.0270   -1.7610 O.2    51  LEU51      -0.2867
     61  CB       123.6020  -12.1620    0.2220 C.3    51  LEU51       0.0270
     62  CG       122.4580  -11.2170    0.6130 C.3    51  LEU51       0.0019
     63  CD1      123.0110   -9.9190    1.1510 C.3    51  LEU51       0.0001
     64  CD2      121.5340  -10.9550   -0.5490 C.3    51  LEU51       0.0001
     65  N        127.5700  -14.7540    0.2950 N.3    53  LEU53      -0.1245
     66  CA       128.7760  -13.9340    0.2770 C.3    53  LEU53       0.1561
     67  C        129.6980  -14.3960    1.3900 C.2    53  LEU53       0.2260
     68  O        129.9160  -13.6720    2.3470 O.2    53  LEU53      -0.2867
     69  CB       128.4230  -12.4740    0.5410 C.3    53  LEU53       0.0270
     70  CG       127.3230  -11.8560   -0.2900 C.3    53  LEU53       0.0019
     71  CD1      127.1020  -10.4350    0.2210 C.3    53  LEU53       0.0001
     72  CD2      127.7050  -11.9040   -1.7440 C.3    53  LEU53       0.0001
     73  N        132.2120  -11.9700    2.7950 N.3    56  TYR56      -0.1241
     74  CA       131.8370  -10.6090    3.1730 C.3    56  TYR56       0.1605
     75  C        132.4590  -10.1810    4.5000 C.2    56  TYR56       0.2264
     76  O        133.1140   -9.1400    4.5700 O.2    56  TYR56      -0.2867
     77  CB       130.3130  -10.4090    3.2090 C.3    56  TYR56       0.0534
     78  CG       129.9840   -8.9490    3.4460 C.ar   56  TYR56      -0.0201
     79  CD1      129.9580   -8.0450    2.3830 C.ar   56  TYR56      -0.0009
     80  CD2      129.7540   -8.4630    4.7290 C.ar   56  TYR56      -0.0009
     81  CE1      129.7050   -6.7020    2.5900 C.ar   56  TYR56       0.0417
     82  CE2      129.5050   -7.1110    4.9390 C.ar   56  TYR56       0.0417
     83  CZ       129.4670   -6.2350    3.8580 C.ar   56  TYR56       0.1957
     84  OH       129.2400   -4.8790    4.0290 O.3    56  TYR56      -0.2866
     85  N        128.4600   -2.0270    9.2570 N.3    64  MET64      -0.1230
     86  CA       127.4920   -1.0700    9.7430 C.3    64  MET64       0.1702
     87  C        126.3420   -0.9880    8.7450 C.2    64  MET64       0.2592
     88  O        126.4950   -1.2730    7.5570 O.2    64  MET64      -0.2718
     89  CB       128.1460    0.2970    9.9280 C.3    64  MET64       0.0401
     90  CG       127.2600    1.3490   10.5930 C.3    64  MET64       0.0596
     91  SD       126.5110    0.8280   12.1750 S.3    64  MET64      -0.1393
     92  CE       127.9310    0.3960   13.1570 C.3    64  MET64       0.0692
     93  N        125.1750   -0.6380    9.2530 N.am   65  ASP65      -0.1974
     94  CA       123.9640   -0.5850    8.4550 C.3    65  ASP65       0.1709
     95  C        123.0020    0.3770    9.1280 C.2    65  ASP65       0.2293
     96  O        123.1890    0.7190   10.2920 O.2    65  ASP65      -0.2864
     97  CB       123.3400   -1.9730    8.3910 C.3    65  ASP65       0.1436
     98  CG       122.8660   -2.4310    9.7420 C.2    65  ASP65       0.3671
     99  OD1      123.7120   -2.9200   10.5180 O.co2  65  ASP65      -0.2456
    100  OD2      121.6670   -2.2540   10.0410 O.co2  65  ASP65      -0.2456
    101  N        129.2990    2.6770    6.7390 N.3    91  MET91      -0.1245
    102  CA       128.3440    1.9140    5.9580 C.3    91  MET91       0.1570
    103  C        128.5980    2.0910    4.4680 C.2    91  MET91       0.2261
    104  O        128.7120    1.1070    3.7160 O.2    91  MET91      -0.2867
    105  CB       126.9210    2.3300    6.3130 C.3    91  MET91       0.0387
    106  CG       125.8620    1.5540    5.5720 C.3    91  MET91       0.0595
    107  SD       124.2070    2.1450    5.9160 S.3    91  MET91      -0.1393
    108  CE       124.1830    3.6710    4.9550 C.3    91  MET91       0.0692
    109  N        132.0910    0.5920    3.3680 N.3    94  ASN94      -0.1225
    110  CA       132.0860   -0.8570    3.2910 C.3    94  ASN94       0.1785
    111  C        131.5140   -1.2970    1.9450 C.2    94  ASN94       0.2597
    112  O        132.0220   -2.2040    1.3000 O.2    94  ASN94      -0.2718
    113  CB       131.2220   -1.4310    4.4090 C.3    94  ASN94       0.1169
    114  CG       131.8590   -1.3310    5.7690 C.2    94  ASN94       0.2627
    115  OD1      133.0650   -1.1350    5.9020 O.2    94  ASN94      -0.2716
    116  ND2      131.0440   -1.4980    6.7950 N.am   94  ASN94      -0.0877
    117  N        130.4380   -0.6470    1.5220 N.am   95  CYS95      -0.1970
    118  CA       129.7950   -0.9910    0.2610 C.3    95  CYS95       0.1712
    119  C        130.7580   -0.7710   -0.9040 C.2    95  CYS95       0.2296
    120  O        130.8760   -1.6100   -1.8010 O.2    95  CYS95      -0.2864
    121  CB       128.5330   -0.1500    0.0910 C.3    95  CYS95       0.0983
    122  SG       127.5450   -0.5930   -1.3160 S.3    95  CYS95      -0.0798
    123  N        133.6350   -3.4570   -0.8640 N.3    98  TYR98      -0.1227
    124  CA       133.2870   -4.8250   -1.2210 C.3    98  TYR98       0.1736
    125  C        132.9110   -4.9940   -2.7050 C.2    98  TYR98       0.2595
    126  O        133.1630   -6.0350   -3.3140 O.2    98  TYR98      -0.2718
    127  CB       132.1510   -5.3300   -0.3180 C.3    98  TYR98       0.0548
    128  CG       131.8560   -6.7860   -0.5610 C.ar   98  TYR98      -0.0200
    129  CD1      132.7200   -7.7650   -0.1220 C.ar   98  TYR98      -0.0009
    130  CD2      130.7280   -7.1770   -1.2620 C.ar   98  TYR98      -0.0009
    131  CE1      132.4800   -9.0720   -0.3790 C.ar   98  TYR98       0.0417
    132  CE2      130.4690   -8.5040   -1.5110 C.ar   98  TYR98       0.0417
    133  CZ       131.3560   -9.4490   -1.0730 C.ar   98  TYR98       0.1957
    134  OH       131.1340  -10.7850   -1.3210 O.3    98  TYR98      -0.2866
    135  N        132.2760   -3.9840   -3.2670 N.am   99  ASN99      -0.1974
    136  CA       131.7240   -4.0660   -4.6180 C.3    99  ASN99       0.1688
    137  C        132.5610   -3.3130   -5.6380 C.2    99  ASN99       0.2292
    138  O        133.6310   -2.8340   -5.3190 O.2    99  ASN99      -0.2864
    139  CB       130.2920   -3.5520   -4.5580 C.3    99  ASN99       0.1181
    140  CG       129.4410   -4.3780   -3.6180 C.2    99  ASN99       0.2629
    141  OD1      129.0530   -5.4990   -3.9500 O.2    99  ASN99      -0.2716
    142  ND2      129.1710   -3.8470   -2.4230 N.am   99  ASN99      -0.0877
    143  N        128.2240   -1.1680  -10.0400 N.3   103  ASP103     -0.1225
    144  CA       127.3150   -2.2300   -9.5870 C.3   103  ASP103      0.1805
    145  C        126.0380   -1.5720   -9.0710 C.2   103  ASP103      0.2598
    146  O        126.0870   -0.4690   -8.5260 O.2   103  ASP103     -0.2718
    147  CB       127.9100   -3.0490   -8.4400 C.3   103  ASP103      0.1424
    148  CG       128.9650   -4.0370   -8.8850 C.2   103  ASP103      0.3668
    149  OD1      129.1170   -4.2620  -10.1060 O.co2 103  ASP103     -0.2456
    150  OD2      129.6340   -4.5950   -7.9800 O.co2 103  ASP103     -0.2456
    151  N        124.9030   -2.2480   -9.2270 N.am  104  ASP104     -0.1960
    152  CA       123.6400   -1.7370   -8.7050 C.3   104  ASP104      0.1840
    153  C        123.7590   -1.2710   -7.2580 C.2   104  ASP104      0.2621
    154  O        123.3060   -0.1820   -6.9330 O.2   104  ASP104     -0.2715
    155  CB       122.5430   -2.7920   -8.7830 C.3   104  ASP104      0.1450
    156  CG       121.8290   -2.8170  -10.1320 C.2   104  ASP104      0.3671
    157  OD1      121.9740   -1.8660  -10.9330 O.co2 104  ASP104     -0.2456
    158  OD2      121.1020   -3.7990  -10.3690 O.co2 104  ASP104     -0.2456
    159  N        124.3610   -2.0790   -6.3850 N.am  105  ILE105     -0.1977
    160  CA       124.4130   -1.7000   -4.9820 C.3   105  ILE105      0.1596
    161  C        125.2250   -0.4190   -4.7670 C.2   105  ILE105      0.2287
    162  O        124.9220    0.3670   -3.8790 O.2   105  ILE105     -0.2864
    163  CB       124.9300   -2.8520   -4.0890 C.3   105  ILE105      0.0276
    164  CG1      124.7490   -2.5360   -2.6020 C.3   105  ILE105      0.0022
    165  CG2      126.3990   -3.1820   -4.3860 C.3   105  ILE105      0.0022
    166  CD1      123.3400   -2.6380   -2.1230 C.3   105  ILE105      0.0001
    167  N        123.1140    2.4990   -5.6970 N.3   108  MET108     -0.1245
    168  CA       122.1770    2.7230   -4.6020 C.3   108  MET108      0.1570
    169  C        122.8410    3.4700   -3.4440 C.2   108  MET108      0.2261
    170  O        122.2920    4.4710   -2.9500 O.2   108  MET108     -0.2867
    171  CB       121.6050    1.3850   -4.1270 C.3   108  MET108      0.0387
    172  CG       120.7570    0.7100   -5.1920 C.3   108  MET108      0.0595
    173  SD       120.3520   -1.0130   -4.8580 S.3   108  MET108     -0.1393
    174  CE       118.8030   -0.7950   -4.0120 C.3   108  MET108      0.0692
@<TRIPOS>BOND
     1   157   156   ar
     2   158   156   ar
     3   156   155    1
     4   149   148   ar
     5   143   144    1
     6   144   145    1
     7   144   147    1
     8   151   145   am
     9   151   152    1
    10   145   146    2
    11   148   147    1
    12   148   150   ar
    13   155   152    1
    14   152   153    1
    15   153   154    2
    16   153   159   am
    17   159   160    1
    18   167   168    1
    19   137   138    2
    20   137   136    1
    21   172   173    1
    22   172   171    1
    23   160   161    1
    24   160   163    1
    25   173   174    1
    26   161   162    2
    27   136   139    1
    28   136   135    1
    29   168   171    1
    30   168   169    1
    31   139   140    1
    32   165   163    1
    33   163   164    1
    34   141   140    2
    35   140   142   am
    36    12    14   ar
    37    12    10   ar
    38   169   170    2
    39   126   125    2
    40   135   125   am
    41    14    13   ar
    42     9    10   ar
    43     9     7   ar
    44   125   124    1
    45    10     8   ar
    46   164   166    1
    47   120   119    2
    48    60    59    2
    49    72    70    1
    50     7     6   ar
    51    13    11   ar
    52   132   130   ar
    53   132   133   ar
    54   134   133    1
    55     8    11   ar
    56     8     6   ar
    57   122   121    1
    58   130   128   ar
    59   124   123    1
    60   124   127    1
    61    20    21    1
    62    20    19    1
    63   133   131   ar
    64   119   118    1
    65     6     5    1
    66    59    58    1
    67   128   127    1
    68   128   129   ar
    69    64    62    1
    70   131   129   ar
    71    21    15    1
    72    70    71    1
    73    70    69    1
    74    31    32   ar
    75    31    29   ar
    76    32    30   ar
    77    58    61    1
    78    58    57    1
    79    19    16    1
    80   121   118    1
    81    61    62    1
    82   118   117    1
    83    66    65    1
    84    66    69    1
    85    66    67    1
    86    62    63    1
    87     5     2    1
    88    15    16    1
    89    15     3   am
    90     1     2    1
    91    30    28   ar
    92    29    27   ar
    93    16    17    1
    94   112   111    2
    95    67    68    2
    96   117   111   am
    97     2     3    1
    98     3     4    2
    99   111   110    1
   100    28    27   ar
   101    27    26    1
   102    79    81   ar
   103    79    78   ar
   104    17    22   am
   105    17    18    2
   106    81    83   ar
   107    73    74    1
   108    22    23    1
   109    74    77    1
   110    74    75    1
   111    77    78    1
   112   110   109    1
   113   110   113    1
   114    78    80   ar
   115    26    23    1
   116    52    51    2
   117    47    46    1
   118   104   103    2
   119    83    84    1
   120    83    82   ar
   121    23    24    1
   122    48    46    1
   123   113   114    1
   124   103   102    1
   125    75    76    2
   126    51    50    1
   127    80    82   ar
   128    41    39   am
   129    46    43    1
   130   108   107    1
   131    24    25    2
   132    49    50    1
   133    49    44   am
   134   106   107    1
   135   106   105    1
   136    43    44    1
   137    43    42    1
   138    53    50    1
   139    53    54    1
   140   114   115    2
   141   114   116   am
   142    39    40    2
   143    39    38    1
   144   102   105    1
   145   102   101    1
   146    44    45    2
   147    55    54   ar
   148    54    56   ar
   149    38    37    1
   150    36    35    2
   151    33    34    1
   152    88    87    2
   153    35    34    1
   154    37    34    1
   155    97    94    1
   156    97    98    1
   157    94    95    1
   158    94    93    1
   159    87    93   am
   160    87    86    1
   161    95    96    2
   162    85    86    1
   163    98   100   ar
   164    98    99   ar
   165    86    89    1
   166    89    90    1
   167    90    91    1
   168    91    92    1
