@<TRIPOS>MOLECULE
tmp/4o7cA00.pdb
 134 130 0 0 0
SMALL
GASTEIGER

@<TRIPOS>ATOM
      1  N        113.6030   -1.1910    1.0770 N.3    40  TRP40      -0.1228
      2  CA       113.4200   -2.5510    1.6120 C.3    40  TRP40       0.1722
      3  C        114.7090   -3.3250    1.9620 C.2    40  TRP40       0.2437
      4  O        114.7170   -4.0600    2.9440 O.2    40  TRP40      -0.2733
      5  CB       112.4840   -3.3950    0.7230 C.3    40  TRP40       0.0563
      6  CG       112.9630   -3.5930   -0.6600 C.ar   40  TRP40       0.0003
      7  CD1      112.6540   -2.8390   -1.7660 C.ar   40  TRP40       0.0946
      8  CD2      113.8310   -4.6290   -1.1150 C.ar   40  TRP40       0.0152
      9  NE1      113.2920   -3.3400   -2.8640 N.ar   40  TRP40      -0.2442
     10  CE2      114.0140   -4.4430   -2.4960 C.ar   40  TRP40       0.0810
     11  CE3      114.4670   -5.7000   -0.4880 C.ar   40  TRP40       0.0012
     12  CZ2      114.8190   -5.2850   -3.2620 C.ar   40  TRP40       0.0191
     13  CZ3      115.2730   -6.5200   -1.2400 C.ar   40  TRP40       0.0001
     14  CH2      115.4400   -6.3120   -2.6180 C.ar   40  TRP40       0.0015
     15  N        115.8010   -3.1800    1.1770 N.am   41  PRO41      -0.2718
     16  CA       116.9850   -3.9550    1.5690 C.3    41  PRO41       0.1535
     17  C        117.5970   -3.4620    2.8630 C.2    41  PRO41       0.2598
     18  O        118.3960   -4.1650    3.4810 O.2    41  PRO41      -0.2715
     19  CB       117.9720   -3.6950    0.4200 C.3    41  PRO41       0.0310
     20  CG       117.1390   -3.2190   -0.7310 C.3    41  PRO41       0.0237
     21  CD       116.0370   -2.4370   -0.0780 C.3    41  PRO41       0.0939
     22  N        117.2340   -2.2410    3.2460 N.am   42  PHE42      -0.1974
     23  CA       117.9100   -1.5270    4.3220 C.3    42  PHE42       0.1639
     24  C        117.0640   -1.4100    5.5790 C.2    42  PHE42       0.2290
     25  O        117.4760   -0.7730    6.5290 O.2    42  PHE42      -0.2864
     26  CB       118.3560   -0.1480    3.8300 C.3    42  PHE42       0.0560
     27  CG       119.2050   -0.2120    2.5930 C.ar   42  PHE42      -0.0200
     28  CD1      120.5150   -0.6150    2.6780 C.ar   42  PHE42      -0.0042
     29  CD2      118.6810    0.0780    1.3410 C.ar   42  PHE42      -0.0042
     30  CE1      121.3050   -0.7050    1.5580 C.ar   42  PHE42      -0.0003
     31  CE2      119.4670   -0.0130    0.2170 C.ar   42  PHE42      -0.0003
     32  CZ       120.7900   -0.4190    0.3260 C.ar   42  PHE42      -0.0000
     33  N        116.3290   -3.6680    7.7290 N.3    44  GLN44      -0.1245
     34  CA       116.7060   -4.6370    8.7380 C.3    44  GLN44       0.1566
     35  C        118.1580   -5.0500    8.5040 C.2    44  GLN44       0.2260
     36  O        118.6840   -4.8770    7.4050 O.2    44  GLN44      -0.2867
     37  CB       115.8030   -5.8750    8.6340 C.3    44  GLN44       0.0367
     38  CG       115.8870   -6.6100    7.2980 C.3    44  GLN44       0.0905
     39  CD       115.1700   -5.9120    6.1890 C.2    44  GLN44       0.2608
     40  OE1      113.9880   -5.5780    6.3210 O.2    44  GLN44      -0.2717
     41  NE2      115.8630   -5.7050    5.0620 N.am   44  GLN44      -0.0878
     42  N        121.2750   -7.2950    7.5310 N.3    46  VAL46      -0.1231
     43  CA       121.4570   -8.3360    6.5320 C.3    46  VAL46       0.1692
     44  C        121.4720   -9.7050    7.2090 C.2    46  VAL46       0.2592
     45  O        122.3330   -9.9820    8.0510 O.2    46  VAL46      -0.2718
     46  CB       122.7690   -8.1220    5.7520 C.3    46  VAL46       0.0266
     47  CG1      123.1120   -9.3300    4.8570 C.3    46  VAL46       0.0020
     48  CG2      122.6880   -6.8570    4.8770 C.3    46  VAL46       0.0020
     49  N        120.5240  -10.5580    6.8130 N.am   47  ASP47      -0.1974
     50  CA       120.5040  -11.9570    7.2260 C.3    47  ASP47       0.1709
     51  C        121.3820  -12.7440    6.2490 C.2    47  ASP47       0.2293
     52  O        120.9120  -13.2890    5.2520 O.2    47  ASP47      -0.2864
     53  CB       119.0610  -12.4740    7.2590 C.3    47  ASP47       0.1436
     54  CG       118.9410  -13.8820    7.7910 C.2    47  ASP47       0.3671
     55  OD1      119.9750  -14.5720    7.9330 O.co2  47  ASP47      -0.2456
     56  OD2      117.7890  -14.2980    8.0730 O.co2  47  ASP47      -0.2456
     57  N        120.1700  -15.3230    3.2570 N.3    51  LEU51      -0.1245
     58  CA       120.3610  -14.7640    1.9090 C.3    51  LEU51       0.1561
     59  C        121.5360  -15.3700    1.1320 C.2    51  LEU51       0.2260
     60  O        121.8410  -14.9380    0.0250 O.2    51  LEU51      -0.2867
     61  CB       120.6010  -13.2570    1.9990 C.3    51  LEU51       0.0270
     62  CG       119.4210  -12.3930    2.4450 C.3    51  LEU51       0.0019
     63  CD1      119.8730  -10.9720    2.7110 C.3    51  LEU51       0.0001
     64  CD2      118.3250  -12.4210    1.3580 C.3    51  LEU51       0.0001
     65  N        124.8670  -15.1360    1.6490 N.3    53  LEU53      -0.1245
     66  CA       125.9670  -14.1910    1.5020 C.3    53  LEU53       0.1561
     67  C        126.9800  -14.5130    2.5810 C.2    53  LEU53       0.2260
     68  O        127.1840  -13.7600    3.5230 O.2    53  LEU53      -0.2867
     69  CB       125.4670  -12.7540    1.6530 C.3    53  LEU53       0.0270
     70  CG       124.4070  -12.2990    0.6510 C.3    53  LEU53       0.0019
     71  CD1      123.8760  -10.9520    1.0670 C.3    53  LEU53       0.0001
     72  CD2      124.9690  -12.2380   -0.7690 C.3    53  LEU53       0.0001
     73  N        129.4730  -11.9150    3.8380 N.3    56  TYR56      -0.1241
     74  CA       129.0240  -10.5490    4.1220 C.3    56  TYR56       0.1605
     75  C        129.6970   -9.9530    5.3530 C.2    56  TYR56       0.2264
     76  O        130.3170   -8.9010    5.2870 O.2    56  TYR56      -0.2867
     77  CB       127.4960  -10.4490    4.2230 C.3    56  TYR56       0.0534
     78  CG       127.0810   -9.0040    4.3840 C.ar   56  TYR56      -0.0201
     79  CD1      126.9790   -8.1810    3.2760 C.ar   56  TYR56      -0.0009
     80  CD2      126.8580   -8.4600    5.6310 C.ar   56  TYR56      -0.0009
     81  CE1      126.6590   -6.8570    3.4010 C.ar   56  TYR56       0.0417
     82  CE2      126.5250   -7.1340    5.7830 C.ar   56  TYR56       0.0417
     83  CZ       126.4270   -6.3370    4.6630 C.ar   56  TYR56       0.1957
     84  OH       126.1170   -5.0090    4.8150 O.3    56  TYR56      -0.2866
     85  N        126.0510    2.7450    6.6540 N.3    91  MET91      -0.1245
     86  CA       125.1530    1.8840    5.8840 C.3    91  MET91       0.1570
     87  C        125.4020    1.9880    4.3730 C.2    91  MET91       0.2261
     88  O        125.4590    0.9740    3.6620 O.2    91  MET91      -0.2867
     89  CB       123.7190    2.2530    6.1940 C.3    91  MET91       0.0387
     90  CG       122.6880    1.4070    5.4740 C.3    91  MET91       0.0595
     91  SD       121.0060    1.9270    5.8520 S.3    91  MET91      -0.1393
     92  CE       120.8410    3.3310    4.7570 C.3    91  MET91       0.0692
     93  N        127.7680   -0.7220    1.4900 N.3    95  CYS95      -0.1235
     94  CA       127.2520   -1.1720    0.2190 C.3    95  CYS95       0.1677
     95  C        128.2950   -1.0080   -0.8810 C.2    95  CYS95       0.2270
     96  O        128.4370   -1.8670   -1.7520 O.2    95  CYS95      -0.2867
     97  CB       126.0080   -0.3720   -0.1210 C.3    95  CYS95       0.0956
     98  SG       125.1240   -1.0620   -1.4700 S.3    95  CYS95      -0.0801
     99  N        131.0900   -3.6890   -0.3510 N.3    98  TYR98      -0.1227
    100  CA       130.7240   -5.0850   -0.5890 C.3    98  TYR98       0.1736
    101  C        130.3780   -5.3750   -2.0510 C.2    98  TYR98       0.2595
    102  O        130.6670   -6.4560   -2.5780 O.2    98  TYR98      -0.2718
    103  CB       129.5570   -5.4910    0.3220 C.3    98  TYR98       0.0548
    104  CG       129.2540   -6.9680    0.2940 C.ar   98  TYR98      -0.0200
    105  CD1      130.1420   -7.8820    0.8330 C.ar   98  TYR98      -0.0009
    106  CD2      128.0840   -7.4560   -0.2730 C.ar   98  TYR98      -0.0009
    107  CE1      129.8760   -9.2370    0.8240 C.ar   98  TYR98       0.0417
    108  CE2      127.8140   -8.8250   -0.3060 C.ar   98  TYR98       0.0417
    109  CZ       128.7170   -9.7060    0.2420 C.ar   98  TYR98       0.1957
    110  OH       128.4690  -11.0610    0.2430 O.3    98  TYR98      -0.2866
    111  N        129.7530   -4.3990   -2.6880 N.am   99  ASN99      -0.1974
    112  CA       129.2120   -4.5490   -4.0270 C.3    99  ASN99       0.1688
    113  C        129.9460   -3.7070   -5.0530 C.2    99  ASN99       0.2292
    114  O        130.7730   -2.8790   -4.7090 O.2    99  ASN99      -0.2864
    115  CB       127.7370   -4.1820   -4.0010 C.3    99  ASN99       0.1181
    116  CG       126.9320   -5.0970   -3.1050 C.2    99  ASN99       0.2629
    117  OD1      126.4700   -6.1430   -3.5380 O.2    99  ASN99      -0.2716
    118  ND2      126.7320   -4.6940   -1.8690 N.am   99  ASN99      -0.0877
    119  N        122.3640   -3.8450   -8.2980 N.3   104  ASP104     -0.1225
    120  CA       121.1010   -3.2670   -7.8650 C.3   104  ASP104      0.1805
    121  C        121.1980   -2.6600   -6.4670 C.2   104  ASP104      0.2597
    122  O        120.6670   -1.5880   -6.2320 O.2   104  ASP104     -0.2718
    123  CB       119.9920   -4.3030   -7.9410 C.3   104  ASP104      0.1424
    124  CG       119.5270   -4.5450   -9.3750 C.2   104  ASP104      0.3668
    125  OD1      119.7710   -3.6800  -10.2540 O.co2 104  ASP104     -0.2456
    126  OD2      118.9060   -5.5970   -9.6320 O.co2 104  ASP104     -0.2456
    127  N        121.8880   -3.3250   -5.5490 N.am  105  ILE105     -0.1980
    128  CA       121.9660   -2.8200   -4.1830 C.3   105  ILE105      0.1595
    129  C        122.7020   -1.4710   -4.1500 C.2   105  ILE105      0.2287
    130  O        122.3420   -0.5820   -3.3860 O.2   105  ILE105     -0.2864
    131  CB       122.6410   -3.8590   -3.2540 C.3   105  ILE105      0.0276
    132  CG1      122.5030   -3.4610   -1.7880 C.3   105  ILE105      0.0022
    133  CG2      124.0770   -4.0680   -3.6340 C.3   105  ILE105      0.0022
    134  CD1      121.0990   -3.7400   -1.2810 C.3   105  ILE105      0.0001
@<TRIPOS>BOND
     1   125   124   ar
     2   126   124   ar
     3   124   123    1
     4   119   120    1
     5   123   120    1
     6   120   121    1
     7   121   122    2
     8   121   127   am
     9   127   128    1
    10   113   114    2
    11   113   112    1
    12   128   129    1
    13   128   131    1
    14   129   130    2
    15   112   115    1
    16   112   111    1
    17   115   116    1
    18   133   131    1
    19   117   116    2
    20    12    14   ar
    21    12    10   ar
    22   131   132    1
    23   116   118   am
    24     9    10   ar
    25     9     7   ar
    26   111   101   am
    27    14    13   ar
    28   102   101    2
    29    10     8   ar
    30   101   100    1
    31   132   134    1
    32     7     6   ar
    33    96    95    2
    34    98    97    1
    35    13    11   ar
    36     8     6   ar
    37     8    11   ar
    38    95    94    1
    39    72    70    1
    40    20    21    1
    41    20    19    1
    42     6     5    1
    43   100    99    1
    44   100   103    1
    45   108   106   ar
    46   108   109   ar
    47   106   104   ar
    48    97    94    1
    49    21    15    1
    50    60    59    2
    51    31    32   ar
    52    31    29   ar
    53    94    93    1
    54   109   110    1
    55   109   107   ar
    56   104   103    1
    57   104   105   ar
    58    32    30   ar
    59    19    16    1
    60    70    71    1
    61    70    69    1
    62     5     2    1
    63   107   105   ar
    64     1     2    1
    65    59    58    1
    66    15    16    1
    67    15     3   am
    68    29    27   ar
    69    64    62    1
    70    66    65    1
    71    66    69    1
    72    66    67    1
    73    30    28   ar
    74    16    17    1
    75     2     3    1
    76    58    61    1
    77    58    57    1
    78     3     4    2
    79    61    62    1
    80    62    63    1
    81    67    68    2
    82    27    28   ar
    83    27    26    1
    84    17    22   am
    85    17    18    2
    86    22    23    1
    87    79    81   ar
    88    79    78   ar
    89    81    83   ar
    90    88    87    2
    91    26    23    1
    92    73    74    1
    93    74    77    1
    94    74    75    1
    95    77    78    1
    96    23    24    1
    97    87    86    1
    98    78    80   ar
    99    83    84    1
   100    83    82   ar
   101    92    91    1
   102    47    46    1
   103    48    46    1
   104    41    39   am
   105    52    51    2
   106    76    75    2
   107    90    91    1
   108    90    89    1
   109    24    25    2
   110    80    82   ar
   111    46    43    1
   112    86    89    1
   113    86    85    1
   114    39    40    2
   115    39    38    1
   116    51    50    1
   117    43    44    1
   118    43    42    1
   119    49    44   am
   120    49    50    1
   121    44    45    2
   122    50    53    1
   123    53    54    1
   124    38    37    1
   125    36    35    2
   126    33    34    1
   127    54    55   ar
   128    54    56   ar
   129    35    34    1
   130    37    34    1
