@<TRIPOS>MOLECULE
tmp/4o7dA00.pdb
 114 105 0 0 0
SMALL
GASTEIGER

@<TRIPOS>ATOM
      1  N         26.9040   -1.8120   68.3850 N.3    31  TYR31      -0.1241
      2  CA        26.6330   -2.7720   69.4520 C.3    31  TYR31       0.1605
      3  C         27.5600   -3.9940   69.3310 C.2    31  TYR31       0.2264
      4  O         27.8220   -4.6720   70.3280 O.2    31  TYR31      -0.2867
      5  CB        25.1350   -3.1590   69.5480 C.3    31  TYR31       0.0534
      6  CG        24.6220   -4.0120   68.4100 C.ar   31  TYR31      -0.0201
      7  CD1       24.6610   -5.3910   68.4830 C.ar   31  TYR31      -0.0009
      8  CD2       24.0930   -3.4330   67.2640 C.ar   31  TYR31      -0.0009
      9  CE1       24.1960   -6.1830   67.4410 C.ar   31  TYR31       0.0417
     10  CE2       23.6160   -4.2190   66.2200 C.ar   31  TYR31       0.0417
     11  CZ        23.6830   -5.5900   66.3140 C.ar   31  TYR31       0.1957
     12  OH        23.2260   -6.3790   65.2730 O.3    31  TYR31      -0.2866
     13  N         21.4420   -8.3920   57.8040 N.3    67  GLN67      -0.1231
     14  CA        20.8190   -8.1000   59.0870 C.3    67  GLN67       0.1698
     15  C         19.2960   -8.1260   58.9030 C.2    67  GLN67       0.2592
     16  O         18.7790   -9.0680   58.3110 O.2    67  GLN67      -0.2718
     17  CB        21.3180   -6.7710   59.6320 C.3    67  GLN67       0.0381
     18  CG        22.7790   -6.8000   60.0840 C.3    67  GLN67       0.0905
     19  CD        22.9550   -7.5240   61.3920 C.2    67  GLN67       0.2608
     20  OE1       21.9840   -7.9570   62.0040 O.2    67  GLN67      -0.2717
     21  NE2       24.2010   -7.6690   61.8310 N.am   67  GLN67      -0.0878
     22  N         18.5640   -7.1180   59.3670 N.am   68  SER68      -0.1952
     23  CA        17.1070   -7.2560   59.2820 C.3    68  SER68       0.1924
     24  C         16.6260   -7.2360   57.8290 C.2    68  SER68       0.2314
     25  O         15.4930   -7.6090   57.5450 O.2    68  SER68      -0.2863
     26  CB        16.3750   -6.2180   60.1300 C.3    68  SER68       0.2116
     27  OG        16.3370   -6.6420   61.4880 O.3    68  SER68      -0.2180
     28  N         14.8530  -10.3750   56.7430 N.3    71  LYS71      -0.1245
     29  CA        13.5680  -10.7910   57.3190 C.3    71  LYS71       0.1561
     30  C         12.5140  -11.0360   56.2420 C.2    71  LYS71       0.2260
     31  O         11.8950  -12.0940   56.2130 O.2    71  LYS71      -0.2867
     32  CB        13.0760   -9.7830   58.3630 C.3    71  LYS71       0.0271
     33  CG        13.7910   -9.9040   59.7090 C.3    71  LYS71       0.0035
     34  CD        13.5370   -8.6770   60.5830 C.3    71  LYS71       0.0206
     35  CE        13.8940   -8.9490   62.0450 C.3    71  LYS71       0.1093
     36  NZ        15.3350   -9.2230   62.2710 N.3    71  LYS71      -0.1314
     37  N          9.9050   -4.0100   68.1280 N.3   101  ASN101     -0.1240
     38  CA        10.5860   -4.9820   68.9970 C.3   101  ASN101      0.1653
     39  C         10.5820   -4.6120   70.4940 C.2   101  ASN101      0.2266
     40  O         11.6480   -4.4910   71.1030 O.2   101  ASN101     -0.2867
     41  CB        12.0320   -5.2480   68.5180 C.3   101  ASN101      0.1155
     42  CG        12.1010   -5.7280   67.0680 C.2   101  ASN101      0.2627
     43  OD1       11.8300   -6.8890   66.7770 O.2   101  ASN101     -0.2716
     44  ND2       12.4710   -4.8300   66.1580 N.am  101  ASN101     -0.0877
     45  N          8.4230   -8.9250   60.3000 N.3   115  MET115     -0.1245
     46  CA         9.4800   -7.9270   60.1960 C.3   115  MET115      0.1570
     47  C         10.0250   -7.4600   61.5430 C.2   115  MET115      0.2261
     48  O         10.9000   -6.6020   61.5790 O.2   115  MET115     -0.2867
     49  CB         8.9900   -6.7110   59.4030 C.3   115  MET115      0.0387
     50  CG         8.4060   -7.0490   58.0560 C.3   115  MET115      0.0595
     51  SD         9.4960   -8.1250   57.1020 S.3   115  MET115     -0.1393
     52  CE         8.4620   -8.5480   55.7090 C.3   115  MET115      0.0692
     53  N         11.6940   -8.8160   65.3620 N.3   117  ASN117     -0.1240
     54  CA        12.5570   -9.9340   65.7440 C.3   117  ASN117      0.1653
     55  C         11.7850  -11.1780   66.1890 C.2   117  ASN117      0.2266
     56  O         12.0310  -12.2910   65.7010 O.2   117  ASN117     -0.2867
     57  CB        13.5470   -9.5020   66.8290 C.3   117  ASN117      0.1155
     58  CG        14.6150   -8.5350   66.3110 C.2   117  ASN117      0.2627
     59  OD1       14.5780   -8.0730   65.1620 O.2   117  ASN117     -0.2716
     60  ND2       15.5640   -8.2150   67.1730 N.am  117  ASN117     -0.0877
     61  N         27.0530  -11.7020   67.1970 N.3   163  GLU163     -0.1245
     62  CA        25.5940  -11.5930   67.3530 C.3   163  GLU163      0.1567
     63  C         25.1310  -12.5580   68.4340 C.2   163  GLU163      0.2260
     64  O         24.3770  -12.1920   69.3200 O.2   163  GLU163     -0.2867
     65  CB        24.8530  -11.8840   66.0400 C.3   163  GLU163      0.0388
     66  CG        24.9970  -10.8040   64.9640 C.3   163  GLU163      0.1160
     67  CD        24.0380   -9.6250   65.1410 C.2   163  GLU163      0.3649
     68  OE1       24.2230   -8.5970   64.4370 O.co2 163  GLU163     -0.2457
     69  OE2       23.0910   -9.7280   65.9590 O.co2 163  GLU163     -0.2457
     70  N         17.6010  -11.1180   72.1350 N.3   170  ASN170     -0.1240
     71  CA        17.0500  -12.1680   71.2850 C.3   170  ASN170      0.1653
     72  C         16.8850  -13.4850   72.0410 C.2   170  ASN170      0.2266
     73  O         16.0110  -14.2850   71.7250 O.2   170  ASN170     -0.2867
     74  CB        17.8880  -12.3720   70.0280 C.3   170  ASN170      0.1155
     75  CG        17.7570  -11.2190   69.0490 C.2   170  ASN170      0.2627
     76  OD1       16.6570  -10.7940   68.7180 O.2   170  ASN170     -0.2716
     77  ND2       18.8930  -10.7010   68.5880 N.am  170  ASN170     -0.0877
     78  N         19.0430  -18.1250   63.3160 N.3   196  TYR196     -0.1241
     79  CA        18.6140  -16.7470   63.1540 C.3   196  TYR196      0.1605
     80  C         19.8210  -15.7990   63.0860 C.2   196  TYR196      0.2264
     81  O         19.9010  -14.9380   62.2080 O.2   196  TYR196     -0.2867
     82  CB        17.6610  -16.3480   64.2940 C.3   196  TYR196      0.0534
     83  CG        17.3600  -14.8610   64.3600 C.ar  196  TYR196     -0.0201
     84  CD1       16.3790  -14.2800   63.5510 C.ar  196  TYR196     -0.0009
     85  CD2       18.0510  -14.0390   65.2350 C.ar  196  TYR196     -0.0009
     86  CE1       16.1030  -12.9090   63.6220 C.ar  196  TYR196      0.0417
     87  CE2       17.7910  -12.6740   65.3080 C.ar  196  TYR196      0.0417
     88  CZ        16.8150  -12.1130   64.5060 C.ar  196  TYR196      0.1957
     89  OH        16.5720  -10.7540   64.5910 O.3   196  TYR196     -0.2866
     90  N         21.1380  -13.4010   59.8470 N.3   200  CYS200     -0.1235
     91  CA        21.4070  -11.9740   59.9540 C.3   200  CYS200      0.1677
     92  C         22.7940  -11.6910   59.4220 C.2   200  CYS200      0.2270
     93  O         23.0650  -10.5800   58.9630 O.2   200  CYS200     -0.2867
     94  CB        21.3370  -11.4950   61.4040 C.3   200  CYS200      0.0956
     95  SG        19.6820  -11.5370   62.1200 S.3   200  CYS200     -0.0801
     96  N         11.0400   -0.1660   60.6870 N.3   248  TYR248     -0.1241
     97  CA        10.9640    0.0090   62.1340 C.3   248  TYR248      0.1605
     98  C          9.8440    0.9980   62.4800 C.2   248  TYR248      0.2264
     99  O          8.7870    1.0050   61.8450 O.2   248  TYR248     -0.2867
    100  CB        12.2970    0.5160   62.6860 C.3   248  TYR248      0.0534
    101  CG        13.5200   -0.3120   62.2960 C.ar  248  TYR248     -0.0201
    102  CD1       13.6690   -1.6290   62.7180 C.ar  248  TYR248     -0.0009
    103  CD2       14.5400    0.2440   61.5350 C.ar  248  TYR248     -0.0009
    104  CE1       14.7850   -2.3760   62.3740 C.ar  248  TYR248      0.0417
    105  CE2       15.6610   -0.4900   61.1900 C.ar  248  TYR248      0.0417
    106  CZ        15.7880   -1.7940   61.6080 C.ar  248  TYR248      0.1957
    107  OH        16.9150   -2.5060   61.2450 O.3   248  TYR248     -0.2866
    108  N         20.3140   -2.8310   60.2570 N.3   266  VAL266     -0.1245
    109  CA        21.1960   -2.0610   61.1230 C.3   266  VAL266      0.1561
    110  C         22.6040   -1.8430   60.4940 C.2   266  VAL266      0.2260
    111  O         23.3630   -1.0010   60.9620 O.2   266  VAL266     -0.2867
    112  CB        21.2960   -2.7200   62.5360 C.3   266  VAL266      0.0252
    113  CG1       22.1680   -3.9710   62.4940 C.3   266  VAL266      0.0019
    114  CG2       21.8050   -1.7160   63.5800 C.3   266  VAL266      0.0019
@<TRIPOS>BOND
     1    52    51    1
     2    31    30    2
     3    30    29    1
     4    28    29    1
     5    51    50    1
     6    29    32    1
     7    25    24    2
     8    13    14    1
     9    24    23    1
    10    50    49    1
    11    16    15    2
    12    32    33    1
    13    15    14    1
    14    15    22   am
    15    93    92    2
    16    14    17    1
    17    23    22    1
    18    23    26    1
    19    49    46    1
    20    92    91    1
    21    17    18    1
    22    33    34    1
    23    90    91    1
    24    91    94    1
    25    18    19    1
    26    26    27    1
    27    46    45    1
    28    46    47    1
    29   108   109    1
    30   110   111    2
    31   110   109    1
    32    34    35    1
    33    96    97    1
    34   109   112    1
    35   105   103   ar
    36   105   106   ar
    37   107   106    1
    38    19    21   am
    39    19    20    2
    40    94    95    1
    41   103   101   ar
    42    47    48    2
    43   106   104   ar
    44    99    98    2
    45    35    36    1
    46    97    98    1
    47    97   100    1
    48    81    80    2
    49   101   100    1
    50   101   102   ar
    51   104   102   ar
    52   113   112    1
    53   112   114    1
    54    80    79    1
    55    79    78    1
    56    79    82    1
    57    84    86   ar
    58    84    83   ar
    59    86    88   ar
    60    82    83    1
    61    83    85   ar
    62    68    67   ar
    63    88    89    1
    64    88    87   ar
    65    66    67    1
    66    66    65    1
    67    67    69   ar
    68    59    58    2
    69    85    87   ar
    70    12    11    1
    71    53    54    1
    72    56    55    2
    73    54    55    1
    74    54    57    1
    75    65    62    1
    76    44    42   am
    77    10    11   ar
    78    10     8   ar
    79    58    57    1
    80    58    60   am
    81    11     9   ar
    82    43    42    2
    83    42    41    1
    84    61    62    1
    85     8     6   ar
    86    62    63    1
    87     9     7   ar
    88    37    38    1
    89     1     2    1
    90     6     7   ar
    91     6     5    1
    92    63    64    2
    93    41    38    1
    94    77    75   am
    95    76    75    2
    96    38    39    1
    97    75    74    1
    98     3     2    1
    99     3     4    2
   100     2     5    1
   101    74    71    1
   102    39    40    2
   103    71    72    1
   104    71    70    1
   105    73    72    2
