@<TRIPOS>MOLECULE
tmp/4o7eA00.pdb
 127 123 0 0 0
SMALL
GASTEIGER

@<TRIPOS>ATOM
      1  N         58.3310  120.5230   32.7620 N.3    40  TRP40      -0.1228
      2  CA        59.7210  120.1280   32.9900 C.3    40  TRP40       0.1722
      3  C         60.5920  121.0380   33.8930 C.2    40  TRP40       0.2437
      4  O         61.4070  120.5200   34.6610 O.2    40  TRP40      -0.2733
      5  CB        60.4140  119.7730   31.6640 C.3    40  TRP40       0.0563
      6  CG        60.2940  120.8460   30.6390 C.ar   40  TRP40       0.0003
      7  CD1       59.2650  121.0430   29.7520 C.ar   40  TRP40       0.0946
      8  CD2       61.2290  121.8900   30.4080 C.ar   40  TRP40       0.0152
      9  NE1       59.5110  122.1600   28.9860 N.ar   40  TRP40      -0.2442
     10  CE2       60.7120  122.6960   29.3690 C.ar   40  TRP40       0.0810
     11  CE3       62.4560  122.2330   30.9860 C.ar   40  TRP40       0.0012
     12  CZ2       61.3900  123.8100   28.8850 C.ar   40  TRP40       0.0191
     13  CZ3       63.1180  123.3370   30.5130 C.ar   40  TRP40       0.0001
     14  CH2       62.5850  124.1140   29.4670 C.ar   40  TRP40       0.0015
     15  N         60.4130  122.3820   33.8380 N.am   41  PRO41      -0.2718
     16  CA        61.2420  123.1650   34.7650 C.3    41  PRO41       0.1535
     17  C         60.7900  123.0140   36.2080 C.2    41  PRO41       0.2598
     18  O         61.4660  123.5050   37.1050 O.2    41  PRO41      -0.2715
     19  CB        61.0020  124.6150   34.3310 C.3    41  PRO41       0.0310
     20  CG        60.4180  124.5150   32.8940 C.3    41  PRO41       0.0237
     21  CD        59.6160  123.2460   32.9470 C.3    41  PRO41       0.0939
     22  N         59.6480  122.3760   36.4270 N.am   42  PHE42      -0.1974
     23  CA        59.0870  122.2740   37.7780 C.3    42  PHE42       0.1639
     24  C         59.1270  120.8420   38.3260 C.2    42  PHE42       0.2290
     25  O         58.5800  120.5520   39.4020 O.2    42  PHE42      -0.2864
     26  CB        57.6720  122.8760   37.7900 C.3    42  PHE42       0.0560
     27  CG        57.6400  124.3000   37.2870 C.ar   42  PHE42      -0.0200
     28  CD1       58.0410  125.3450   38.1090 C.ar   42  PHE42      -0.0042
     29  CD2       57.2820  124.5830   35.9700 C.ar   42  PHE42      -0.0042
     30  CE1       58.0410  126.6650   37.6410 C.ar   42  PHE42      -0.0003
     31  CE2       57.2760  125.8940   35.4890 C.ar   42  PHE42      -0.0003
     32  CZ        57.6610  126.9340   36.3160 C.ar   42  PHE42      -0.0000
     33  N         61.7260  119.1610   39.3930 N.3    44  GLN44      -0.1245
     34  CA        62.8270  118.9750   40.3330 C.3    44  GLN44       0.1566
     35  C         63.1500  120.3250   40.9530 C.2    44  GLN44       0.2260
     36  O         62.7590  121.3600   40.4130 O.2    44  GLN44      -0.2867
     37  CB        64.0710  118.4290   39.6110 C.3    44  GLN44       0.0367
     38  CG        64.6540  119.3740   38.5440 C.3    44  GLN44       0.0905
     39  CD        63.8220  119.4080   37.2740 C.2    44  GLN44       0.2608
     40  OE1       63.4660  118.3570   36.7280 O.2    44  GLN44      -0.2717
     41  NE2       63.4900  120.6150   36.8080 N.am   44  GLN44      -0.0878
     42  N         64.9420  123.7650   41.7730 N.3    46  VAL46      -0.1245
     43  CA        65.7440  124.6500   40.9480 C.3    46  VAL46       0.1561
     44  C         67.2130  124.4080   41.2680 C.2    46  VAL46       0.2260
     45  O         67.6370  124.5470   42.4180 O.2    46  VAL46      -0.2867
     46  CB        65.3790  126.1280   41.2000 C.3    46  VAL46       0.0252
     47  CG1       66.2710  127.0660   40.3740 C.3    46  VAL46       0.0019
     48  CG2       63.9010  126.3650   40.8790 C.3    46  VAL46       0.0019
     49  N         73.7030  124.6880   38.4070 N.3    50  LYS50      -0.1231
     50  CA        73.6430  124.3210   36.9960 C.3    50  LYS50       0.1693
     51  C         73.0550  125.4410   36.1340 C.2    50  LYS50       0.2591
     52  O         73.5090  125.6770   35.0110 O.2    50  LYS50      -0.2718
     53  CB        72.8190  123.0390   36.8340 C.3    50  LYS50       0.0285
     54  CG        72.5150  122.6360   35.4010 C.3    50  LYS50       0.0035
     55  CD        71.7000  121.3420   35.3620 C.3    50  LYS50       0.0206
     56  CE        71.4510  120.8660   33.9350 C.3    50  LYS50       0.1093
     57  NZ        70.3450  121.6120   33.2750 N.3    50  LYS50      -0.1314
     58  N         72.0600  126.1400   36.6740 N.am   51  LEU51      -0.1980
     59  CA        71.3560  127.1790   35.9310 C.3    51  LEU51       0.1596
     60  C         72.0330  128.5440   36.0290 C.2    51  LEU51       0.2287
     61  O         71.5920  129.5030   35.3950 O.2    51  LEU51      -0.2864
     62  CB        69.9030  127.2950   36.4170 C.3    51  LEU51       0.0297
     63  CG        68.9610  126.1100   36.2030 C.3    51  LEU51       0.0022
     64  CD1       67.5790  126.4720   36.7230 C.3    51  LEU51       0.0001
     65  CD2       68.8750  125.6980   34.7390 C.3    51  LEU51       0.0001
     66  N         72.1400  130.6620   38.6300 N.3    53  LEU53      -0.1245
     67  CA        71.2670  131.6210   39.2860 C.3    53  LEU53       0.1561
     68  C         71.6940  131.7180   40.7480 C.2    53  LEU53       0.2260
     69  O         70.9950  131.2410   41.6480 O.2    53  LEU53      -0.2867
     70  CB        69.8030  131.1700   39.1830 C.3    53  LEU53       0.0270
     71  CG        69.2680  130.9310   37.7610 C.3    53  LEU53       0.0019
     72  CD1       67.8720  130.3470   37.8150 C.3    53  LEU53       0.0001
     73  CD2       69.2670  132.2200   36.9390 C.3    53  LEU53       0.0001
     74  N         69.2730  132.7730   43.5360 N.3    56  TYR56      -0.1241
     75  CA        67.9740  132.1090   43.6830 C.3    56  TYR56       0.1605
     76  C         67.6200  131.8190   45.1410 C.2    56  TYR56       0.2264
     77  O         66.5250  132.1540   45.5930 O.2    56  TYR56      -0.2867
     78  CB        67.8600  130.8250   42.8510 C.3    56  TYR56       0.0534
     79  CG        66.4380  130.2910   42.8550 C.ar   56  TYR56      -0.0201
     80  CD1       65.4820  130.8030   41.9820 C.ar   56  TYR56      -0.0009
     81  CD2       66.0350  129.3140   43.7690 C.ar   56  TYR56      -0.0009
     82  CE1       64.1650  130.3350   42.0020 C.ar   56  TYR56       0.0417
     83  CE2       64.7250  128.8350   43.7890 C.ar   56  TYR56       0.0417
     84  CZ        63.7980  129.3530   42.9020 C.ar   56  TYR56       0.1957
     85  OH        62.5010  128.9120   42.9350 O.3    56  TYR56      -0.2866
     86  N         58.1100  131.0870   41.7700 N.3    95  CYS95      -0.1235
     87  CA        58.4160  131.4050   40.3750 C.3    95  CYS95       0.1677
     88  C         58.0480  132.8590   40.1040 C.2    95  CYS95       0.2270
     89  O         58.7940  133.5850   39.4510 O.2    95  CYS95      -0.2867
     90  CB        57.6290  130.4820   39.4440 C.3    95  CYS95       0.0956
     91  SG        58.0350  130.6710   37.6810 S.3    95  CYS95      -0.0801
     92  N         60.6360  135.2560   42.0680 N.3    98  TYR98      -0.1227
     93  CA        62.0040  135.3050   41.5700 C.3    98  TYR98       0.1736
     94  C         62.1240  135.8500   40.1490 C.2    98  TYR98       0.2595
     95  O         63.0510  136.6030   39.8330 O.2    98  TYR98      -0.2718
     96  CB        62.6480  133.9170   41.6140 C.3    98  TYR98       0.0548
     97  CG        64.0720  133.9710   41.1120 C.ar   98  TYR98      -0.0200
     98  CD1       65.0810  134.5050   41.9020 C.ar   98  TYR98      -0.0009
     99  CD2       64.3970  133.5370   39.8300 C.ar   98  TYR98      -0.0009
    100  CE1       66.3770  134.5870   41.4370 C.ar   98  TYR98       0.0417
    101  CE2       65.6920  133.6110   39.3570 C.ar   98  TYR98       0.0417
    102  CZ        66.6790  134.1350   40.1630 C.ar   98  TYR98       0.1957
    103  OH        67.9740  134.2150   39.6930 O.3    98  TYR98      -0.2866
    104  N         61.2050  135.4450   39.2830 N.am   99  ASN99      -0.1974
    105  CA        61.3020  135.7860   37.8670 C.3    99  ASN99       0.1688
    106  C         60.4790  137.0110   37.4710 C.2    99  ASN99       0.2292
    107  O         59.4460  137.2990   38.0740 O.2    99  ASN99      -0.2864
    108  CB        60.8990  134.5820   37.0190 C.3    99  ASN99       0.1181
    109  CG        61.7340  133.3630   37.3160 C.2    99  ASN99       0.2629
    110  OD1       62.8510  133.2360   36.8280 O.2    99  ASN99      -0.2716
    111  ND2       61.1880  132.4470   38.1100 N.am   99  ASN99      -0.0877
    112  N         57.9990  136.8640   31.7860 N.3   103  ASP103     -0.1239
    113  CA        59.0680  135.9990   31.2640 C.3   103  ASP103      0.1674
    114  C         58.5090  134.6140   30.9470 C.2   103  ASP103      0.2266
    115  O         57.4730  134.2270   31.4980 O.2   103  ASP103     -0.2867
    116  CB        60.2340  135.8870   32.2580 C.3   103  ASP103      0.1410
    117  CG        61.2440  137.0250   32.1170 C.2   103  ASP103      0.3668
    118  OD1       60.9180  138.0580   31.4970 O.co2 103  ASP103     -0.2456
    119  OD2       62.3730  136.8820   32.6240 O.co2 103  ASP103     -0.2456
    120  N         59.3160  131.6040   31.7490 N.3   105  ILE105     -0.1245
    121  CA        59.1550  130.6750   32.8530 C.3   105  ILE105      0.1561
    122  C         57.9000  131.0100   33.6770 C.2   105  ILE105      0.2260
    123  O         57.2180  130.1090   34.1890 O.2   105  ILE105     -0.2867
    124  CB        60.4320  130.6190   33.7310 C.3   105  ILE105      0.0252
    125  CG1       60.3580  129.4430   34.7110 C.3   105  ILE105      0.0019
    126  CG2       60.6490  131.9280   34.4590 C.3   105  ILE105      0.0019
    127  CD1       60.2010  128.1180   34.0320 C.3   105  ILE105      0.0001
@<TRIPOS>BOND
     1    12    10   ar
     2    12    14   ar
     3     9    10   ar
     4     9     7   ar
     5    10     8   ar
     6    14    13   ar
     7     7     6   ar
     8     8     6   ar
     9     8    11   ar
    10    13    11   ar
    11     6     5    1
    12   114   113    1
    13   114   115    2
    14   113   112    1
    15   113   116    1
    16   118   117   ar
    17     5     2    1
    18   120   121    1
    19   117   116    1
    20   117   119   ar
    21     1     2    1
    22   121   122    1
    23   121   124    1
    24    20    21    1
    25    20    19    1
    26    21    15    1
    27     2     3    1
    28    57    56    1
    29   122   123    2
    30   124   126    1
    31   124   125    1
    32    15     3   am
    33    15    16    1
    34     3     4    2
    35    56    55    1
    36   127   125    1
    37    19    16    1
    38    65    63    1
    39    16    17    1
    40    52    51    2
    41    55    54    1
    42    61    60    2
    43    54    53    1
    44    31    29   ar
    45    31    32   ar
    46    59    60    1
    47    59    62    1
    48    59    58    1
    49    29    27   ar
    50    51    58   am
    51    51    50    1
    52    63    62    1
    53    63    64    1
    54    17    22   am
    55    17    18    2
    56    32    30   ar
    57    22    23    1
    58    40    39    2
    59    41    39   am
    60   110   109    2
    61    53    50    1
    62    73    71    1
    63    50    49    1
    64   108   109    1
    65   108   105    1
    66    39    38    1
    67    27    26    1
    68    27    28   ar
    69   109   111   am
    70   106   105    1
    71   106   107    2
    72    30    28   ar
    73    91    90    1
    74    71    72    1
    75    71    70    1
    76    23    26    1
    77    23    24    1
    78   105   104    1
    79    24    25    2
    80    38    37    1
    81    66    67    1
    82    70    67    1
    83   104    94   am
    84    67    68    1
    85   101    99   ar
    86   101   102   ar
    87    33    34    1
    88    90    87    1
    89    89    88    2
    90    37    34    1
    91   103   102    1
    92    99    97   ar
    93    95    94    2
    94    88    87    1
    95    94    93    1
    96   102   100   ar
    97    34    35    1
    98    47    46    1
    99    87    86    1
   100    36    35    2
   101    68    69    2
   102    48    46    1
   103    43    46    1
   104    43    44    1
   105    43    42    1
   106    97    96    1
   107    97    98   ar
   108    44    45    2
   109   100    98   ar
   110    93    96    1
   111    93    92    1
   112    80    82   ar
   113    80    79   ar
   114    82    84   ar
   115    78    79    1
   116    78    75    1
   117    79    81   ar
   118    84    85    1
   119    84    83   ar
   120    74    75    1
   121    75    76    1
   122    81    83   ar
   123    76    77    2
