@<TRIPOS>MOLECULE
tmp/4o7fB00.pdb
 174 168 0 0 0
SMALL
GASTEIGER

@<TRIPOS>ATOM
      1  N         55.8680   57.7380   24.0430 N.3    40  TRP40      -0.1228
      2  CA        57.2820   58.1790   23.9380 C.3    40  TRP40       0.1722
      3  C         58.1600   57.3840   22.9500 C.2    40  TRP40       0.2437
      4  O         58.9810   57.9850   22.2320 O.2    40  TRP40      -0.2733
      5  CB        57.9560   58.3070   25.3240 C.3    40  TRP40       0.0563
      6  CG        57.8840   57.0670   26.1520 C.ar   40  TRP40       0.0003
      7  CD1       56.8560   56.6900   26.9670 C.ar   40  TRP40       0.0946
      8  CD2       58.8670   56.0320   26.2450 C.ar   40  TRP40       0.0152
      9  NE1       57.1340   55.4880   27.5520 N.ar   40  TRP40      -0.2442
     10  CE2       58.3600   55.0550   27.1220 C.ar   40  TRP40       0.0810
     11  CE3       60.1190   55.8280   25.6590 C.ar   40  TRP40       0.0012
     12  CZ2       59.0710   53.8940   27.4430 C.ar   40  TRP40       0.0191
     13  CZ3       60.8190   54.6760   25.9610 C.ar   40  TRP40       0.0001
     14  CH2       60.2980   53.7240   26.8510 C.ar   40  TRP40       0.0015
     15  N         57.9740   56.0530   22.8500 N.am   41  PRO41      -0.2718
     16  CA        58.8440   55.3570   21.8790 C.3    41  PRO41       0.1535
     17  C         58.5000   55.6400   20.4040 C.2    41  PRO41       0.2598
     18  O         59.2840   55.2860   19.5110 O.2    41  PRO41      -0.2715
     19  CB        58.5850   53.8770   22.1780 C.3    41  PRO41       0.0310
     20  CG        58.0070   53.8560   23.5610 C.3    41  PRO41       0.0237
     21  CD        57.1310   55.0920   23.5780 C.3    41  PRO41       0.0939
     22  N         57.3530   56.2740   20.1770 N.am   42  PHE42      -0.1974
     23  CA        56.8090   56.4670   18.8380 C.3    42  PHE42       0.1639
     24  C         56.8980   57.9270   18.3510 C.2    42  PHE42       0.2290
     25  O         56.4720   58.2350   17.2430 O.2    42  PHE42      -0.2864
     26  CB        55.3510   56.0080   18.8250 C.3    42  PHE42       0.0560
     27  CG        55.1770   54.5680   19.2350 C.ar   42  PHE42      -0.0200
     28  CD1       55.2920   53.5480   18.2960 C.ar   42  PHE42      -0.0042
     29  CD2       54.9670   54.2380   20.5740 C.ar   42  PHE42      -0.0042
     30  CE1       55.1600   52.2260   18.6770 C.ar   42  PHE42      -0.0003
     31  CE2       54.8380   52.9480   20.9650 C.ar   42  PHE42      -0.0003
     32  CZ        54.9590   51.9260   20.0310 C.ar   42  PHE42      -0.0000
     33  N         59.4240   59.8380   17.5690 N.3    44  GLN44      -0.1245
     34  CA        60.5570   60.1710   16.7090 C.3    44  GLN44       0.1566
     35  C         61.0240   58.9050   15.9850 C.2    44  GLN44       0.2260
     36  O         60.6750   57.7980   16.4020 O.2    44  GLN44      -0.2867
     37  CB        61.6980   60.7740   17.5460 C.3    44  GLN44       0.0367
     38  CG        62.2540   59.8290   18.6190 C.3    44  GLN44       0.0905
     39  CD        61.3520   59.7080   19.8270 C.2    44  GLN44       0.2608
     40  OE1       60.9640   60.7140   20.4290 O.2    44  GLN44      -0.2717
     41  NE2       61.0180   58.4750   20.1980 N.am   44  GLN44      -0.0878
     42  N         63.0530   55.6840   15.0180 N.3    46  VAL46      -0.1231
     43  CA        63.7870   54.7370   15.8370 C.3    46  VAL46       0.1692
     44  C         65.2760   55.0180   15.7020 C.2    46  VAL46       0.2592
     45  O         65.8550   54.9600   14.5920 O.2    46  VAL46      -0.2718
     46  CB        63.4670   53.2690   15.4510 C.3    46  VAL46       0.0266
     47  CG1       64.2870   52.2950   16.2880 C.3    46  VAL46       0.0020
     48  CG2       61.9670   53.0040   15.6400 C.3    46  VAL46       0.0020
     49  N         65.8950   55.3350   16.8340 N.am   47  ASP47      -0.1974
     50  CA        67.3230   55.6290   16.8630 C.3    47  ASP47       0.1709
     51  C         68.0640   54.3280   17.1160 C.2    47  ASP47       0.2293
     52  O         68.3520   53.9690   18.2660 O.2    47  ASP47      -0.2864
     53  CB        67.6470   56.6520   17.9430 C.3    47  ASP47       0.1436
     54  CG        69.0650   57.1980   17.8240 C.2    47  ASP47       0.3671
     55  OD1       69.9350   56.5230   17.2430 O.co2  47  ASP47      -0.2456
     56  OD2       69.2990   58.3190   18.3170 O.co2  47  ASP47      -0.2456
     57  N         69.9310   53.0070   20.5230 N.3    51  LEU51      -0.1245
     58  CA        69.3290   51.8130   21.1310 C.3    51  LEU51       0.1561
     59  C         70.1460   50.5550   20.8800 C.2    51  LEU51       0.2260
     60  O         69.8220   49.4940   21.4090 O.2    51  LEU51      -0.2867
     61  CB        67.9160   51.6110   20.6120 C.3    51  LEU51       0.0270
     62  CG        66.9520   52.7370   20.9690 C.3    51  LEU51       0.0019
     63  CD1       65.6780   52.6120   20.1520 C.3    51  LEU51       0.0001
     64  CD2       66.6450   52.6860   22.4770 C.3    51  LEU51       0.0001
     65  N         70.6190   48.6970   18.0190 N.3    53  LEU53      -0.1245
     66  CA        69.8260   47.7470   17.2350 C.3    53  LEU53       0.1561
     67  C         70.4030   47.6590   15.8160 C.2    53  LEU53       0.2260
     68  O         69.8750   48.2720   14.8890 O.2    53  LEU53      -0.2867
     69  CB        68.3640   48.2160   17.1310 C.3    53  LEU53       0.0270
     70  CG        67.6110   48.5060   18.4270 C.3    53  LEU53       0.0019
     71  CD1       66.2300   49.1050   18.1270 C.3    53  LEU53       0.0001
     72  CD2       67.4610   47.2530   19.2690 C.3    53  LEU53       0.0001
     73  N         67.8020   46.6900   13.0300 N.3    56  TYR56      -0.1241
     74  CA        66.4980   47.3400   12.9140 C.3    56  TYR56       0.1605
     75  C         66.2230   47.7790   11.4710 C.2    56  TYR56       0.2264
     76  O         65.1530   47.4790   10.9290 O.2    56  TYR56      -0.2867
     77  CB        66.3020   48.5280   13.8880 C.3    56  TYR56       0.0534
     78  CG        64.8740   49.0380   13.8120 C.ar   56  TYR56      -0.0201
     79  CD1       63.8630   48.4340   14.5450 C.ar   56  TYR56      -0.0009
     80  CD2       64.5230   50.0890   12.9650 C.ar   56  TYR56      -0.0009
     81  CE1       62.5560   48.8600   14.4560 C.ar   56  TYR56       0.0417
     82  CE2       63.1990   50.5220   12.8590 C.ar   56  TYR56       0.0417
     83  CZ        62.2240   49.8910   13.6140 C.ar   56  TYR56       0.1957
     84  OH        60.9110   50.2720   13.5510 O.3    56  TYR56      -0.2866
     85  N         58.5820   54.6300    9.8690 N.3    64  MET64      -0.1230
     86  CA        57.6170   55.6750   10.1340 C.3    64  MET64       0.1702
     87  C         57.4930   55.8660   11.6320 C.2    64  MET64       0.2592
     88  O         57.7470   54.9440   12.4120 O.2    64  MET64      -0.2718
     89  CB        56.2660   55.3270    9.5040 C.3    64  MET64       0.0401
     90  CG        55.2620   56.4770    9.4850 C.3    64  MET64       0.0596
     91  SD        55.8880   58.0860    8.9050 S.3    64  MET64      -0.1393
     92  CE        56.4020   57.7020    7.2370 C.3    64  MET64       0.0692
     93  N         57.1340   57.0830   12.0280 N.am   65  ASP65      -0.1974
     94  CA        56.9780   57.4100   13.4350 C.3    65  ASP65       0.1709
     95  C         56.0620   58.6160   13.5290 C.2    65  ASP65       0.2293
     96  O         55.8310   59.2770   12.5200 O.2    65  ASP65      -0.2864
     97  CB        58.3340   57.7590   14.0230 C.3    65  ASP65       0.1436
     98  CG        58.9190   58.9980   13.3890 C.2    65  ASP65       0.3671
     99  OD1       59.5290   58.8660   12.3000 O.co2  65  ASP65      -0.2456
    100  OD2       58.7180   60.1000   13.9570 O.co2  65  ASP65      -0.2456
    101  N         53.6250   52.5790   10.8130 N.3    91  MET91      -0.1245
    102  CA        54.3380   52.7020   12.0760 C.3    91  MET91       0.1570
    103  C         54.0060   51.5220   12.9740 C.2    91  MET91       0.2261
    104  O         54.9060   50.8950   13.5350 O.2    91  MET91      -0.2867
    105  CB        53.9440   53.9920   12.7810 C.3    91  MET91       0.0387
    106  CG        54.6800   54.2120   14.1030 C.3    91  MET91       0.0595
    107  SD        54.0870   55.6670   14.9780 S.3    91  MET91      -0.1393
    108  CE        52.4980   55.1060   15.6030 C.3    91  MET91       0.0692
    109  N         55.3060   48.1180   11.5020 N.3    94  ASN94      -0.1225
    110  CA        56.7590   48.0000   11.6720 C.3    94  ASN94       0.1785
    111  C         57.1150   47.5110   13.0700 C.2    94  ASN94       0.2597
    112  O         57.9910   46.6710   13.2440 O.2    94  ASN94      -0.2718
    113  CB        57.4520   49.3400   11.4980 C.3    94  ASN94       0.1169
    114  CG        57.5090   49.8030   10.0570 C.2    94  ASN94       0.2627
    115  OD1       57.3310   49.0260    9.1230 O.2    94  ASN94      -0.2716
    116  ND2       57.8010   51.0860    9.8770 N.am   94  ASN94      -0.0877
    117  N         56.4510   48.0810   14.0660 N.am   95  CYS95      -0.1970
    118  CA        56.6740   47.6880   15.4570 C.3    95  CYS95       0.1712
    119  C         56.3510   46.2090   15.6280 C.2    95  CYS95       0.2296
    120  O         57.0980   45.4570   16.2710 O.2    95  CYS95      -0.2864
    121  CB        55.7780   48.5180   16.3670 C.3    95  CYS95       0.0983
    122  SG        56.1790   48.3420   18.1190 S.3    95  CYS95      -0.0798
    123  N         59.1230   43.9940   13.8640 N.3    98  TYR98      -0.1227
    124  CA        60.4470   43.9050   14.4550 C.3    98  TYR98       0.1736
    125  C         60.4250   43.0940   15.7450 C.2    98  TYR98       0.2595
    126  O         61.3450   42.3290   16.0300 O.2    98  TYR98      -0.2718
    127  CB        61.0640   45.3050   14.7100 C.3    98  TYR98       0.0548
    128  CG        62.4560   45.2160   15.2760 C.ar   98  TYR98      -0.0200
    129  CD1       63.5290   44.8510   14.4770 C.ar   98  TYR98      -0.0009
    130  CD2       62.6990   45.4610   16.6260 C.ar   98  TYR98      -0.0009
    131  CE1       64.8090   44.7240   15.0110 C.ar   98  TYR98       0.0417
    132  CE2       63.9630   45.3490   17.1620 C.ar   98  TYR98       0.0417
    133  CZ        65.0180   44.9820   16.3580 C.ar   98  TYR98       0.1957
    134  OH        66.2840   44.8570   16.9130 O.3    98  TYR98      -0.2866
    135  N         59.3610   43.2880   16.5130 N.am   99  ASN99      -0.1974
    136  CA        59.2350   42.7520   17.8500 C.3    99  ASN99       0.1688
    137  C         58.3890   41.4970   17.8760 C.2    99  ASN99       0.2292
    138  O         58.0860   40.9400   16.8230 O.2    99  ASN99      -0.2864
    139  CB        58.6610   43.8520   18.7500 C.3    99  ASN99       0.1181
    140  CG        59.5280   45.0740   18.7370 C.2    99  ASN99       0.2629
    141  OD1       59.2220   46.1270   18.1040 O.2    99  ASN99      -0.2716
    142  ND2       60.6700   44.9270   19.3550 N.am   99  ASN99      -0.0877
    143  N         55.9510   41.4330   24.0260 N.3   103  ASP103     -0.1225
    144  CA        56.9900   42.4230   24.3480 C.3   103  ASP103      0.1805
    145  C         56.3300   43.6990   24.8570 C.2   103  ASP103      0.2598
    146  O         55.2700   44.0750   24.3810 O.2   103  ASP103     -0.2718
    147  CB        57.8500   42.7850   23.1330 C.3   103  ASP103      0.1424
    148  CG        58.7600   41.6470   22.6560 C.2   103  ASP103      0.3668
    149  OD1       59.0160   40.6840   23.4200 O.co2 103  ASP103     -0.2456
    150  OD2       59.2370   41.7320   21.4890 O.co2 103  ASP103     -0.2456
    151  N         56.9880   44.3870   25.7850 N.am  104  ASP104     -0.1960
    152  CA        56.4790   45.6660   26.3000 C.3   104  ASP104      0.1840
    153  C         56.1350   46.6050   25.1520 C.2   104  ASP104      0.2621
    154  O         55.0720   47.2100   25.1240 O.2   104  ASP104     -0.2715
    155  CB        57.5190   46.3720   27.1640 C.3   104  ASP104      0.1450
    156  CG        57.7290   45.7220   28.5510 C.2   104  ASP104      0.3671
    157  OD1       56.9030   44.9140   29.0370 O.co2 104  ASP104     -0.2456
    158  OD2       58.7550   46.0550   29.1580 O.co2 104  ASP104     -0.2456
    159  N         57.0410   46.7250   24.1920 N.am  105  ILE105     -0.1977
    160  CA        56.8560   47.7280   23.1350 C.3   105  ILE105      0.1596
    161  C         55.6250   47.3880   22.2990 C.2   105  ILE105      0.2287
    162  O         54.9330   48.2700   21.7780 O.2   105  ILE105     -0.2864
    163  CB        58.1100   47.8400   22.2530 C.3   105  ILE105      0.0276
    164  CG1       58.0040   49.0130   21.2740 C.3   105  ILE105      0.0022
    165  CG2       58.3440   46.5610   21.4620 C.3   105  ILE105      0.0022
    166  CD1       57.9720   50.3960   21.9330 C.3   105  ILE105      0.0001
    167  N         52.4980   48.3420   24.1760 N.3   108  MET108     -0.1245
    168  CA        52.3440   49.7960   24.0960 C.3   108  MET108      0.1570
    169  C         51.7660   50.1850   22.7270 C.2   108  MET108      0.2261
    170  O         50.8240   50.9880   22.6230 O.2   108  MET108     -0.2867
    171  CB        53.7070   50.4530   24.3320 C.3   108  MET108      0.0387
    172  CG        54.2430   50.2320   25.7510 C.3   108  MET108      0.0595
    173  SD        55.9580   50.7740   25.9640 S.3   108  MET108     -0.1393
    174  CE        55.7750   52.5550   25.9650 C.3   108  MET108      0.0692
@<TRIPOS>BOND
     1    92    91    1
     2    91    90    1
     3   115   114    2
     4    90    89    1
     5    89    86    1
     6    85    86    1
     7   116   114   am
     8   114   113    1
     9    86    87    1
    10   101   102    1
    11    76    75    2
    12    75    74    1
    13   113   110    1
    14   109   110    1
    15    87    93   am
    16    87    88    2
    17   110   111    1
    18    93    94    1
    19   102   105    1
    20   102   103    1
    21    99    98   ar
    22    96    95    2
    23   105   106    1
    24    82    80   ar
    25    82    83   ar
    26    74    73    1
    27    74    77    1
    28    80    78   ar
    29   103   104    2
    30   111   112    2
    31   111   117   am
    32    98   100   ar
    33    98    97    1
    34    94    95    1
    35    94    97    1
    36    84    83    1
    37    83    81   ar
    38    78    77    1
    39    78    79   ar
    40   123   124    1
    41   117   118    1
    42   106   107    1
    43   124   127    1
    44   124   125    1
    45    81    79   ar
    46   129   131   ar
    47   129   128   ar
    48    45    44    2
    49   127   128    1
    50    68    67    2
    51   107   108    1
    52   131   133   ar
    53    42    43    1
    54   128   130   ar
    55    46    48    1
    56    46    43    1
    57    46    47    1
    58   118   119    1
    59   118   121    1
    60   119   120    2
    61    44    43    1
    62    44    49   am
    63   125   126    2
    64   125   135   am
    65    67    66    1
    66    35    36    2
    67    35    34    1
    68   133   134    1
    69   133   132   ar
    70   121   122    1
    71   135   136    1
    72   130   132   ar
    73    34    37    1
    74    34    33    1
    75   138   137    2
    76    49    50    1
    77    50    51    1
    78    50    53    1
    79    51    52    2
    80    69    66    1
    81    69    70    1
    82    66    65    1
    83    55    54   ar
    84    25    24    2
    85    37    38    1
    86    54    53    1
    87    54    56   ar
    88   136   137    1
    89   136   139    1
    90   141   140    2
    91    71    70    1
    92    28    30   ar
    93    28    27   ar
    94    24    23    1
    95    70    72    1
    96    38    39    1
    97    30    32   ar
    98   140   139    1
    99   140   142   am
   100    26    23    1
   101    26    27    1
   102    23    22    1
   103    27    29   ar
   104    18    17    2
   105    39    41   am
   106    39    40    2
   107    32    31   ar
   108    63    62    1
   109    22    17   am
   110    17    16    1
   111    57    58    1
   112    29    31   ar
   113    61    62    1
   114    61    58    1
   115    59    58    1
   116    59    60    2
   117    62    64    1
   118   164   166    1
   119   164   163    1
   120   165   163    1
   121   150   148   ar
   122   162   161    2
   123    16    19    1
   124    16    15    1
   125    19    20    1
   126     4     3    2
   127   163   160    1
   128   161   160    1
   129   170   169    2
   130   148   147    1
   131   148   149   ar
   132   169   168    1
   133    15     3   am
   134    15    21    1
   135     3     2    1
   136   147   144    1
   137   160   159    1
   138    20    21    1
   139     2     1    1
   140     2     5    1
   141   143   144    1
   142   168   167    1
   143   168   171    1
   144   159   153   am
   145   171   172    1
   146   144   145    1
   147   146   145    2
   148   145   151   am
   149   154   153    2
   150   153   152    1
   151     5     6    1
   152    11    13   ar
   153    11     8   ar
   154   172   173    1
   155   151   152    1
   156    13    14   ar
   157   173   174    1
   158     6     8   ar
   159     6     7   ar
   160     8    10   ar
   161   152   155    1
   162    14    12   ar
   163     7     9   ar
   164    10    12   ar
   165    10     9   ar
   166   155   156    1
   167   156   157   ar
   168   156   158   ar
