@<TRIPOS>MOLECULE
tmp/4o7mC00.pdb
 113 104 0 0 0
SMALL
GASTEIGER

@<TRIPOS>ATOM
      1  N         50.0530   34.7850   86.0810 N.3    10  VAL10      -0.1231
      2  CA        49.1230   34.3630   85.0320 C.3    10  VAL10       0.1692
      3  C         47.8350   33.6970   85.5260 C.2    10  VAL10       0.2591
      4  O         46.9930   33.3060   84.7330 O.2    10  VAL10      -0.2718
      5  CB        49.8240   33.4070   84.0200 C.3    10  VAL10       0.0266
      6  CG1       51.0910   34.0740   83.4270 C.3    10  VAL10       0.0020
      7  CG2       50.1430   32.0230   84.6280 C.3    10  VAL10       0.0020
      8  N         47.7100   33.4600   86.8270 N.am   11  VAL11      -0.1980
      9  CA        46.5580   32.7250   87.3360 C.3    11  VAL11       0.1595
     10  C         45.4400   33.6070   87.8580 C.2    11  VAL11       0.2287
     11  O         45.5920   34.8040   87.9930 O.2    11  VAL11      -0.2864
     12  CB        46.9730   31.6660   88.4230 C.3    11  VAL11       0.0276
     13  CG1       47.9530   30.6740   87.8550 C.3    11  VAL11       0.0022
     14  CG2       47.5060   32.3470   89.6720 C.3    11  VAL11       0.0022
     15  N         48.5930   30.8850   94.2040 N.3    17  LYS17      -0.1245
     16  CA        49.5070   31.9530   93.7960 C.3    17  LYS17       0.1561
     17  C         48.8160   33.3220   93.8530 C.2    17  LYS17       0.2260
     18  O         49.4090   34.3170   94.2610 O.2    17  LYS17      -0.2867
     19  CB        50.1110   31.6820   92.4230 C.3    17  LYS17       0.0271
     20  CG        50.9970   32.8270   91.9120 C.3    17  LYS17       0.0035
     21  CD        51.9460   32.3780   90.7860 C.3    17  LYS17       0.0206
     22  CE        51.2570   31.6690   89.6360 C.3    17  LYS17       0.1093
     23  NZ        52.2420   31.2490   88.6130 N.3    17  LYS17      -0.1314
     24  N         55.8290   28.6250   87.0100 N.3    66  SER66      -0.1217
     25  CA        56.0270   27.2030   87.1920 C.3    66  SER66       0.1889
     26  C         57.4970   26.8510   86.9990 C.2    66  SER66       0.2288
     27  O         58.1990   27.4190   86.1570 O.2    66  SER66      -0.2866
     28  CB        55.1840   26.4160   86.2090 C.3    66  SER66       0.2089
     29  OG        55.5180   25.0250   86.2350 O.3    66  SER66      -0.2183
     30  N         59.1620   26.3880   83.5760 N.3    69  LYS69      -0.1245
     31  CA        59.2770   27.4940   82.6230 C.3    69  LYS69       0.1561
     32  C         60.6460   28.2090   82.6320 C.2    69  LYS69       0.2260
     33  O         60.7780   29.3410   82.1680 O.2    69  LYS69      -0.2867
     34  CB        58.1120   28.4850   82.8310 C.3    69  LYS69       0.0271
     35  CG        56.7760   27.8920   82.4690 C.3    69  LYS69       0.0035
     36  CD        55.5730   28.7740   82.8550 C.3    69  LYS69       0.0206
     37  CE        54.2700   28.0450   82.5210 C.3    69  LYS69       0.1093
     38  NZ        53.0480   28.7710   82.9850 N.3    69  LYS69      -0.1314
     39  N         51.5610   24.4780   94.2430 N.3   119  ASN119     -0.1240
     40  CA        50.2040   24.3940   93.7100 C.3   119  ASN119      0.1653
     41  C         49.6780   22.9870   94.0050 C.2   119  ASN119      0.2266
     42  O         48.9040   22.7960   94.9330 O.2   119  ASN119     -0.2867
     43  CB        50.1160   24.7780   92.2430 C.3   119  ASN119      0.1155
     44  CG        48.6770   24.9590   91.7760 C.2   119  ASN119      0.2627
     45  OD1       47.7800   24.2290   92.2030 O.2   119  ASN119     -0.2716
     46  ND2       48.4480   25.9240   90.9060 N.am  119  ASN119     -0.0877
     47  N         47.6620   20.6050   75.1180 N.3   141  ARG141     -0.1245
     48  CA        48.4150   21.8010   75.4520 C.3   141  ARG141      0.1563
     49  C         49.3830   21.4430   76.5680 C.2   141  ARG141      0.2260
     50  O         49.0320   20.7270   77.4950 O.2   141  ARG141     -0.2867
     51  CB        47.5100   22.9400   75.9290 C.3   141  ARG141      0.0307
     52  CG        48.2660   24.2130   76.3480 C.3   141  ARG141      0.0489
     53  CD        48.5190   24.2760   77.8460 C.3   141  ARG141      0.2205
     54  NE        49.3770   25.4150   78.1870 N.pl3 141  ARG141     -0.0865
     55  CZ        49.6370   25.7760   79.4350 C.cat 141  ARG141      0.5346
     56  NH1       50.4560   26.7870   79.6890 N.pl3 141  ARG141      0.1354
     57  NH2       49.0660   25.1130   80.4350 N.pl3 141  ARG141      0.1354
     58  N         49.4460   30.0170   79.2170 N.3   163  PHE163     -0.1241
     59  CA        48.2970   29.6750   80.0540 C.3   163  PHE163      0.1605
     60  C         47.0270   30.4420   79.6780 C.2   163  PHE163      0.2264
     61  O         45.9290   29.8960   79.7390 O.2   163  PHE163     -0.2867
     62  CB        48.6480   29.9580   81.5060 C.3   163  PHE163      0.0534
     63  CG        47.6620   29.4030   82.5080 C.ar  163  PHE163     -0.0203
     64  CD1       47.4050   28.0380   82.5870 C.ar  163  PHE163     -0.0042
     65  CD2       47.0160   30.2500   83.3960 C.ar  163  PHE163     -0.0042
     66  CE1       46.5230   27.5370   83.5340 C.ar  163  PHE163     -0.0003
     67  CE2       46.1460   29.7400   84.3550 C.ar  163  PHE163     -0.0003
     68  CZ        45.9000   28.3870   84.4070 C.ar  163  PHE163     -0.0000
     69  N         47.0250   19.1030   80.9670 N.3   179  GLU179     -0.1231
     70  CA        47.3580   18.5860   82.3040 C.3   179  GLU179      0.1699
     71  C         47.4280   19.7650   83.2740 C.2   179  GLU179      0.2592
     72  O         48.0400   20.8000   82.9880 O.2   179  GLU179     -0.2718
     73  CB        48.7060   17.8350   82.3020 C.3   179  GLU179      0.0402
     74  CG        49.8580   18.6490   81.6790 C.3   179  GLU179      0.1161
     75  CD        51.2500   18.1630   82.0260 C.2   179  GLU179      0.3649
     76  OE1       51.4320   16.9760   82.3830 O.co2 179  GLU179     -0.2457
     77  OE2       52.1740   19.0030   81.9570 O.co2 179  GLU179     -0.2457
     78  N         46.8150   19.6320   84.4420 N.am  180  ASN180     -0.1974
     79  CA        46.9240   20.7020   85.4230 C.3   180  ASN180      0.1688
     80  C         46.4490   20.2810   86.8080 C.2   180  ASN180      0.2292
     81  O         45.9220   19.1930   86.9950 O.2   180  ASN180     -0.2864
     82  CB        46.2070   21.9750   84.9520 C.3   180  ASN180      0.1181
     83  CG        47.0470   23.2100   85.1440 C.2   180  ASN180      0.2629
     84  OD1       47.5090   23.4810   86.2440 O.2   180  ASN180     -0.2716
     85  ND2       47.2930   23.9530   84.0610 N.am  180  ASN180     -0.0877
     86  N         43.8170   24.8680   89.1300 N.3   184  ASN184     -0.1240
     87  CA        43.7290   25.4960   87.8190 C.3   184  ASN184      0.1653
     88  C         42.5740   24.9700   86.9900 C.2   184  ASN184      0.2266
     89  O         41.9060   25.7260   86.3060 O.2   184  ASN184     -0.2867
     90  CB        45.0390   25.3840   87.0460 C.3   184  ASN184      0.1155
     91  CG        46.0510   26.4580   87.4500 C.2   184  ASN184      0.2627
     92  OD1       45.6830   27.5550   87.8870 O.2   184  ASN184     -0.2716
     93  ND2       47.3220   26.1470   87.2980 N.am  184  ASN184     -0.0877
     94  N         53.0820   20.4730   89.6750 N.3   205  LEU205     -0.1245
     95  CA        53.0910   21.8550   89.2570 C.3   205  LEU205      0.1561
     96  C         53.2950   22.7210   90.4890 C.2   205  LEU205      0.2260
     97  O         52.3690   22.9490   91.2510 O.2   205  LEU205     -0.2867
     98  CB        51.7890   22.2030   88.5220 C.3   205  LEU205      0.0270
     99  CG        51.9700   23.3370   87.4980 C.3   205  LEU205      0.0019
    100  CD1       50.7810   23.4000   86.5600 C.3   205  LEU205      0.0001
    101  CD2       52.1710   24.6470   88.1990 C.3   205  LEU205      0.0001
    102  N         55.8800   26.3350   91.8470 N.3   207  TYR207     -0.1241
    103  CA        56.4710   27.5700   91.3790 C.3   207  TYR207      0.1605
    104  C         57.7780   27.8840   92.0900 C.2   207  TYR207      0.2264
    105  O         57.9990   27.4330   93.2060 O.2   207  TYR207     -0.2867
    106  CB        55.5320   28.7270   91.6610 C.3   207  TYR207      0.0534
    107  CG        54.1110   28.5130   91.2480 C.ar  207  TYR207     -0.0201
    108  CD1       53.7760   28.3950   89.8990 C.ar  207  TYR207     -0.0009
    109  CD2       53.0900   28.4490   92.1950 C.ar  207  TYR207     -0.0009
    110  CE1       52.4710   28.2150   89.5100 C.ar  207  TYR207      0.0417
    111  CE2       51.7750   28.2850   91.8080 C.ar  207  TYR207      0.0417
    112  CZ        51.4660   28.1690   90.4610 C.ar  207  TYR207      0.1957
    113  OH        50.1520   28.0380   90.0700 O.3   207  TYR207     -0.2866
@<TRIPOS>BOND
     1    47    48    1
     2    48    51    1
     3    48    49    1
     4    51    52    1
     5    52    53    1
     6    49    50    2
     7    53    54    1
     8    54    55    2
     9    58    59    1
    10    55    56    1
    11    55    57    1
    12    60    61    2
    13    60    59    1
    14    59    62    1
    15    69    70    1
    16    62    63    1
    17    74    75    1
    18    74    73    1
    19    77    75   ar
    20    75    76   ar
    21    33    32    2
    22    73    70    1
    23    70    71    1
    24    35    34    1
    25    35    36    1
    26    63    64   ar
    27    63    65   ar
    28    37    36    1
    29    37    38    1
    30    64    66   ar
    31    31    32    1
    32    31    34    1
    33    31    30    1
    34    72    71    2
    35    71    78   am
    36    65    67   ar
    37     6     5    1
    38    66    68   ar
    39     5     7    1
    40     5     2    1
    41    85    83   am
    42    67    68   ar
    43    78    79    1
    44     4     3    2
    45    82    83    1
    46    82    79    1
    47     2     3    1
    48     2     1    1
    49    83    84    2
    50    79    80    1
    51     3     8   am
    52    27    26    2
    53    28    29    1
    54    28    25    1
    55    89    88    2
    56   100    99    1
    57    80    81    2
    58     8     9    1
    59    88    87    1
    60    26    25    1
    61    24    25    1
    62    90    91    1
    63    90    87    1
    64    93    91   am
    65     9    10    1
    66     9    12    1
    67    91    92    2
    68    99   101    1
    69    99    98    1
    70    87    86    1
    71    13    12    1
    72    10    11    2
    73    12    14    1
    74    98    95    1
    75    23    22    1
    76    95    94    1
    77    95    96    1
    78   110   108   ar
    79   110   112   ar
    80    22    21    1
    81   108   107   ar
    82   113   112    1
    83   112   111   ar
    84    96    97    2
    85    21    20    1
    86    46    44   am
    87   107   106    1
    88   107   109   ar
    89   103   106    1
    90   103   102    1
    91   103   104    1
    92    44    45    2
    93    44    43    1
    94   111   109   ar
    95    20    19    1
    96   104   105    2
    97    43    40    1
    98    19    16    1
    99    40    41    1
   100    40    39    1
   101    16    17    1
   102    16    15    1
   103    17    18    2
   104    41    42    2
