@<TRIPOS>MOLECULE
tmp/4o7mA00.pdb
 113 104 0 0 0
SMALL
GASTEIGER

@<TRIPOS>ATOM
      1  N         78.6470   65.5540   64.4990 N.3     9  VAL9       -0.1231
      2  CA        79.7430   65.2150   63.5960 C.3     9  VAL9        0.1692
      3  C         79.3290   64.5970   62.2670 C.2     9  VAL9        0.2591
      4  O         80.1830   64.3150   61.4310 O.2     9  VAL9       -0.2718
      5  CB        80.7520   64.2580   64.2870 C.3     9  VAL9        0.0266
      6  CG1       81.2380   64.8650   65.5970 C.3     9  VAL9        0.0020
      7  CG2       80.1700   62.8520   64.5050 C.3     9  VAL9        0.0020
      8  N         78.0430   64.3680   62.0640 N.am   10  VAL10      -0.1980
      9  CA        77.5760   63.7200   60.8390 C.3    10  VAL10       0.1595
     10  C         77.0810   64.6820   59.7760 C.2    10  VAL10       0.2287
     11  O         76.9090   65.8810   60.0130 O.2    10  VAL10      -0.2864
     12  CB        76.4950   62.6260   61.1320 C.3    10  VAL10       0.0276
     13  CG1       77.0350   61.5870   62.0940 C.3    10  VAL10       0.0022
     14  CG2       75.2040   63.2280   61.6670 C.3    10  VAL10       0.0022
     15  N         70.6660   61.6680   62.5820 N.3    16  LYS16      -0.1245
     16  CA        71.0170   62.6760   63.5690 C.3    16  LYS16       0.1561
     17  C         70.9770   64.0750   62.9550 C.2    16  LYS16       0.2260
     18  O         70.5330   65.0390   63.5970 O.2    16  LYS16      -0.2867
     19  CB        72.3800   62.3600   64.2000 C.3    16  LYS16       0.0271
     20  CG        72.8680   63.4610   65.1510 C.3    16  LYS16       0.0035
     21  CD        73.9150   62.9600   66.1400 C.3    16  LYS16       0.0206
     22  CE        75.0920   62.2980   65.4160 C.3    16  LYS16       0.1093
     23  NZ        76.1180   61.8610   66.3910 N.3    16  LYS16      -0.1314
     24  N         77.5820   59.0290   69.8780 N.3    65  SER65      -0.1217
     25  CA        77.4260   57.5830   69.9710 C.3    65  SER65       0.1889
     26  C         77.5900   57.1200   71.4050 C.2    65  SER65       0.2288
     27  O         78.4340   57.6250   72.1570 O.2    65  SER65      -0.2866
     28  CB        78.4920   56.9020   69.1280 C.3    65  SER65       0.2089
     29  OG        78.4470   55.4960   69.3310 O.3    65  SER65      -0.2183
     30  N         81.0310   56.5570   73.1470 N.3    68  LYS68      -0.1245
     31  CA        81.9830   57.6460   73.3610 C.3    68  LYS68       0.1561
     32  C         81.8900   58.2660   74.7590 C.2    68  LYS68       0.2260
     33  O         82.2620   59.4240   74.9600 O.2    68  LYS68      -0.2867
     34  CB        81.7900   58.6970   72.2600 C.3    68  LYS68       0.0271
     35  CG        82.1440   58.1610   70.9000 C.3    68  LYS68       0.0035
     36  CD        81.8320   59.1160   69.7560 C.3    68  LYS68       0.0206
     37  CE        82.1640   58.4850   68.3900 C.3    68  LYS68       0.1093
     38  NZ        81.6820   59.3050   67.2140 N.3    68  LYS68      -0.1314
     39  N         70.6280   55.0800   65.0810 N.3   118  ASN118     -0.1240
     40  CA        71.1740   55.0940   63.7320 C.3   118  ASN118      0.1653
     41  C         70.9030   53.7030   63.1080 C.2   118  ASN118      0.2266
     42  O         70.0170   53.5690   62.2630 O.2   118  ASN118     -0.2867
     43  CB        72.6530   55.5170   63.7190 C.3   118  ASN118      0.1155
     44  CG        73.1710   55.7780   62.3240 C.2   118  ASN118      0.2627
     45  OD1       72.7710   55.0970   61.3770 O.2   118  ASN118     -0.2716
     46  ND2       74.0710   56.7470   62.1730 N.am  118  ASN118     -0.0877
     47  N         89.9000   51.7000   61.5740 N.3   140  ARG140     -0.1245
     48  CA        89.5330   52.8220   62.4380 C.3   140  ARG140      0.1563
     49  C         88.3860   52.3740   63.3180 C.2   140  ARG140      0.2260
     50  O         87.4920   51.6580   62.8490 O.2   140  ARG140     -0.2867
     51  CB        89.1080   54.0420   61.6160 C.3   140  ARG140      0.0307
     52  CG        88.5950   55.2340   62.4410 C.3   140  ARG140      0.0489
     53  CD        87.0960   55.2010   62.6440 C.3   140  ARG140      0.2205
     54  NE        86.6690   56.2700   63.5520 N.pl3 140  ARG140     -0.0865
     55  CZ        85.4000   56.5950   63.7950 C.cat 140  ARG140      0.5346
     56  NH1       84.4150   55.9960   63.1640 N.pl3 140  ARG140      0.1354
     57  NH2       85.1310   57.5370   64.6780 N.pl3 140  ARG140      0.1354
     58  N         85.5000   60.8820   64.0000 N.3   162  PHE162     -0.1241
     59  CA        84.7240   60.6060   62.8010 C.3   162  PHE162      0.1605
     60  C         85.1440   61.4980   61.6480 C.2   162  PHE162      0.2264
     61  O         85.1520   61.0520   60.5060 O.2   162  PHE162     -0.2867
     62  CB        83.2390   60.7930   63.0950 C.3   162  PHE162      0.0534
     63  CG        82.3280   60.3400   61.9780 C.ar  162  PHE162     -0.0203
     64  CD1       82.2720   58.9960   61.6050 C.ar  162  PHE162     -0.0042
     65  CD2       81.5220   61.2450   61.3370 C.ar  162  PHE162     -0.0042
     66  CE1       81.4360   58.5760   60.6120 C.ar  162  PHE162     -0.0003
     67  CE2       80.6800   60.8460   60.3330 C.ar  162  PHE162     -0.0003
     68  CZ        80.6200   59.5060   59.9800 C.ar  162  PHE162     -0.0000
     69  N         84.0240   50.1480   60.6000 N.3   178  GLU178     -0.1231
     70  CA        82.7020   49.5900   60.8340 C.3   178  GLU178      0.1699
     71  C         81.7150   50.7410   60.9680 C.2   178  GLU178      0.2592
     72  O         81.9950   51.7260   61.6360 O.2   178  GLU178     -0.2718
     73  CB        82.6820   48.7310   62.1080 C.3   178  GLU178      0.0402
     74  CG        83.2740   49.4450   63.3440 C.3   178  GLU178      0.1161
     75  CD        82.8310   48.8860   64.6780 C.2   178  GLU178      0.3649
     76  OE1       82.4660   47.6780   64.7480 O.co2 178  GLU178     -0.2457
     77  OE2       82.8400   49.6580   65.6670 O.co2 178  GLU178     -0.2457
     78  N         80.5580   50.6390   60.3250 N.am  179  ASN179     -0.1974
     79  CA        79.5700   51.7000   60.4760 C.3   179  ASN179      0.1688
     80  C         78.2300   51.3120   59.8920 C.2   179  ASN179      0.2292
     81  O         78.0960   50.2470   59.2740 O.2   179  ASN179     -0.2864
     82  CB        80.0740   52.9990   59.8530 C.3   179  ASN179      0.1181
     83  CG        79.8520   54.1850   60.7650 C.2   179  ASN179      0.2629
     84  OD1       78.7380   54.4090   61.2290 O.2   179  ASN179     -0.2716
     85  ND2       80.9150   54.8960   61.0940 N.am  179  ASN179     -0.0877
     86  N         76.0180   56.1290   57.5430 N.3   183  ASN183     -0.1240
     87  CA        77.3140   56.7820   57.5490 C.3   183  ASN183      0.1653
     88  C         78.1840   56.3400   56.3820 C.2   183  ASN183      0.2266
     89  O         78.9020   57.1460   55.7810 O.2   183  ASN183     -0.2867
     90  CB        78.0550   56.5830   58.8860 C.3   183  ASN183      0.1155
     91  CG        77.5930   57.5540   59.9550 C.2   183  ASN183      0.2627
     92  OD1       77.1390   58.6560   59.6570 O.2   183  ASN183     -0.2716
     93  ND2       77.6840   57.1390   61.2090 N.am  183  ASN183     -0.0877
     94  N         75.1020   51.0150   66.4660 N.3   204  LEU204     -0.1245
     95  CA        75.5280   52.4070   66.5730 C.3   204  LEU204      0.1561
     96  C         74.2850   53.2500   66.8390 C.2   204  LEU204      0.2260
     97  O         73.4930   53.4940   65.9330 O.2   204  LEU204     -0.2867
     98  CB        76.2610   52.8590   65.3100 C.3   204  LEU204      0.0270
     99  CG        77.2990   53.9480   65.5730 C.3   204  LEU204      0.0019
    100  CD1       78.2360   54.0940   64.3770 C.3   204  LEU204      0.0001
    101  CD2       76.6540   55.2450   65.8790 C.3   204  LEU204      0.0001
    102  N         72.8010   56.6530   69.6550 N.3   206  TYR206     -0.1241
    103  CA        73.2520   57.8510   70.3570 C.3   206  TYR206      0.1605
    104  C         72.4940   58.0930   71.6480 C.2   206  TYR206      0.2264
    105  O         71.3840   57.6010   71.8160 O.2   206  TYR206     -0.2867
    106  CB        72.9780   59.0500   69.4800 C.3   206  TYR206      0.0534
    107  CG        73.4510   58.9290   68.0560 C.ar  206  TYR206     -0.0201
    108  CD1       74.7950   58.8610   67.7580 C.ar  206  TYR206     -0.0009
    109  CD2       72.5400   58.9190   66.9940 C.ar  206  TYR206     -0.0009
    110  CE1       75.2270   58.7830   66.4300 C.ar  206  TYR206      0.0417
    111  CE2       72.9700   58.8460   65.6830 C.ar  206  TYR206      0.0417
    112  CZ        74.2930   58.7940   65.4090 C.ar  206  TYR206      0.1957
    113  OH        74.7450   58.7750   64.1060 O.3   206  TYR206     -0.2866
@<TRIPOS>BOND
     1    89    88    2
     2    88    87    1
     3    86    87    1
     4    87    90    1
     5    90    91    1
     6    81    80    2
     7    92    91    2
     8    10    11    2
     9    10     9    1
    10    82    79    1
    11    82    83    1
    12    80    79    1
    13    91    93   am
    14    68    67   ar
    15    68    66   ar
    16    78    79    1
    17    78    71   am
    18    67    65   ar
    19    61    60    2
    20    69    70    1
    21    66    64   ar
    22    83    85   am
    23    83    84    2
    24    70    71    1
    25    70    73    1
    26     9    12    1
    27     9     8    1
    28    71    72    2
    29    12    14    1
    30    12    13    1
    31    65    63   ar
    32    45    44    2
    33     4     3    2
    34    47    48    1
    35    64    63   ar
    36    51    48    1
    37    51    52    1
    38    60    59    1
    39    63    62    1
    40     8     3   am
    41    73    74    1
    42    46    44   am
    43    42    41    2
    44     3     2    1
    45    44    43    1
    46    48    49    1
    47    52    53    1
    48    15    16    1
    49    53    54    1
    50    59    62    1
    51    59    58    1
    52    50    49    2
    53    17    16    1
    54    17    18    2
    55    41    40    1
    56    56    55    1
    57    74    75    1
    58    54    55    2
    59    16    19    1
    60     2     5    1
    61     2     1    1
    62    43    40    1
    63    40    39    1
    64    55    57    1
    65   113   112    1
    66    19    20    1
    67     5     7    1
    68     5     6    1
    69   100    99    1
    70    75    76   ar
    71    75    77   ar
    72    20    21    1
    73    98    99    1
    74    98    95    1
    75   112   111   ar
    76   112   110   ar
    77    22    21    1
    78    22    23    1
    79    99   101    1
    80   111   109   ar
    81    97    96    2
    82   110   108   ar
    83    94    95    1
    84    95    96    1
    85   109   107   ar
    86    38    37    1
    87   108   107   ar
    88   107   106    1
    89    37    36    1
    90    28    29    1
    91    28    25    1
    92   106   103    1
    93   102   103    1
    94    36    35    1
    95    24    25    1
    96    25    26    1
    97   103   104    1
    98    35    34    1
    99    26    27    2
   100   104   105    2
   101    34    31    1
   102    30    31    1
   103    31    32    1
   104    32    33    2
