@<TRIPOS>MOLECULE
tmp/4o7nA00.pdb
 145 136 0 0 0
SMALL
GASTEIGER

@<TRIPOS>ATOM
      1  N         -8.1810   14.8830    9.4790 N.3     3  TYR3       -0.1241
      2  CA        -7.8780   14.4160    8.1300 C.3     3  TYR3        0.1605
      3  C         -6.5280   13.7010    8.1500 C.2     3  TYR3        0.2264
      4  O         -5.5340   14.2610    8.6110 O.2     3  TYR3       -0.2867
      5  CB        -7.8680   15.5730    7.1220 C.3     3  TYR3        0.0534
      6  CG        -7.4580   15.1500    5.7200 C.ar    3  TYR3       -0.0201
      7  CD1       -6.1390   15.3080    5.2750 C.ar    3  TYR3       -0.0009
      8  CD2       -8.3880   14.5780    4.8400 C.ar    3  TYR3       -0.0009
      9  CE1       -5.7620   14.9130    3.9980 C.ar    3  TYR3        0.0417
     10  CE2       -8.0190   14.1800    3.5630 C.ar    3  TYR3        0.0417
     11  CZ        -6.7090   14.3480    3.1450 C.ar    3  TYR3        0.1957
     12  OH        -6.3440   13.9490    1.8770 O.3     3  TYR3       -0.2866
     13  N         -3.8490   12.2920    5.6600 N.3     5  GLY5       -0.1210
     14  CA        -3.2980   12.1700    4.3050 C.3     5  GLY5        0.1956
     15  C         -2.1620   11.1640    4.2470 C.2     5  GLY5        0.2612
     16  O         -1.7890   10.5910    5.2730 O.2     5  GLY5       -0.2717
     17  N         -1.6110   10.9510    3.0500 N.am    6  LYS6       -0.1965
     18  CA        -0.4990   10.0070    2.8290 C.3     6  LYS6        0.1728
     19  C          0.7330   10.2540    3.7240 C.2     6  LYS6        0.2616
     20  O          1.4340    9.3060    4.1170 O.2     6  LYS6       -0.2715
     21  CB        -0.0650   10.0220    1.3550 C.3     6  LYS6        0.0311
     22  CG        -1.1030    9.4050    0.4190 C.3     6  LYS6        0.0038
     23  CD        -0.8020    9.7210   -1.0180 C.3     6  LYS6        0.0206
     24  CE        -0.9470   11.2030   -1.2920 C.3     6  LYS6        0.1093
     25  NZ        -2.3340   11.6800   -1.0890 N.3     6  LYS6       -0.1314
     26  N          0.9890   11.5210    4.0500 N.am    7  ALA7       -0.1963
     27  CA         2.2120   11.8940    4.7690 C.3     7  ALA7        0.1728
     28  C          1.9920   12.6730    6.0790 C.2     7  ALA7        0.2616
     29  O          2.8830   12.7140    6.9370 O.2     7  ALA7       -0.2715
     30  CB         3.1450   12.6660    3.8400 C.3     7  ALA7        0.0334
     31  N          0.8280   13.3080    6.2120 N.am    8  LYS8       -0.1977
     32  CA         0.5360   14.1670    7.3650 C.3     8  LYS8        0.1596
     33  C         -0.9100   13.9940    7.8370 C.2     8  LYS8        0.2287
     34  O         -1.7800   13.5810    7.0580 O.2     8  LYS8       -0.2864
     35  CB         0.8240   15.6520    7.0430 C.3     8  LYS8        0.0298
     36  CG         2.1530   15.8950    6.3180 C.3     8  LYS8        0.0038
     37  CD         2.4770   17.3650    6.0850 C.3     8  LYS8        0.0206
     38  CE         1.6050   18.0320    5.0210 C.3     8  LYS8        0.1093
     39  NZ         1.7530   17.4930    3.6390 N.3     8  LYS8       -0.1314
     40  N         -4.0450   16.3670    9.6240 N.3    10  MET10      -0.1245
     41  CA        -4.4640   17.7400    9.8770 C.3    10  MET10       0.1570
     42  C         -5.5320   17.7380   10.9610 C.2    10  MET10       0.2261
     43  O         -6.6420   17.2570   10.7480 O.2    10  MET10      -0.2867
     44  CB        -4.9960   18.3980    8.5930 C.3    10  MET10       0.0387
     45  CG        -4.1100   18.1990    7.3690 C.3    10  MET10       0.0595
     46  SD        -2.4850   18.9790    7.5230 S.3    10  MET10      -0.1393
     47  CE        -2.9160   20.7020    7.2560 C.3    10  MET10       0.0692
     48  N         -5.1500   24.9650   12.3030 N.3    18  LEU18      -0.1245
     49  CA        -5.0020   23.5230   12.1890 C.3    18  LEU18       0.1561
     50  C         -3.6870   23.0900   12.7930 C.2    18  LEU18       0.2260
     51  O         -2.7350   23.8750   12.8730 O.2    18  LEU18      -0.2867
     52  CB        -5.0130   23.0770   10.7290 C.3    18  LEU18       0.0270
     53  CG        -6.2230   23.3290    9.8440 C.3    18  LEU18       0.0019
     54  CD1       -5.8620   22.9110    8.4240 C.3    18  LEU18       0.0001
     55  CD2       -7.4500   22.5830   10.3480 C.3    18  LEU18       0.0001
     56  N         -0.7960   20.5680   11.8390 N.3    20  MET20      -0.1245
     57  CA        -0.2510   19.7360   10.7830 C.3    20  MET20       0.1570
     58  C          0.7850   18.8010   11.3960 C.2    20  MET20       0.2261
     59  O          1.8550   19.2350   11.8340 O.2    20  MET20      -0.2867
     60  CB         0.3650   20.5980    9.6800 C.3    20  MET20       0.0387
     61  CG         0.9050   19.8010    8.5030 C.3    20  MET20       0.0595
     62  SD         1.2010   20.8440    7.0610 S.3    20  MET20      -0.1393
     63  CE         2.5360   21.8870    7.6230 C.3    20  MET20       0.0692
     64  N          1.1830   29.7080    5.6520 N.3    63  HIS63      -0.1241
     65  CA         0.2400   29.3010    6.6790 C.3    63  HIS63       0.1621
     66  C          0.8890   29.0520    8.0370 C.2    63  HIS63       0.2264
     67  O          0.1900   28.7840    9.0100 O.2    63  HIS63      -0.2867
     68  CB        -0.5810   28.1040    6.2020 C.3    63  HIS63       0.0745
     69  CG         0.2120   26.8150    6.0830 C.ar   63  HIS63       0.0817
     70  ND1       -0.3820   25.6020    6.0530 N.ar   63  HIS63      -0.2268
     71  CD2        1.5850   26.5790    6.0060 C.ar   63  HIS63       0.1154
     72  CE1        0.5520   24.6450    5.9540 C.ar   63  HIS63       0.1986
     73  NE2        1.7570   25.2420    5.9120 N.ar   63  HIS63      -0.2212
     74  N         -0.8480   25.7830   11.9930 N.3    75  VAL75      -0.1231
     75  CA        -0.9400   26.4410   10.6940 C.3    75  VAL75       0.1692
     76  C         -2.3240   27.0700   10.4960 C.2    75  VAL75       0.2592
     77  O         -3.3300   26.5590   11.0060 O.2    75  VAL75      -0.2718
     78  CB        -0.6170   25.4740    9.5070 C.3    75  VAL75       0.0266
     79  CG1        0.8160   24.9450    9.5810 C.3    75  VAL75       0.0020
     80  CG2       -1.6080   24.3180    9.4340 C.3    75  VAL75       0.0020
     81  N         -2.3670   28.1600    9.7340 N.am   76  GLU76      -0.1966
     82  CA        -3.6290   28.8140    9.4030 C.3    76  GLU76       0.1733
     83  C         -4.4710   27.8990    8.5270 C.2    76  GLU76       0.2616
     84  O         -3.9580   27.2700    7.6020 O.2    76  GLU76      -0.2715
     85  CB        -3.3610   30.1360    8.6840 C.3    76  GLU76       0.0429
     86  CG        -4.5500   31.0780    8.6170 C.3    76  GLU76       0.1163
     87  CD        -4.2520   32.3460    7.8280 C.2    76  GLU76       0.3649
     88  OE1       -3.1220   32.5100    7.3260 O.co2  76  GLU76      -0.2457
     89  OE2       -5.1560   33.1820    7.7040 O.co2  76  GLU76      -0.2457
     90  N         -5.7620   27.8220    8.8230 N.am   77  LYS77      -0.1963
     91  CA        -6.6880   27.0640    7.9940 C.3    77  LYS77       0.1728
     92  C         -7.0300   27.8970    6.7680 C.2    77  LYS77       0.2616
     93  O         -7.3270   29.0850    6.8730 O.2    77  LYS77      -0.2715
     94  CB        -7.9540   26.7000    8.7680 C.3    77  LYS77       0.0311
     95  CG        -8.8960   25.7830    8.0100 C.3    77  LYS77       0.0038
     96  CD       -10.1960   25.5540    8.7730 C.3    77  LYS77       0.0206
     97  CE       -11.0530   24.5150    8.0700 C.3    77  LYS77       0.1093
     98  NZ       -12.4380   24.4800    8.6190 N.3    77  LYS77      -0.1314
     99  N         -6.9610   27.2760    5.5990 N.am   78  LEU78      -0.1977
    100  CA        -7.1630   28.0070    4.3670 C.3    78  LEU78       0.1596
    101  C         -8.1470   27.2900    3.4950 C.2    78  LEU78       0.2287
    102  O         -8.3490   26.0860    3.6040 O.2    78  LEU78      -0.2864
    103  CB        -5.8510   28.1370    3.6030 C.3    78  LEU78       0.0297
    104  CG        -4.6890   28.8590    4.2610 C.3    78  LEU78       0.0022
    105  CD1       -3.4020   28.5560    3.4910 C.3    78  LEU78       0.0001
    106  CD2       -4.9540   30.3500    4.3380 C.3    78  LEU78       0.0001
    107  N         -8.2610   25.8870    0.2300 N.3    80  MET80      -0.1245
    108  CA        -7.1800   25.4180   -0.6450 C.3    80  MET80       0.1570
    109  C         -7.5420   25.4580   -2.1170 C.2    80  MET80       0.2261
    110  O         -8.6470   25.1220   -2.4990 O.2    80  MET80      -0.2867
    111  CB        -6.7570   23.9860   -0.2670 C.3    80  MET80       0.0387
    112  CG        -6.1350   23.8210    1.1180 C.3    80  MET80       0.0595
    113  SD        -4.6020   24.7470    1.4050 S.3    80  MET80      -0.1393
    114  CE        -3.5240   23.9390    0.2050 C.3    80  MET80       0.0692
    115  N         -5.0920   18.8170   -8.6840 N.3   117  LYS117     -0.1245
    116  CA        -5.2000   17.7620   -7.6560 C.3   117  LYS117      0.1561
    117  C         -6.4980   17.0030   -7.7860 C.2   117  LYS117      0.2260
    118  O         -7.5600   17.5170   -7.4390 O.2   117  LYS117     -0.2867
    119  CB        -5.1010   18.3450   -6.2530 C.3   117  LYS117      0.0271
    120  CG        -3.7030   18.7760   -5.8770 C.3   117  LYS117      0.0035
    121  CD        -3.6560   19.2870   -4.4470 C.3   117  LYS117      0.0206
    122  CE        -3.9130   18.1610   -3.4690 C.3   117  LYS117      0.1093
    123  NZ        -3.3790   18.5440   -2.1410 N.3   117  LYS117     -0.1314
    124  N          1.7660   24.1500   -2.5770 N.3   172  GLU172     -0.1245
    125  CA         0.3120   24.2400   -2.5560 C.3   172  GLU172      0.1567
    126  C         -0.0550   25.5810   -1.9460 C.2   172  GLU172      0.2260
    127  O          0.7270   26.1530   -1.1730 O.2   172  GLU172     -0.2867
    128  CB        -0.3060   23.1110   -1.7380 C.3   172  GLU172      0.0388
    129  CG        -0.0620   21.7100   -2.3140 C.3   172  GLU172      0.1160
    130  CD        -0.9110   20.6510   -1.6300 C.2   172  GLU172      0.3649
    131  OE1       -1.7550   20.9910   -0.7640 O.co2 172  GLU172     -0.2457
    132  OE2       -0.7420   19.4690   -1.9560 O.co2 172  GLU172     -0.2457
    133  N          1.0160   27.1020    1.4950 N.3   184  ALA184     -0.1231
    134  CA         0.4900   26.1270    2.4470 C.3   184  ALA184      0.1694
    135  C          1.2930   24.8140    2.4370 C.2   184  ALA184      0.2592
    136  O          2.4750   24.8120    2.0580 O.2   184  ALA184     -0.2718
    137  CB        -0.9960   25.8830    2.1710 C.3   184  ALA184      0.0304
    138  N          0.6590   23.7250    2.8720 N.am  185  ASP185     -0.1974
    139  CA         1.2600   22.3830    2.9000 C.3   185  ASP185      0.1709
    140  C          2.6530   22.3610    3.5580 C.2   185  ASP185      0.2293
    141  O          2.8170   22.8880    4.6610 O.2   185  ASP185     -0.2864
    142  CB         1.2860   21.7760    1.4870 C.3   185  ASP185      0.1436
    143  CG         1.4240   20.2580    1.5050 C.2   185  ASP185      0.3671
    144  OD1        2.3390   19.7520    0.8510 O.co2 185  ASP185     -0.2456
    145  OD2        0.6340   19.5700    2.1720 O.co2 185  ASP185     -0.2456
@<TRIPOS>BOND
     1   115   116    1
     2   117   116    1
     3   117   118    2
     4   116   119    1
     5   119   120    1
     6   120   121    1
     7   121   122    1
     8   122   123    1
     9   124   125    1
    10   125   126    1
    11   125   128    1
    12   110   109    2
    13   129   128    1
    14   129   130    1
    15   109   108    1
    16   132   130   ar
    17   126   127    2
    18   130   131   ar
    19    24    25    1
    20    24    23    1
    21    23    22    1
    22   108   111    1
    23   108   107    1
    24   111   112    1
    25   114   113    1
    26    22    21    1
    27   144   143   ar
    28   112   113    1
    29    21    18    1
    30   142   143    1
    31   142   139    1
    32   133   134    1
    33   143   145   ar
    34    12    11    1
    35   136   135    2
    36   137   134    1
    37   135   134    1
    38   135   138   am
    39    18    17    1
    40    18    19    1
    41   138   139    1
    42   139   140    1
    43    17    15   am
    44    11    10   ar
    45    11     9   ar
    46   105   104    1
    47   101   102    2
    48   101   100    1
    49   140   141    2
    50    10     8   ar
    51   103   104    1
    52   103   100    1
    53    39    38    1
    54    19    26   am
    55    19    20    2
    56    30    27    1
    57     9     7   ar
    58    26    27    1
    59    15    14    1
    60    15    16    2
    61   104   106    1
    62    14    13    1
    63   100    99    1
    64    27    28    1
    65     8     6   ar
    66    38    37    1
    67     7     6   ar
    68    99    92   am
    69    64    65    1
    70     6     5    1
    71    73    72   ar
    72    73    71   ar
    73    72    70   ar
    74    71    69   ar
    75    70    69   ar
    76    28    31   am
    77    28    29    2
    78    69    68    1
    79    37    36    1
    80    68    65    1
    81    31    32    1
    82    36    35    1
    83    65    66    1
    84    92    93    2
    85    92    91    1
    86    35    32    1
    87    34    33    2
    88    62    63    1
    89    62    61    1
    90     5     2    1
    91    47    46    1
    92    88    87   ar
    93    32    33    1
    94    45    46    1
    95    45    44    1
    96    84    83    2
    97    89    87   ar
    98    87    86    1
    99    91    94    1
   100    91    90    1
   101    95    94    1
   102    95    96    1
   103    66    67    2
   104    97    98    1
   105    97    96    1
   106     2     3    1
   107     2     1    1
   108     3     4    2
   109    54    53    1
   110    61    60    1
   111    83    90   am
   112    83    82    1
   113    44    41    1
   114    86    85    1
   115    85    82    1
   116    82    81    1
   117    80    78    1
   118    78    79    1
   119    78    75    1
   120    40    41    1
   121    60    57    1
   122    81    76   am
   123    53    55    1
   124    53    52    1
   125    41    42    1
   126    76    75    1
   127    76    77    2
   128    75    74    1
   129    52    49    1
   130    43    42    2
   131    57    58    1
   132    57    56    1
   133    58    59    2
   134    49    48    1
   135    49    50    1
   136    50    51    2
