@<TRIPOS>MOLECULE
tmp/4o7sA00.pdb
 159 152 0 0 0
SMALL
GASTEIGER

@<TRIPOS>ATOM
      1  N         17.2950    6.6240    6.4630 N.3    20  PHE20      -0.1241
      2  CA        17.9260    6.0110    7.6380 C.3    20  PHE20       0.1605
      3  C         19.4370    5.8120    7.4720 C.2    20  PHE20       0.2264
      4  O         19.9520    4.6830    7.5090 O.2    20  PHE20      -0.2867
      5  CB        17.2010    4.7120    8.0400 C.3    20  PHE20       0.0534
      6  CG        15.7070    4.8710    8.1920 C.ar   20  PHE20      -0.0203
      7  CD1       15.1710    5.6400    9.2280 C.ar   20  PHE20      -0.0042
      8  CD2       14.8320    4.2580    7.2960 C.ar   20  PHE20      -0.0042
      9  CE1       13.7980    5.7970    9.3660 C.ar   20  PHE20      -0.0003
     10  CE2       13.4540    4.4030    7.4360 C.ar   20  PHE20      -0.0003
     11  CZ        12.9370    5.1730    8.4700 C.ar   20  PHE20      -0.0000
     12  N         23.2290   21.5260    7.3810 N.3    75  GLU75      -0.1245
     13  CA        21.8490   21.3540    6.9770 C.3    75  GLU75       0.1567
     14  C         21.0480   22.1670    7.9840 C.2    75  GLU75       0.2260
     15  O         21.2180   22.0160    9.1980 O.2    75  GLU75      -0.2867
     16  CB        21.4630   19.8780    6.9780 C.3    75  GLU75       0.0388
     17  CG        22.0610   19.0970    5.8080 C.3    75  GLU75       0.1160
     18  CD        22.2350   17.6240    6.1340 C.2    75  GLU75       0.3649
     19  OE1       22.6290   16.8460    5.2380 O.co2  75  GLU75      -0.2457
     20  OE2       22.0100   17.2360    7.3090 O.co2  75  GLU75      -0.2457
     21  N         17.4770   23.2210    9.3890 N.3    77  VAL77      -0.1245
     22  CA        16.1290   22.6640    9.4380 C.3    77  VAL77       0.1561
     23  C         15.1640   23.6520   10.1340 C.2    77  VAL77       0.2260
     24  O         15.4350   24.1260   11.2420 O.2    77  VAL77      -0.2867
     25  CB        16.1140   21.2740   10.1240 C.3    77  VAL77       0.0252
     26  CG1       14.6910   20.7450   10.2650 C.3    77  VAL77       0.0019
     27  CG2       16.9830   20.2710    9.3590 C.3    77  VAL77       0.0019
     28  N         11.1770   24.0950   11.4650 N.3    79  ARG79      -0.1245
     29  CA        10.0750   23.2290   11.8850 C.3    79  ARG79       0.1563
     30  C          8.8770   24.0610   12.3770 C.2    79  ARG79       0.2260
     31  O          9.0290   24.9530   13.2360 O.2    79  ARG79      -0.2867
     32  CB        10.5640   22.2320   12.9550 C.3    79  ARG79       0.0307
     33  CG        12.0230   21.7800   12.7730 C.3    79  ARG79       0.0489
     34  CD        12.4460   20.6790   13.7390 C.3    79  ARG79       0.2205
     35  NE        11.8800   19.4010   13.3350 N.pl3  79  ARG79      -0.0865
     36  CZ        12.5730   18.3240   12.9790 C.cat  79  ARG79       0.5346
     37  NH1       11.9110   17.2350   12.6170 N.pl3  79  ARG79       0.1354
     38  NH2       13.9080   18.3220   12.9880 N.pl3  79  ARG79       0.1354
     39  N          9.0940   13.8110   12.8920 N.3    84  GLY84      -0.1210
     40  CA        10.4380   13.2170   12.8280 C.3    84  GLY84       0.1956
     41  C         11.2440   13.2690   14.1120 C.2    84  GLY84       0.2612
     42  O         10.7370   12.9780   15.1990 O.2    84  GLY84      -0.2717
     43  N         12.4990   13.6720   13.9940 N.am   85  SER85      -0.1952
     44  CA        13.4440   13.6260   15.1190 C.3    85  SER85       0.1924
     45  C         13.1300   14.6310   16.2400 C.2    85  SER85       0.2314
     46  O         13.6330   14.4880   17.3480 O.2    85  SER85      -0.2863
     47  CB        14.8790   13.8760   14.6060 C.3    85  SER85       0.2116
     48  OG        15.0060   15.2480   14.2780 O.3    85  SER85      -0.2180
     49  N         22.4310   21.3290   11.6300 N.3   106  TYR106     -0.1241
     50  CA        23.1060   20.0410   11.6200 C.3   106  TYR106      0.1605
     51  C         24.4160   20.1920   10.8690 C.2   106  TYR106      0.2264
     52  O         24.4760   20.8450    9.8340 O.2   106  TYR106     -0.2867
     53  CB        22.2360   18.9560   10.9880 C.3   106  TYR106      0.0534
     54  CG        21.0190   18.6490   11.8190 C.ar  106  TYR106     -0.0201
     55  CD1       21.0350   17.6200   12.7670 C.ar  106  TYR106     -0.0009
     56  CD2       19.8620   19.4000   11.6770 C.ar  106  TYR106     -0.0009
     57  CE1       19.9190   17.3430   13.5470 C.ar  106  TYR106      0.0417
     58  CE2       18.7500   19.1350   12.4430 C.ar  106  TYR106      0.0417
     59  CZ        18.7830   18.1170   13.3890 C.ar  106  TYR106      0.1957
     60  OH        17.6560   17.8880   14.1390 O.3   106  TYR106     -0.2866
     61  N         25.8200   13.4400   10.7890 N.3   114  ASP114     -0.1239
     62  CA        25.0920   14.7110   10.7510 C.3   114  ASP114      0.1674
     63  C         24.5280   15.1510   12.1120 C.2   114  ASP114      0.2266
     64  O         23.3190   15.3480   12.2360 O.2   114  ASP114     -0.2867
     65  CB        23.9700   14.6350    9.7170 C.3   114  ASP114      0.1410
     66  CG        24.4880   14.5180    8.2970 C.2   114  ASP114      0.3668
     67  OD1       25.7040   14.4410    8.0890 O.co2 114  ASP114     -0.2456
     68  OD2       23.6650   14.5180    7.3670 O.co2 114  ASP114     -0.2456
     69  N          7.8500   20.8590    8.1420 N.3   159  ASP159     -0.1225
     70  CA         9.2510   21.2220    8.3600 C.3   159  ASP159      0.1805
     71  C          9.9590   21.0790    7.0230 C.2   159  ASP159      0.2598
     72  O          9.3560   20.5660    6.0620 O.2   159  ASP159     -0.2718
     73  CB         9.9080   20.3380    9.4480 C.3   159  ASP159      0.1424
     74  CG         9.8290   18.8480    9.1340 C.2   159  ASP159      0.3668
     75  OD1        9.8920   18.4870    7.9530 O.co2 159  ASP159     -0.2456
     76  OD2        9.7010   18.0330   10.0700 O.co2 159  ASP159     -0.2456
     77  N         11.2180   21.5210    6.9520 N.am  160  PHE160     -0.1962
     78  CA        12.0340   21.3460    5.7380 C.3   160  PHE160      0.1771
     79  C         13.4980   21.6060    6.0410 C.2   160  PHE160      0.2619
     80  O         13.8330   22.1780    7.0740 O.2   160  PHE160     -0.2715
     81  CB        11.5790   22.2940    4.6180 C.3   160  PHE160      0.0574
     82  CG        11.6260   23.7650    4.9910 C.ar  160  PHE160     -0.0200
     83  CD1       12.7000   24.5620    4.6030 C.ar  160  PHE160     -0.0042
     84  CD2       10.5840   24.3540    5.7010 C.ar  160  PHE160     -0.0042
     85  CE1       12.7490   25.9140    4.9190 C.ar  160  PHE160     -0.0003
     86  CE2       10.6230   25.7150    6.0270 C.ar  160  PHE160     -0.0003
     87  CZ        11.7170   26.4970    5.6400 C.ar  160  PHE160     -0.0000
     88  N         14.3660   21.2150    5.1180 N.am  161  LYS161     -0.1977
     89  CA        15.7930   21.4180    5.2920 C.3   161  LYS161      0.1596
     90  C         16.3410   22.2560    4.1310 C.2   161  LYS161      0.2287
     91  O         15.9970   22.0380    2.9670 O.2   161  LYS161     -0.2864
     92  CB        16.5270   20.0810    5.3510 C.3   161  LYS161      0.0298
     93  CG        18.0520   20.2120    5.3630 C.3   161  LYS161      0.0038
     94  CD        18.7050   19.1970    4.4410 C.3   161  LYS161      0.0206
     95  CE        18.9340   19.8120    3.0890 C.3   161  LYS161      0.1093
     96  NZ        19.2120   18.8210    2.0270 N.3   161  LYS161     -0.1314
     97  N         11.4090   15.5090   -1.1460 N.3   181  ASP181     -0.1225
     98  CA        12.5300   14.8280   -0.4620 C.3   181  ASP181      0.1805
     99  C         13.0170   15.5930    0.7660 C.2   181  ASP181      0.2598
    100  O         13.4610   14.9870    1.7240 O.2   181  ASP181     -0.2718
    101  CB        13.7590   14.6270   -1.3820 C.3   181  ASP181      0.1424
    102  CG        13.6710   13.3700   -2.2470 C.2   181  ASP181      0.3668
    103  OD1       14.7130   12.9330   -2.7650 O.co2 181  ASP181     -0.2456
    104  OD2       12.5770   12.8190   -2.4340 O.co2 181  ASP181     -0.2456
    105  N         12.9710   16.9250    0.7190 N.am  182  THR182     -0.1939
    106  CA        13.6320   17.7160    1.7540 C.3   182  THR182      0.2028
    107  C         12.6620   18.5620    2.5890 C.2   182  THR182      0.2642
    108  O         13.0930   19.4370    3.3420 O.2   182  THR182     -0.2714
    109  CB        14.7560   18.5890    1.1350 C.3   182  THR182      0.1808
    110  OG1       14.1870   19.5040    0.1990 O.3   182  THR182     -0.2208
    111  CG2       15.7980   17.6840    0.4270 C.3   182  THR182      0.0379
    112  N         11.3620   18.2760    2.4430 N.am  183  CYS183     -0.1953
    113  CA        10.2720   18.9640    3.1540 C.3   183  CYS183      0.1843
    114  C          9.2260   17.9500    3.6060 C.2   183  CYS183      0.2625
    115  O          9.0560   16.8930    2.9920 O.2   183  CYS183     -0.2714
    116  CB         9.5350   19.9460    2.2390 C.3   183  CYS183      0.0997
    117  SG        10.4700   21.2340    1.3910 S.3   183  CYS183     -0.0797
    118  N          8.5250   18.2760    4.6790 N.am  184  ARG184     -0.1977
    119  CA         7.3090   17.5570    5.0360 C.3   184  ARG184      0.1597
    120  C          6.1300   18.4030    4.6070 C.2   184  ARG184      0.2287
    121  O          6.0330   19.5860    4.9700 O.2   184  ARG184     -0.2864
    122  CB         7.2520   17.1990    6.5280 C.3   184  ARG184      0.0334
    123  CG         8.1640   16.0350    6.9030 C.3   184  ARG184      0.0492
    124  CD         7.9540   15.5100    8.3230 C.3   184  ARG184      0.2205
    125  NE         8.7290   14.2780    8.5250 N.pl3 184  ARG184     -0.0865
    126  CZ         9.9210   14.2080    9.1210 C.cat 184  ARG184      0.5346
    127  NH1       10.4980   15.2940    9.6380 N.pl3 184  ARG184      0.1354
    128  NH2       10.5410   13.0420    9.2230 N.pl3 184  ARG184      0.1354
    129  N          8.5630   12.5080    1.2870 N.3   196  LYS196     -0.1245
    130  CA         9.4440   11.3580    1.4570 C.3   196  LYS196      0.1561
    131  C          9.0790   10.4380    2.6400 C.2   196  LYS196      0.2260
    132  O          9.5580    9.2970    2.7160 O.2   196  LYS196     -0.2867
    133  CB        10.8960   11.8400    1.5690 C.3   196  LYS196      0.0271
    134  CG        11.9690   10.7680    1.3940 C.3   196  LYS196      0.0035
    135  CD        13.3530   11.4000    1.1840 C.3   196  LYS196      0.0206
    136  CE        14.4140   10.5450    1.8540 C.3   196  LYS196      0.1093
    137  NZ        15.8130   11.0160    1.6430 N.3   196  LYS196     -0.1314
    138  N          9.8030    6.6360    3.6510 N.3   200  ARG200     -0.1231
    139  CA        10.4480    6.3490    4.9520 C.3   200  ARG200      0.1694
    140  C          9.6680    5.3360    5.7990 C.2   200  ARG200      0.2592
    141  O         10.2580    4.4000    6.3420 O.2   200  ARG200     -0.2718
    142  CB        10.6790    7.6270    5.7920 C.3   200  ARG200      0.0321
    143  CG        11.8160    8.5260    5.3260 C.3   200  ARG200      0.0489
    144  CD        12.0130    9.7000    6.2770 C.3   200  ARG200      0.2205
    145  NE        12.8430   10.7530    5.6890 N.pl3 200  ARG200     -0.0865
    146  CZ        12.3970   11.9270    5.2370 C.cat 200  ARG200      0.5346
    147  NH1       13.2590   12.7830    4.7120 N.pl3 200  ARG200      0.1354
    148  NH2       11.1020   12.2610    5.3000 N.pl3 200  ARG200      0.1354
    149  N          8.3540    5.5440    5.9210 N.am  201  PHE201     -0.1976
    150  CA         7.5220    4.7310    6.8140 C.3   201  PHE201      0.1639
    151  C          6.4460    3.9200    6.0850 C.2   201  PHE201      0.2290
    152  O          5.4430    3.5260    6.6900 O.2   201  PHE201     -0.2864
    153  CB         6.9030    5.6140    7.9130 C.3   201  PHE201      0.0560
    154  CG         7.9180    6.4230    8.6710 C.ar  201  PHE201     -0.0200
    155  CD1        8.8310    5.8010    9.5110 C.ar  201  PHE201     -0.0042
    156  CD2        7.9750    7.8040    8.5280 C.ar  201  PHE201     -0.0042
    157  CE1        9.7800    6.5420   10.1980 C.ar  201  PHE201     -0.0003
    158  CE2        8.9230    8.5510    9.2070 C.ar  201  PHE201     -0.0003
    159  CZ         9.8260    7.9160   10.0450 C.ar  201  PHE201     -0.0000
@<TRIPOS>BOND
     1   103   102   ar
     2   104   102   ar
     3   102   101    1
     4   101    98    1
     5    97    98    1
     6    98    99    1
     7   110   109    1
     8   111   109    1
     9   105    99   am
    10   105   106    1
    11    99   100    2
    12   109   106    1
    13   135   134    1
    14   135   136    1
    15   129   130    1
    16   117   116    1
    17   134   133    1
    18   130   133    1
    19   130   131    1
    20   137   136    1
    21   106   107    1
    22    96    95    1
    23   116   113    1
    24   112   107   am
    25   112   113    1
    26   107   108    2
    27   131   132    2
    28    91    90    2
    29   115   114    2
    30    95    94    1
    31   113   114    1
    32   114   118   am
    33   138   139    1
    34    90    89    1
    35    94    93    1
    36    83    85   ar
    37    83    82   ar
    38   120   121    2
    39   120   119    1
    40    81    82    1
    41    81    78    1
    42   118   119    1
    43   147   146    1
    44    85    87   ar
    45   139   142    1
    46   139   140    1
    47    82    84   ar
    48   119   122    1
    49    88    89    1
    50    88    79   am
    51   146   148    1
    52   146   145    2
    53    19    18   ar
    54    89    92    1
    55   143   142    1
    56   143   144    1
    57    92    93    1
    58    87    86   ar
    59   145   144    1
    60    84    86   ar
    61    78    79    1
    62    78    77    1
    63   140   149   am
    64   140   141    2
    65    17    18    1
    66    17    16    1
    67   149   150    1
    68    79    80    2
    69    72    71    2
    70   151   152    2
    71   151   150    1
    72    18    20   ar
    73     1     2    1
    74   122   123    1
    75   150   153    1
    76   123   124    1
    77    77    71   am
    78    13    16    1
    79    13    12    1
    80    13    14    1
    81    71    70    1
    82     8    10   ar
    83     8     6   ar
    84    68    66   ar
    85    10    11   ar
    86     3     4    2
    87     3     2    1
    88     2     5    1
    89   153   154    1
    90    75    74   ar
    91    14    15    2
    92     5     6    1
    93    67    66   ar
    94    69    70    1
    95     6     7   ar
    96    66    65    1
    97   124   125    1
    98    70    73    1
    99    11     9   ar
   100   125   126    2
   101   156   154   ar
   102   156   158   ar
   103   154   155   ar
   104   126   128    1
   105   126   127    1
   106    74    73    1
   107    74    76   ar
   108   158   159   ar
   109     7     9   ar
   110    27    25    1
   111    21    22    1
   112    22    25    1
   113    22    23    1
   114   155   157   ar
   115    65    62    1
   116    52    51    2
   117   159   157   ar
   118    25    26    1
   119    23    24    2
   120    62    61    1
   121    62    63    1
   122    51    50    1
   123    53    50    1
   124    53    54    1
   125    28    29    1
   126    50    49    1
   127    56    54   ar
   128    56    58   ar
   129    54    55   ar
   130    29    30    1
   131    29    32    1
   132    63    64    2
   133    30    31    2
   134    58    59   ar
   135    37    36    1
   136    55    57   ar
   137    33    32    1
   138    33    34    1
   139    40    39    1
   140    40    41    1
   141    36    38    1
   142    36    35    2
   143    35    34    1
   144    59    57   ar
   145    59    60    1
   146    43    41   am
   147    43    44    1
   148    41    42    2
   149    48    47    1
   150    47    44    1
   151    44    45    1
   152    45    46    2
