@<TRIPOS>MOLECULE
tmp/4o7tA00.pdb
 137 129 0 0 0
SMALL
GASTEIGER

@<TRIPOS>ATOM
      1  N         23.3000   21.8030    7.4050 N.3    78  GLU78      -0.1245
      2  CA        21.9120   21.6210    7.0400 C.3    78  GLU78       0.1567
      3  C         21.1140   22.4560    8.0400 C.2    78  GLU78       0.2260
      4  O         21.2840   22.3150    9.2540 O.2    78  GLU78      -0.2867
      5  CB        21.5390   20.1340    7.0310 C.3    78  GLU78       0.0388
      6  CG        22.3850   19.3700    6.0150 C.3    78  GLU78       0.1160
      7  CD        22.0310   17.8990    5.8530 C.2    78  GLU78       0.3649
      8  OE1       22.8700   17.1650    5.2820 O.co2  78  GLU78      -0.2457
      9  OE2       20.9320   17.4620    6.2630 O.co2  78  GLU78      -0.2457
     10  N         17.5750   23.5010    9.4250 N.3    80  VAL80      -0.1245
     11  CA        16.2480   22.9370    9.4520 C.3    80  VAL80       0.1561
     12  C         15.2950   23.9250   10.1260 C.2    80  VAL80       0.2260
     13  O         15.5450   24.3940   11.2480 O.2    80  VAL80      -0.2867
     14  CB        16.2140   21.5480   10.1550 C.3    80  VAL80       0.0252
     15  CG1       14.7750   21.0410   10.2950 C.3    80  VAL80       0.0019
     16  CG2       17.0650   20.5290    9.4100 C.3    80  VAL80       0.0019
     17  N         11.3290   24.3920   11.4740 N.3    82  ARG82      -0.1245
     18  CA        10.2430   23.5150   11.9320 C.3    82  ARG82       0.1563
     19  C          9.0530   24.3230   12.4700 C.2    82  ARG82       0.2260
     20  O          9.2280   25.1980   13.3220 O.2    82  ARG82      -0.2867
     21  CB        10.7720   22.5230   12.9870 C.3    82  ARG82       0.0307
     22  CG        12.2110   22.0240   12.7340 C.3    82  ARG82       0.0489
     23  CD        12.6980   20.9780   13.7480 C.3    82  ARG82       0.2205
     24  NE        12.1240   19.6710   13.4650 N.pl3  82  ARG82      -0.0865
     25  CZ        12.7830   18.5800   13.0720 C.cat  82  ARG82       0.5346
     26  NH1       14.1180   18.5640   12.9560 N.pl3  82  ARG82       0.1354
     27  NH2       12.0740   17.4740   12.8110 N.pl3  82  ARG82       0.1354
     28  N          9.1600   13.9970   13.1440 N.3    87  GLY87      -0.1210
     29  CA        10.5200   13.4700   12.9810 C.3    87  GLY87       0.1956
     30  C         11.3690   13.5420   14.2280 C.2    87  GLY87       0.2612
     31  O         10.8830   13.2660   15.3360 O.2    87  GLY87      -0.2717
     32  N         12.6290   13.9480   14.0660 N.am   88  SER88      -0.1952
     33  CA        13.5930   13.9510   15.1830 C.3    88  SER88       0.1924
     34  C         13.2370   14.9250   16.3130 C.2    88  SER88       0.2314
     35  O         13.7000   14.7580   17.4540 O.2    88  SER88      -0.2863
     36  CB        15.0160   14.2510   14.6820 C.3    88  SER88       0.2116
     37  OG        15.1080   15.6090   14.2810 O.3    88  SER88      -0.2180
     38  N         22.6210   21.6280   11.6940 N.3   109  TYR109     -0.1241
     39  CA        23.2940   20.3330   11.6540 C.3   109  TYR109      0.1605
     40  C         24.5880   20.4520   10.8740 C.2   109  TYR109      0.2264
     41  O         24.6310   21.0670    9.8110 O.2   109  TYR109     -0.2867
     42  CB        22.4050   19.2780   11.0070 C.3   109  TYR109      0.0534
     43  CG        21.1950   18.9450   11.8430 C.ar  109  TYR109     -0.0201
     44  CD1       21.2410   17.9160   12.7850 C.ar  109  TYR109     -0.0009
     45  CD2       20.0110   19.6720   11.7030 C.ar  109  TYR109     -0.0009
     46  CE1       20.1270   17.6040   13.5530 C.ar  109  TYR109      0.0417
     47  CE2       18.8900   19.3770   12.4740 C.ar  109  TYR109      0.0417
     48  CZ        18.9510   18.3400   13.3920 C.ar  109  TYR109      0.1957
     49  OH        17.8310   18.0470   14.1500 O.3   109  TYR109     -0.2866
     50  N         26.1150   13.7730   10.5930 N.3   117  ASP117     -0.1239
     51  CA        25.3600   15.0280   10.6170 C.3   117  ASP117      0.1674
     52  C         24.8150   15.4270   12.0000 C.2   117  ASP117      0.2266
     53  O         23.6020   15.5510   12.1800 O.2   117  ASP117     -0.2867
     54  CB        24.2460   14.9860    9.5720 C.3   117  ASP117      0.1410
     55  CG        24.7790   14.7760    8.1590 C.2   117  ASP117      0.3668
     56  OD1       25.9680   15.0240    7.9010 O.co2 117  ASP117     -0.2456
     57  OD2       24.0080   14.3540    7.2890 O.co2 117  ASP117     -0.2456
     58  N          8.0090   21.0390    8.3090 N.3   162  ASP162     -0.1225
     59  CA         9.4240   21.3620    8.5450 C.3   162  ASP162      0.1805
     60  C         10.1590   21.1950    7.2260 C.2   162  ASP162      0.2598
     61  O          9.5680   20.6960    6.2690 O.2   162  ASP162     -0.2718
     62  CB        10.0510   20.5220    9.6900 C.3   162  ASP162      0.1424
     63  CG         9.9790   18.9980    9.4520 C.2   162  ASP162      0.3668
     64  OD1       10.1300   18.5350    8.3180 O.co2 162  ASP162     -0.2456
     65  OD2        9.7950   18.2480   10.4240 O.co2 162  ASP162     -0.2456
     66  N         11.4220   21.6290    7.1530 N.am  163  PHE163     -0.1962
     67  CA        12.2020   21.4930    5.9090 C.3   163  PHE163      0.1771
     68  C         13.6670   21.7910    6.1310 C.2   163  PHE163      0.2619
     69  O         14.0350   22.4470    7.0980 O.2   163  PHE163     -0.2715
     70  CB        11.6400   22.3920    4.7760 C.3   163  PHE163      0.0574
     71  CG        11.7060   23.8720    5.0680 C.ar  163  PHE163     -0.0200
     72  CD1       12.7700   24.6440    4.5970 C.ar  163  PHE163     -0.0042
     73  CD2       10.7040   24.4960    5.7990 C.ar  163  PHE163     -0.0042
     74  CE1       12.8390   26.0060    4.8570 C.ar  163  PHE163     -0.0003
     75  CE2       10.7570   25.8630    6.0610 C.ar  163  PHE163     -0.0003
     76  CZ        11.8340   26.6220    5.5950 C.ar  163  PHE163     -0.0000
     77  N         14.4970   21.3250    5.2120 N.am  164  LYS164     -0.1977
     78  CA        15.9420   21.4920    5.3150 C.3   164  LYS164      0.1596
     79  C         16.4720   22.3700    4.1760 C.2   164  LYS164      0.2287
     80  O         16.1410   22.1490    2.9920 O.2   164  LYS164     -0.2864
     81  CB        16.6390   20.1230    5.3050 C.3   164  LYS164      0.0298
     82  CG        18.1610   20.1820    5.5250 C.3   164  LYS164      0.0038
     83  CD        18.9660   20.3110    4.2220 C.3   164  LYS164      0.0206
     84  CE        18.9590   19.0060    3.3940 C.3   164  LYS164      0.1093
     85  NZ        19.4960   19.2060    2.0120 N.3   164  LYS164     -0.1314
     86  N         11.6440   15.6070   -0.9980 N.3   184  ASP184     -0.1225
     87  CA        12.7640   14.9180   -0.3150 C.3   184  ASP184      0.1805
     88  C         13.2540   15.6810    0.9170 C.2   184  ASP184      0.2598
     89  O         13.6850   15.0690    1.9010 O.2   184  ASP184     -0.2718
     90  CB        13.9820   14.7070   -1.2460 C.3   184  ASP184      0.1424
     91  CG        13.8390   13.4810   -2.1510 C.2   184  ASP184      0.3668
     92  OD1       14.8510   13.0240   -2.7190 O.co2 184  ASP184     -0.2456
     93  OD2       12.7160   12.9740   -2.3150 O.co2 184  ASP184     -0.2456
     94  N         13.1940   17.0110    0.8550 N.am  185  THR185     -0.1939
     95  CA        13.8260   17.8510    1.8750 C.3   185  THR185      0.2028
     96  C         12.8470   18.6950    2.7100 C.2   185  THR185      0.2642
     97  O         13.2720   19.5600    3.4990 O.2   185  THR185     -0.2714
     98  CB        14.9270   18.7420    1.2480 C.3   185  THR185      0.1808
     99  OG1       14.3500   19.5630    0.2280 O.3   185  THR185     -0.2208
    100  CG2       16.0200   17.8720    0.6210 C.3   185  THR185      0.0379
    101  N         11.5470   18.4240    2.5390 N.am  186  CYS186     -0.1953
    102  CA        10.4750   19.0810    3.3060 C.3   186  CYS186      0.1843
    103  C          9.4700   18.0480    3.7960 C.2   186  CYS186      0.2625
    104  O          9.3570   16.9580    3.2240 O.2   186  CYS186     -0.2714
    105  CB         9.6920   20.0880    2.4490 C.3   186  CYS186      0.0997
    106  SG        10.6360   21.3020    1.4900 S.3   186  CYS186     -0.0797
    107  N          8.7350   18.4030    4.8450 N.am  187  ARG187     -0.1977
    108  CA         7.5140   17.6880    5.1950 C.3   187  ARG187      0.1597
    109  C          6.2960   18.5110    4.7490 C.2   187  ARG187      0.2287
    110  O          6.1710   19.6940    5.0890 O.2   187  ARG187     -0.2864
    111  CB         7.4640   17.3200    6.6900 C.3   187  ARG187      0.0334
    112  CG         8.3970   16.1560    7.0630 C.3   187  ARG187      0.0492
    113  CD         8.1630   15.6230    8.4720 C.3   187  ARG187      0.2205
    114  NE         9.0150   14.4540    8.7330 N.pl3 187  ARG187     -0.0865
    115  CZ        10.1600   14.4900    9.4120 C.cat 187  ARG187      0.5346
    116  NH1       10.5960   15.6190    9.9620 N.pl3 187  ARG187      0.1354
    117  NH2       10.8590   13.3800    9.5800 N.pl3 187  ARG187      0.1354
    118  N          8.6870   12.6160    1.4360 N.3   199  LYS199     -0.1245
    119  CA         9.5610   11.4550    1.5510 C.3   199  LYS199      0.1561
    120  C          9.1980   10.5080    2.7060 C.2   199  LYS199      0.2260
    121  O          9.6130    9.3470    2.7030 O.2   199  LYS199     -0.2867
    122  CB        11.0190   11.9140    1.6470 C.3   199  LYS199      0.0271
    123  CG        12.0610   10.8150    1.5720 C.3   199  LYS199      0.0035
    124  CD        13.4410   11.4180    1.3370 C.3   199  LYS199      0.0206
    125  CE        14.5110   10.4390    1.7420 C.3   199  LYS199      0.1093
    126  NZ        15.8720   11.0250    1.6720 N.3   199  LYS199     -0.1314
    127  N          9.8860    6.7610    3.7290 N.3   203  ARG203     -0.1245
    128  CA        10.5640    6.4740    4.9960 C.3   203  ARG203      0.1563
    129  C          9.7890    5.4530    5.8510 C.2   203  ARG203      0.2260
    130  O         10.3920    4.5580    6.4300 O.2   203  ARG203     -0.2867
    131  CB        10.8200    7.7540    5.7980 C.3   203  ARG203      0.0307
    132  CG        11.9240    8.6540    5.2460 C.3   203  ARG203      0.0489
    133  CD        12.1990    9.7880    6.2220 C.3   203  ARG203      0.2205
    134  NE        13.0100   10.8580    5.6410 N.pl3 203  ARG203     -0.0865
    135  CZ        12.5390   12.0280    5.2140 C.cat 203  ARG203      0.5346
    136  NH1       13.3770   12.9170    4.7060 N.pl3 203  ARG203      0.1354
    137  NH2       11.2400   12.3190    5.2860 N.pl3 203  ARG203      0.1354
@<TRIPOS>BOND
     1    92    91   ar
     2    93    91   ar
     3    91    90    1
     4    90    87    1
     5    86    87    1
     6    87    88    1
     7    99    98    1
     8   100    98    1
     9    94    88   am
    10    94    95    1
    11    88    89    2
    12    98    95    1
    13   124   123    1
    14   124   125    1
    15   118   119    1
    16   106   105    1
    17   119   122    1
    18   119   120    1
    19   123   122    1
    20   126   125    1
    21    95    96    1
    22    85    84    1
    23   105   102    1
    24   101    96   am
    25   101   102    1
    26   121   120    2
    27    96    97    2
    28    80    79    2
    29   104   103    2
    30   102   103    1
    31    84    83    1
    32   127   128    1
    33   103   107   am
    34    79    78    1
    35    83    82    1
    36    72    74   ar
    37    72    71   ar
    38   136   135    1
    39   109   110    2
    40   109   108    1
    41    70    71    1
    42    70    67    1
    43   107   108    1
    44    74    76   ar
    45   128   131    1
    46   128   129    1
    47    71    73   ar
    48   108   111    1
    49    77    78    1
    50    77    68   am
    51   135   137    1
    52   135   134    2
    53   132   131    1
    54   132   133    1
    55     8     7   ar
    56    81    78    1
    57    81    82    1
    58    76    75   ar
    59   134   133    1
    60    73    75   ar
    61   129   130    2
    62     7     6    1
    63     7     9   ar
    64    67    68    1
    65    67    66    1
    66     6     5    1
    67    68    69    2
    68    61    60    2
    69   111   112    1
    70     5     2    1
    71     2     1    1
    72     2     3    1
    73   112   113    1
    74    66    60   am
    75    60    59    1
    76    57    55   ar
    77    56    55   ar
    78     3     4    2
    79    55    54    1
    80    58    59    1
    81    64    63   ar
    82   113   114    1
    83    59    62    1
    84   114   115    2
    85    16    14    1
    86   115   117    1
    87   115   116    1
    88    10    11    1
    89    11    12    1
    90    11    14    1
    91    63    62    1
    92    63    65   ar
    93    54    51    1
    94    41    40    2
    95    12    13    2
    96    14    15    1
    97    50    51    1
    98    51    52    1
    99    40    39    1
   100    42    39    1
   101    42    43    1
   102    17    18    1
   103    39    38    1
   104    45    43   ar
   105    45    47   ar
   106    43    44   ar
   107    18    19    1
   108    18    21    1
   109    52    53    2
   110    19    20    2
   111    47    48   ar
   112    22    21    1
   113    22    23    1
   114    44    46   ar
   115    27    25    1
   116    26    25    1
   117    29    28    1
   118    29    30    1
   119    25    24    2
   120    48    46   ar
   121    48    49    1
   122    24    23    1
   123    32    30   am
   124    32    33    1
   125    30    31    2
   126    37    36    1
   127    36    33    1
   128    33    34    1
   129    34    35    2
