@<TRIPOS>MOLECULE
tmp/4o7uD00.pdb
 211 204 0 0 0
SMALL
GASTEIGER

@<TRIPOS>ATOM
      1  N          6.1330   12.7660   10.5660 N.3    22  ARG22      -0.1231
      2  CA         6.9650   13.5600    9.6580 C.3    22  ARG22       0.1694
      3  C          8.4440   13.2300    9.7610 C.2    22  ARG22       0.2592
      4  O          9.1290   13.1170    8.7430 O.2    22  ARG22      -0.2718
      5  CB         6.7650   15.0530    9.9320 C.3    22  ARG22       0.0321
      6  CG         7.5090   15.9810    8.9880 C.3    22  ARG22       0.0489
      7  CD         7.4290   17.4260    9.4790 C.3    22  ARG22       0.2205
      8  NE         7.9090   17.5550   10.8610 N.pl3  22  ARG22      -0.0865
      9  CZ         9.1990   17.5660   11.1930 C.cat  22  ARG22       0.5346
     10  NH1       10.1220   17.4680   10.2340 N.pl3  22  ARG22       0.1354
     11  NH2        9.5670   17.6730   12.4670 N.pl3  22  ARG22       0.1354
     12  N          8.9130   13.0740   10.9980 N.am   23  THR23      -0.1953
     13  CA        10.3300   12.9200   11.3090 C.3    23  THR23       0.1897
     14  C         10.9010   11.5770   10.8680 C.2    23  THR23       0.2313
     15  O         12.1070   11.4530   10.6640 O.2    23  THR23      -0.2863
     16  CB        10.5650   13.0550   12.8190 C.3    23  THR23       0.1794
     17  OG1        9.8730   11.9980   13.4910 O.3    23  THR23      -0.2208
     18  CG2       10.0560   14.4040   13.3330 C.3    23  THR23       0.0378
     19  N         16.7520   21.0710   32.8340 N.3    52  PRO52      -0.2116
     20  CA        17.5970   22.2790   32.8460 C.3    52  PRO52       0.1372
     21  C         16.7940   23.5600   32.6680 C.2    52  PRO52       0.2244
     22  O         16.2570   23.8390   31.5810 O.2    52  PRO52      -0.2868
     23  CB        18.5310   22.0720   31.6450 C.3    52  PRO52       0.0268
     24  CG        17.7720   21.1680   30.7380 C.3    52  PRO52       0.0207
     25  CD        17.0350   20.2320   31.6530 C.3    52  PRO52       0.0892
     26  N         18.0330   26.4270   30.2550 N.3    55  LEU55      -0.1245
     27  CA        17.5090   26.2810   28.8830 C.3    55  LEU55       0.1561
     28  C         16.0820   26.8100   28.7320 C.2    55  LEU55       0.2260
     29  O         15.8040   27.5360   27.7930 O.2    55  LEU55      -0.2867
     30  CB        17.6090   24.8240   28.3730 C.3    55  LEU55       0.0270
     31  CG        18.8630   24.4280   27.5820 C.3    55  LEU55       0.0019
     32  CD1       20.1310   25.1750   27.9970 C.3    55  LEU55       0.0001
     33  CD2       19.0790   22.9150   27.6430 C.3    55  LEU55       0.0001
     34  N         15.3080   30.3100   26.5290 N.3    59  GLU59      -0.1245
     35  CA        14.3340   30.1080   25.4410 C.3    59  GLU59       0.1567
     36  C         13.1470   31.0840   25.5400 C.2    59  GLU59       0.2260
     37  O         12.7540   31.6850   24.5320 O.2    59  GLU59      -0.2867
     38  CB        13.8140   28.6700   25.3600 C.3    59  GLU59       0.0388
     39  CG        12.6210   28.5510   24.4190 C.3    59  GLU59       0.1160
     40  CD        11.9440   27.1870   24.4140 C.2    59  GLU59       0.3649
     41  OE1       11.4910   26.7270   25.4850 O.co2  59  GLU59      -0.2457
     42  OE2       11.8430   26.5750   23.3270 O.co2  59  GLU59      -0.2457
     43  N         19.0530   23.8440   21.8560 N.3    80  ILE80      -0.1231
     44  CA        17.8240   23.0810   21.5550 C.3    80  ILE80       0.1692
     45  C         17.1330   23.4430   20.2570 C.2    80  ILE80       0.2592
     46  O         16.2260   22.7320   19.8410 O.2    80  ILE80      -0.2718
     47  CB        16.7700   23.1230   22.6770 C.3    80  ILE80       0.0266
     48  CG1       16.4200   24.5660   23.0280 C.3    80  ILE80       0.0019
     49  CG2       17.2170   22.2560   23.8550 C.3    80  ILE80       0.0020
     50  CD1       15.2340   24.7070   23.9510 C.3    80  ILE80       0.0001
     51  N         17.5390   24.5410   19.6270 N.am   81  TRP81      -0.1976
     52  CA        16.9830   24.9080   18.3280 C.3    81  TRP81       0.1640
     53  C         17.9540   24.6890   17.1650 C.2    81  TRP81       0.2290
     54  O         17.6070   24.9510   16.0260 O.2    81  TRP81      -0.2864
     55  CB        16.4180   26.3380   18.3480 C.3    81  TRP81       0.0576
     56  CG        15.0000   26.4340   18.8620 C.ar   81  TRP81       0.0006
     57  CD1       14.6030   26.7340   20.1370 C.ar   81  TRP81       0.0946
     58  CD2       13.7900   26.2490   18.1030 C.ar   81  TRP81       0.0152
     59  NE1       13.2250   26.7410   20.2210 N.ar   81  TRP81      -0.2442
     60  CE2       12.7060   26.4360   18.9890 C.ar   81  TRP81       0.0810
     61  CE3       13.5210   25.9240   16.7640 C.ar   81  TRP81       0.0012
     62  CZ2       11.3780   26.3200   18.5780 C.ar   81  TRP81       0.0191
     63  CZ3       12.2030   25.8100   16.3560 C.ar   81  TRP81       0.0001
     64  CH2       11.1460   26.0130   17.2610 C.ar   81  TRP81       0.0015
     65  N         17.1220   22.4070   13.4160 N.3    84  TRP84      -0.1241
     66  CA        16.2920   22.9740   12.3640 C.3    84  TRP84       0.1605
     67  C         17.0700   24.0170   11.5590 C.2    84  TRP84       0.2264
     68  O         17.0880   23.9670   10.3260 O.2    84  TRP84      -0.2867
     69  CB        14.9330   23.4420   12.9180 C.3    84  TRP84       0.0550
     70  CG        14.2200   22.2560   13.4400 C.ar   84  TRP84       0.0003
     71  CD1       13.4590   21.3770   12.7220 C.ar   84  TRP84       0.0946
     72  CD2       14.2860   21.7370   14.7720 C.ar   84  TRP84       0.0152
     73  NE1       13.0170   20.3580   13.5340 N.ar   84  TRP84      -0.2442
     74  CE2       13.5150   20.5530   14.7960 C.ar   84  TRP84       0.0810
     75  CE3       14.9210   22.1620   15.9540 C.ar   84  TRP84       0.0012
     76  CZ2       13.3520   19.7920   15.9540 C.ar   84  TRP84       0.0191
     77  CZ3       14.7550   21.4140   17.1130 C.ar   84  TRP84       0.0001
     78  CH2       13.9740   20.2410   17.1060 C.ar   84  TRP84       0.0015
     79  N          7.7630   31.6580   17.0140 N.3   145  TYR145     -0.1241
     80  CA         7.0580   32.2200   18.1840 C.3   145  TYR145      0.1605
     81  C          7.3350   33.6870   18.4460 C.2   145  TYR145      0.2264
     82  O          6.4010   34.4950   18.5080 O.2   145  TYR145     -0.2867
     83  CB         7.3230   31.4130   19.4660 C.3   145  TYR145      0.0534
     84  CG         6.9960   29.9350   19.3760 C.ar  145  TYR145     -0.0201
     85  CD1        5.6930   29.4730   19.5680 C.ar  145  TYR145     -0.0009
     86  CD2        7.9940   29.0030   19.1030 C.ar  145  TYR145     -0.0009
     87  CE1        5.3950   28.1210   19.4750 C.ar  145  TYR145      0.0417
     88  CE2        7.7110   27.6560   19.0230 C.ar  145  TYR145      0.0417
     89  CZ         6.4070   27.2230   19.2050 C.ar  145  TYR145      0.1957
     90  OH         6.1230   25.8690   19.1200 O.3   145  TYR145     -0.2866
     91  N          9.5220   25.2740   11.6160 N.3   194  LEU194     -0.1245
     92  CA         8.4930   24.3300   12.0470 C.3   194  LEU194      0.1561
     93  C          7.3200   25.2170   12.4740 C.2   194  LEU194      0.2260
     94  O          7.5560   26.2680   13.0740 O.2   194  LEU194     -0.2867
     95  CB         9.0260   23.5420   13.2520 C.3   194  LEU194      0.0270
     96  CG         8.6730   22.0980   13.6020 C.3   194  LEU194      0.0019
     97  CD1        8.9930   21.1440   12.4600 C.3   194  LEU194      0.0001
     98  CD2        9.4590   21.6880   14.8450 C.3   194  LEU194      0.0001
     99  N          4.3290   24.5190   17.7030 N.3   197  CYS197     -0.1221
    100  CA         3.8730   23.4140   18.5550 C.3   197  CYS197      0.1808
    101  C          2.8850   23.8670   19.6540 C.2   197  CYS197      0.2601
    102  O          1.7670   23.3570   19.7300 O.2   197  CYS197     -0.2717
    103  CB         5.0730   22.6420   19.1400 C.3   197  CYS197      0.0970
    104  SG         5.8950   21.5430   17.9400 S.3   197  CYS197     -0.0800
    105  N          3.2940   24.8080   20.5010 N.am  198  HIS198     -0.1975
    106  CA         2.3680   25.4530   21.4330 C.3   198  HIS198      0.1656
    107  C          1.6960   26.6170   20.7130 C.2   198  HIS198      0.2291
    108  O          2.2890   27.6800   20.5100 O.2   198  HIS198     -0.2864
    109  CB         3.0650   25.8860   22.7180 C.3   198  HIS198      0.0771
    110  CG         4.5210   26.1940   22.5570 C.ar  198  HIS198      0.0820
    111  ND1        5.0210   27.4790   22.6150 N.ar  198  HIS198     -0.2267
    112  CD2        5.5910   25.3820   22.3770 C.ar  198  HIS198      0.1154
    113  CE1        6.3340   27.4470   22.4590 C.ar  198  HIS198      0.1986
    114  NE2        6.7030   26.1860   22.3110 N.ar  198  HIS198     -0.2212
    115  N         -1.9240   23.1280   22.8290 N.3   216  GLN216     -0.1245
    116  CA        -0.7410   22.5820   22.1550 C.3   216  GLN216      0.1566
    117  C         -1.0660   21.5040   21.0970 C.2   216  GLN216      0.2260
    118  O         -1.2890   20.3430   21.4480 O.2   216  GLN216     -0.2867
    119  CB         0.2460   22.0240   23.1900 C.3   216  GLN216      0.0367
    120  CG         1.5380   21.4910   22.5940 C.3   216  GLN216      0.0905
    121  CD         2.7390   21.6580   23.5050 C.2   216  GLN216      0.2608
    122  OE1        2.6200   22.0930   24.6620 O.2   216  GLN216     -0.2717
    123  NE2        3.9170   21.3170   22.9810 N.am  216  GLN216     -0.0878
    124  N          5.5830   16.4240   22.1640 N.3   220  ASP220     -0.1239
    125  CA         6.6180   15.4500   22.4430 C.3   220  ASP220      0.1674
    126  C          6.5960   15.2840   23.9710 C.2   220  ASP220      0.2266
    127  O          7.2630   16.0210   24.7170 O.2   220  ASP220     -0.2867
    128  CB         7.9640   16.0280   21.9630 C.3   220  ASP220      0.1410
    129  CG         9.1680   15.0830   22.1830 C.2   220  ASP220      0.3668
    130  OD1        9.2150   14.2640   23.1400 O.co2 220  ASP220     -0.2456
    131  OD2       10.1120   15.1850   21.3780 O.co2 220  ASP220     -0.2456
    132  N         10.4340   14.6660   25.8780 N.3   223  LEU223     -0.1231
    133  CA        11.4390   15.7490   25.8220 C.3   223  LEU223      0.1693
    134  C         10.8420   17.1610   25.8550 C.2   223  LEU223      0.2592
    135  O         11.3280   18.0270   26.5810 O.2   223  LEU223     -0.2718
    136  CB        12.3670   15.5870   24.6030 C.3   223  LEU223      0.0284
    137  CG        13.4640   14.5030   24.7240 C.3   223  LEU223      0.0019
    138  CD1       14.1470   14.2670   23.3800 C.3   223  LEU223      0.0001
    139  CD2       14.4920   14.8010   25.8130 C.3   223  LEU223      0.0001
    140  N          9.7870   17.3770   25.0710 N.am  224  GLY224     -0.1957
    141  CA         9.2050   18.6980   24.8860 C.3   224  GLY224      0.1869
    142  C          8.3560   19.1700   26.0460 C.2   224  GLY224      0.2309
    143  O          8.6730   20.1700   26.6740 O.2   224  GLY224     -0.2863
    144  N          9.5990   20.9250   29.0630 N.3   227  PHE227     -0.1227
    145  CA        10.0450   22.2910   28.7480 C.3   227  PHE227      0.1736
    146  C          8.8610   23.2660   28.6420 C.2   227  PHE227      0.2595
    147  O          8.8440   24.3080   29.3100 O.2   227  PHE227     -0.2718
    148  CB        10.8820   22.3350   27.4650 C.3   227  PHE227      0.0547
    149  CG        12.3550   22.0440   27.6610 C.ar  227  PHE227     -0.0202
    150  CD1       12.7890   20.8690   28.2850 C.ar  227  PHE227     -0.0042
    151  CD2       13.3130   22.9220   27.1650 C.ar  227  PHE227     -0.0042
    152  CE1       14.1390   20.5970   28.4280 C.ar  227  PHE227     -0.0003
    153  CE2       14.6690   22.6540   27.3030 C.ar  227  PHE227     -0.0003
    154  CZ        15.0860   21.4920   27.9360 C.ar  227  PHE227     -0.0000
    155  N          7.8820   22.9180   27.8060 N.am  228  ASN228     -0.1974
    156  CA         6.6520   23.6970   27.6400 C.3   228  ASN228      0.1688
    157  C          5.8940   24.0450   28.9270 C.2   228  ASN228      0.2292
    158  O          5.5480   25.2140   29.1410 O.2   228  ASN228     -0.2864
    159  CB         5.7010   22.9870   26.6750 C.3   228  ASN228      0.1181
    160  CG         6.3880   22.5220   25.4030 C.2   228  ASN228      0.2629
    161  OD1        6.0870   21.4480   24.8940 O.2   228  ASN228     -0.2716
    162  ND2        7.3120   23.3260   24.8830 N.am  228  ASN228     -0.0877
    163  N          2.1530   12.7600   22.0030 N.3   258  HIS258     -0.1241
    164  CA         2.9130   11.6350   21.4780 C.3   258  HIS258      0.1621
    165  C          4.1990   11.3340   22.2440 C.2   258  HIS258      0.2264
    166  O          4.8970   12.2300   22.6860 O.2   258  HIS258     -0.2867
    167  CB         3.1630   11.7720   19.9600 C.3   258  HIS258      0.0745
    168  CG         3.8710   13.0300   19.5690 C.ar  258  HIS258      0.0817
    169  ND1        3.2040   14.1750   19.1930 N.ar  258  HIS258     -0.2268
    170  CD2        5.1910   13.3280   19.5070 C.ar  258  HIS258      0.1154
    171  CE1        4.0790   15.1230   18.9090 C.ar  258  HIS258      0.1986
    172  NE2        5.2940   14.6380   19.0970 N.ar  258  HIS258     -0.2212
    173  N          7.5930    9.4700   21.2910 N.3   260  TYR260     -0.1241
    174  CA         8.4000    8.8960   20.2330 C.3   260  TYR260      0.1605
    175  C          8.8130    7.4460   20.5790 C.2   260  TYR260      0.2264
    176  O          9.0540    7.1060   21.7410 O.2   260  TYR260     -0.2867
    177  CB         9.6020    9.8120   19.9400 C.3   260  TYR260      0.0534
    178  CG         9.2060   11.0330   19.1220 C.ar  260  TYR260     -0.0201
    179  CD1        9.1510   10.9610   17.7320 C.ar  260  TYR260     -0.0009
    180  CD2        8.8390   12.2460   19.7420 C.ar  260  TYR260     -0.0009
    181  CE1        8.7620   12.0580   16.9730 C.ar  260  TYR260      0.0417
    182  CE2        8.4470   13.3470   18.9930 C.ar  260  TYR260      0.0417
    183  CZ         8.4150   13.2450   17.6010 C.ar  260  TYR260      0.1957
    184  OH         8.0410   14.2990   16.7980 O.3   260  TYR260     -0.2866
    185  N         18.7260   10.8550   29.4550 N.3   310  LYS310     -0.1231
    186  CA        18.9720   11.3060   28.0890 C.3   310  LYS310      0.1693
    187  C         18.0440   10.6110   27.0710 C.2   310  LYS310      0.2591
    188  O         17.6140    9.4650   27.2740 O.2   310  LYS310     -0.2718
    189  CB        20.4640   11.1410   27.7260 C.3   310  LYS310      0.0285
    190  CG        20.8640   11.5570   26.3020 C.3   310  LYS310      0.0035
    191  CD        20.4710   12.9990   25.9230 C.3   310  LYS310      0.0206
    192  CE        20.7570   13.3480   24.4530 C.3   310  LYS310      0.1093
    193  NZ        20.1690   12.4120   23.4520 N.3   310  LYS310     -0.1314
    194  N         17.7150   11.3240   25.9940 N.am  311  ALA311     -0.1980
    195  CA        16.9140   10.7750   24.9060 C.3   311  ALA311      0.1597
    196  C         17.1750   11.5630   23.6050 C.2   311  ALA311      0.2287
    197  O         17.3850   12.7620   23.6500 O.2   311  ALA311     -0.2864
    198  CB        15.4410   10.8050   25.2800 C.3   311  ALA311      0.0319
    199  N         16.5810   13.6980   20.2640 N.3   313  ILE313     -0.1231
    200  CA        15.5510   14.5420   19.6770 C.3   313  ILE313      0.1692
    201  C         15.1460   14.0250   18.2990 C.2   313  ILE313      0.2591
    202  O         15.9760   13.5010   17.5500 O.2   313  ILE313     -0.2718
    203  CB        15.9670   16.0480   19.6300 C.3   313  ILE313      0.0266
    204  CG1       14.7350   16.9430   19.4780 C.3   313  ILE313      0.0019
    205  CG2       16.9760   16.3450   18.5240 C.3   313  ILE313      0.0020
    206  CD1       13.7530   16.8310   20.6230 C.3   313  ILE313      0.0001
    207  N         13.8590   14.1560   17.9860 N.am  314  ALA314     -0.1980
    208  CA        13.3250   13.8070   16.6750 C.3   314  ALA314      0.1597
    209  C         13.4040   15.0190   15.7320 C.2   314  ALA314      0.2287
    210  O         12.6040   15.9560   15.8190 O.2   314  ALA314     -0.2864
    211  CB        11.8970   13.3280   16.8100 C.3   314  ALA314      0.0319
@<TRIPOS>BOND
     1     4     3    2
     2     6     7    1
     3     6     5    1
     4     7     8    1
     5     2     3    1
     6     2     5    1
     7     2     1    1
     8     3    12   am
     9    10     9    1
    10    68    67    2
    11    15    14    2
    12     8     9    2
    13    14    13    1
    14    12    13    1
    15     9    11    1
    16    13    16    1
    17    67    66    1
    18    91    92    1
    19    92    93    1
    20    92    95    1
    21    66    69    1
    22    66    65    1
    23    97    96    1
    24    93    94    2
    25    71    70   ar
    26    71    73   ar
    27    16    18    1
    28    16    17    1
    29    69    70    1
    30    95    96    1
    31    70    72   ar
    32    73    74   ar
    33    96    98    1
    34    72    74   ar
    35    72    75   ar
    36    74    76   ar
    37   209   210    2
    38   209   208    1
    39    75    77   ar
    40    76    78   ar
    41    54    53    2
    42    63    61   ar
    43    63    64   ar
    44   208   211    1
    45   208   207    1
    46    61    58   ar
    47   184   183    1
    48   181   183   ar
    49   181   179   ar
    50    79    80    1
    51    78    77   ar
    52    53    52    1
    53    64    62   ar
    54   202   201    2
    55   183   182   ar
    56    99   100    1
    57   179   178   ar
    58   104   103    1
    59   207   201   am
    60    58    56   ar
    61    58    60   ar
    62    80    81    1
    63    80    83    1
    64   201   200    1
    65    52    55    1
    66    52    51    1
    67    55    56    1
    68    81    82    2
    69   205   203    1
    70   100   103    1
    71   100   101    1
    72    62    60   ar
    73    56    57   ar
    74   171   172   ar
    75   171   169   ar
    76    60    59   ar
    77   182   180   ar
    78    88    86   ar
    79    88    89   ar
    80   172   170   ar
    81    86    84   ar
    82    90    89    1
    83   178   180   ar
    84   178   177    1
    85   169   168   ar
    86    89    87   ar
    87    84    83    1
    88    84    85   ar
    89    87    85   ar
    90   204   203    1
    91   204   206    1
    92   170   168   ar
    93   168   167    1
    94    51    45   am
    95   203   200    1
    96   101   102    2
    97   101   105   am
    98   200   199    1
    99    46    45    2
   100   177   174    1
   101   167   164    1
   102    57    59   ar
   103   174   175    1
   104   174   173    1
   105    45    44    1
   106   105   106    1
   107   108   107    2
   108   175   176    2
   109   107   106    1
   110   117   118    2
   111   117   116    1
   112   131   129   ar
   113   106   109    1
   114   164   163    1
   115   164   165    1
   116    44    43    1
   117    44    47    1
   118   128   129    1
   119   128   125    1
   120   116   115    1
   121   116   119    1
   122   124   125    1
   123   129   130   ar
   124   165   166    2
   125   114   112   ar
   126   114   113   ar
   127   112   110   ar
   128   125   126    1
   129   113   111   ar
   130   110   111   ar
   131   110   109    1
   132   120   119    1
   133   120   121    1
   134    47    48    1
   135    47    49    1
   136   123   121   am
   137    48    50    1
   138    42    40   ar
   139   138   137    1
   140   193   192    1
   141   121   122    2
   142   196   197    2
   143   196   195    1
   144   126   127    2
   145    40    39    1
   146    40    41   ar
   147    39    38    1
   148   192   191    1
   149    37    36    2
   150   136   137    1
   151   136   133    1
   152   137   139    1
   153   162   160   am
   154   141   140    1
   155   141   142    1
   156   161   160    2
   157   195   198    1
   158   195   194    1
   159   140   134   am
   160    38    35    1
   161   160   159    1
   162    35    36    1
   163    35    34    1
   164   133   134    1
   165   133   132    1
   166   134   135    2
   167   191   190    1
   168   194   187   am
   169   142   143    2
   170   190   189    1
   171   159   156    1
   172   187   188    2
   173   187   186    1
   174   151   153   ar
   175   151   149   ar
   176   153   154   ar
   177   148   149    1
   178   148   145    1
   179    31    33    1
   180    31    32    1
   181    31    30    1
   182   156   155    1
   183   156   157    1
   184   149   150   ar
   185   189   186    1
   186    29    28    2
   187   155   146   am
   188   154   152   ar
   189   186   185    1
   190   150   152   ar
   191    30    27    1
   192   146   145    1
   193   146   147    2
   194    28    27    1
   195   145   144    1
   196    27    26    1
   197   157   158    2
   198    24    23    1
   199    24    25    1
   200    22    21    2
   201    23    20    1
   202    25    19    1
   203    21    20    1
   204    19    20    1
