@<TRIPOS>MOLECULE
tmp/4o7wA01.pdb
 162 151 0 0 0
SMALL
GASTEIGER

@<TRIPOS>ATOM
      1  N         30.3090  -14.8300    9.5900 N.3     2  TYR2       -0.1241
      2  CA        30.1180  -14.2240    8.2750 C.3     2  TYR2        0.1605
      3  C         28.7330  -13.5770    8.1850 C.2     2  TYR2        0.2264
      4  O         27.7110  -14.2660    8.2500 O.2     2  TYR2       -0.2867
      5  CB        30.3300  -15.2530    7.1570 C.3     2  TYR2        0.0534
      6  CG        30.0020  -14.6900    5.7760 C.ar    2  TYR2       -0.0201
      7  CD1       30.7770  -13.6820    5.2220 C.ar    2  TYR2       -0.0009
      8  CD2       28.9210  -15.1380    5.0080 C.ar    2  TYR2       -0.0009
      9  CE1       30.5230  -13.1440    3.9530 C.ar    2  TYR2        0.0417
     10  CE2       28.6280  -14.6070    3.7440 C.ar    2  TYR2        0.0417
     11  CZ        29.4250  -13.5900    3.2140 C.ar    2  TYR2        0.1957
     12  OH        29.1510  -13.0570    1.9840 O.3     2  TYR2       -0.2866
     13  N         26.0900  -12.0150    5.9720 N.3     4  GLY4       -0.1210
     14  CA        25.5890  -11.8600    4.5990 C.3     4  GLY4        0.1956
     15  C         24.4580  -10.8480    4.4650 C.2     4  GLY4        0.2612
     16  O         24.1470  -10.1250    5.4160 O.2     4  GLY4       -0.2717
     17  N         23.8380  -10.8090    3.2830 N.am    5  LYS5       -0.1965
     18  CA        22.7620   -9.8520    2.9680 C.3     5  LYS5        0.1728
     19  C         21.4640  -10.0620    3.7820 C.2     5  LYS5        0.2616
     20  O         20.7760   -9.0930    4.1360 O.2     5  LYS5       -0.2715
     21  CB        22.4590   -9.8570    1.4580 C.3     5  LYS5        0.0311
     22  CG        23.6850   -9.4390    0.6250 C.3     5  LYS5        0.0038
     23  CD        23.3720   -9.6610   -0.8360 C.3     5  LYS5        0.0206
     24  CE        23.9290   -8.6550   -1.7950 C.3     5  LYS5        0.1093
     25  NZ        23.4050   -8.8170   -3.2100 N.3     5  LYS5       -0.1314
     26  N         21.1350  -11.3200    4.0780 N.am    6  ALA6       -0.1963
     27  CA        19.9140  -11.6320    4.8430 C.3     6  ALA6        0.1728
     28  C         20.1360  -12.5490    6.0600 C.2     6  ALA6        0.2616
     29  O         19.2200  -12.7430    6.8670 O.2     6  ALA6       -0.2715
     30  CB        18.8380  -12.2130    3.9220 C.3     6  ALA6        0.0334
     31  N         21.3310  -13.1260    6.1710 N.am    7  LYS7       -0.1977
     32  CA        21.6230  -14.1000    7.2300 C.3     7  LYS7        0.1596
     33  C         23.0600  -13.9720    7.7440 C.2     7  LYS7        0.2287
     34  O         23.9490  -13.5290    7.0130 O.2     7  LYS7       -0.2864
     35  CB        21.3490  -15.5520    6.7640 C.3     7  LYS7        0.0298
     36  CG        19.9550  -15.7970    6.1800 C.3     7  LYS7        0.0038
     37  CD        19.6280  -17.2740    5.9520 C.3     7  LYS7        0.0206
     38  CE        20.5750  -17.9810    4.9850 C.3     7  LYS7        0.1093
     39  NZ        20.6460  -17.3590    3.6330 N.3     7  LYS7       -0.1314
     40  N         26.2520  -16.2780    9.5500 N.3     9  MET9       -0.1245
     41  CA        26.7250  -17.6520    9.7250 C.3     9  MET9        0.1570
     42  C         27.8260  -17.7080   10.7810 C.2     9  MET9        0.2261
     43  O         28.9430  -17.2480   10.5400 O.2     9  MET9       -0.2867
     44  CB        27.2170  -18.2450    8.3930 C.3     9  MET9        0.0387
     45  CG        26.2400  -18.1400    7.2250 C.3     9  MET9        0.0595
     46  SD        24.6320  -18.9390    7.4630 S.3     9  MET9       -0.1393
     47  CE        25.0180  -20.6630    7.1240 C.3     9  MET9        0.0692
     48  N         27.3810  -24.9320   12.2040 N.3    17  LEU17      -0.1245
     49  CA        27.3290  -23.4890   12.3070 C.3    17  LEU17       0.1561
     50  C         25.9360  -23.0120   12.6630 C.2    17  LEU17       0.2260
     51  O         24.9730  -23.7920   12.6940 O.2    17  LEU17      -0.2867
     52  CB        27.9240  -22.7840   11.0730 C.3    17  LEU17       0.0270
     53  CG        27.2800  -22.7740    9.6850 C.3    17  LEU17       0.0019
     54  CD1       27.9700  -21.7250    8.8290 C.3    17  LEU17       0.0001
     55  CD2       27.3690  -24.1240    9.0070 C.3    17  LEU17       0.0001
     56  N         22.9570  -20.5580   11.7160 N.3    19  MET19      -0.1245
     57  CA        22.3830  -19.7380   10.6540 C.3    19  MET19       0.1570
     58  C         21.3840  -18.7970   11.2920 C.2    19  MET19       0.2261
     59  O         20.3370  -19.2300   11.7800 O.2    19  MET19      -0.2867
     60  CB        21.7000  -20.6130    9.5990 C.3    19  MET19       0.0387
     61  CG        21.2330  -19.8760    8.3520 C.3    19  MET19       0.0595
     62  SD        20.9010  -21.0260    6.9960 S.3    19  MET19      -0.1393
     63  CE        19.5030  -21.9590    7.6140 C.3    19  MET19       0.0692
     64  N         20.8850  -29.8160    5.6650 N.3    62  HIS62      -0.1241
     65  CA        21.8370  -29.4170    6.6870 C.3    62  HIS62       0.1621
     66  C         21.1980  -29.1310    8.0300 C.2    62  HIS62       0.2264
     67  O         21.9030  -28.8540    8.9960 O.2    62  HIS62      -0.2867
     68  CB        22.6610  -28.2240    6.2040 C.3    62  HIS62       0.0745
     69  CG        21.8790  -26.9290    6.1010 C.ar   62  HIS62       0.0817
     70  ND1       22.4840  -25.7250    6.0900 N.ar   62  HIS62      -0.2268
     71  CD2       20.5070  -26.6790    6.0260 C.ar   62  HIS62       0.1154
     72  CE1       21.5620  -24.7500    5.9920 C.ar   62  HIS62       0.1986
     73  NE2       20.3490  -25.3320    5.9500 N.ar   62  HIS62      -0.2212
     74  N         22.9220  -25.7180   11.9500 N.3    74  VAL74      -0.1231
     75  CA        23.0460  -26.4600   10.7110 C.3    74  VAL74       0.1692
     76  C         24.4290  -27.0900   10.5590 C.2    74  VAL74       0.2592
     77  O         25.4130  -26.6490   11.1620 O.2    74  VAL74      -0.2718
     78  CB        22.7070  -25.6040    9.4540 C.3    74  VAL74       0.0266
     79  CG1       21.2510  -25.1440    9.4670 C.3    74  VAL74       0.0020
     80  CG2       23.6750  -24.4310    9.3010 C.3    74  VAL74       0.0020
     81  N         24.4750  -28.1130    9.7220 N.am   75  GLU75      -0.1966
     82  CA        25.6890  -28.8300    9.4200 C.3    75  GLU75       0.1733
     83  C         26.5440  -28.0030    8.4740 C.2    75  GLU75       0.2616
     84  O         26.0600  -27.5130    7.4560 O.2    75  GLU75      -0.2715
     85  CB        25.3050  -30.1580    8.7760 C.3    75  GLU75       0.0429
     86  CG        26.4680  -31.0530    8.4280 C.3    75  GLU75       0.1163
     87  CD        26.0190  -32.3130    7.7180 C.2    75  GLU75       0.3649
     88  OE1       24.8470  -32.4060    7.3150 O.co2  75  GLU75      -0.2457
     89  OE2       26.8590  -33.2030    7.5420 O.co2  75  GLU75      -0.2457
     90  N         27.8110  -27.8320    8.8180 N.am   76  LYS76      -0.1963
     91  CA        28.7570  -27.1590    7.9320 C.3    76  LYS76       0.1728
     92  C         29.0440  -28.0380    6.7180 C.2    76  LYS76       0.2616
     93  O         29.2510  -29.2450    6.8450 O.2    76  LYS76      -0.2715
     94  CB        30.0410  -26.8340    8.6870 C.3    76  LYS76       0.0311
     95  CG        31.0810  -26.0410    7.9200 C.3    76  LYS76       0.0038
     96  CD        32.4330  -26.1750    8.6250 C.3    76  LYS76       0.0206
     97  CE        33.2210  -24.8810    8.5720 C.3    76  LYS76       0.1093
     98  NZ        33.8980  -24.7260    7.2550 N.3    76  LYS76      -0.1314
     99  N         29.0180  -27.4300    5.5370 N.am   77  LEU77      -0.1977
    100  CA        29.2410  -28.1620    4.2970 C.3    77  LEU77       0.1596
    101  C         30.2390  -27.4470    3.4110 C.2    77  LEU77       0.2287
    102  O         30.4270  -26.2440    3.5320 O.2    77  LEU77      -0.2864
    103  CB        27.9270  -28.2850    3.5240 C.3    77  LEU77       0.0297
    104  CG        26.7480  -29.0210    4.1490 C.3    77  LEU77       0.0022
    105  CD1       25.4850  -28.7040    3.3520 C.3    77  LEU77       0.0001
    106  CD2       26.9890  -30.5260    4.2310 C.3    77  LEU77       0.0001
    107  N         30.2930  -25.9750    0.2600 N.3    79  MET79      -0.1245
    108  CA        29.2140  -25.4810   -0.6000 C.3    79  MET79       0.1570
    109  C         29.5550  -25.5410   -2.0800 C.2    79  MET79       0.2261
    110  O         30.6610  -25.2290   -2.4830 O.2    79  MET79      -0.2867
    111  CB        28.7970  -24.0510   -0.2100 C.3    79  MET79       0.0387
    112  CG        28.1970  -23.9190    1.1970 C.3    79  MET79       0.0595
    113  SD        26.6560  -24.8400    1.4770 S.3    79  MET79      -0.1393
    114  CE        25.5750  -23.9210    0.3540 C.3    79  MET79       0.0692
    115  N         23.2360  -21.5580   -7.4270 N.3    83  GLU83      -0.1245
    116  CA        21.8650  -21.3680   -7.0180 C.3    83  GLU83       0.1567
    117  C         21.0550  -22.1890   -8.0090 C.2    83  GLU83       0.2260
    118  O         21.1840  -21.9960   -9.2190 O.2    83  GLU83      -0.2867
    119  CB        21.5250  -19.8800   -7.0290 C.3    83  GLU83       0.0388
    120  CG        22.1220  -19.1780   -5.8010 C.3    83  GLU83       0.1160
    121  CD        22.3620  -17.6910   -5.9960 C.2    83  GLU83       0.3649
    122  OE1       22.7530  -17.0260   -5.0050 O.co2  83  GLU83      -0.2457
    123  OE2       22.1840  -17.1830   -7.1360 O.co2  83  GLU83      -0.2457
    124  N         27.1260  -18.8110   -8.6220 N.3   116  LYS116     -0.1245
    125  CA        27.2640  -17.8050   -7.5540 C.3   116  LYS116      0.1561
    126  C         28.5690  -17.0620   -7.6610 C.2   116  LYS116      0.2260
    127  O         29.6030  -17.5600   -7.2590 O.2   116  LYS116     -0.2867
    128  CB        27.1760  -18.4480   -6.1800 C.3   116  LYS116      0.0271
    129  CG        25.7660  -18.7640   -5.7570 C.3   116  LYS116      0.0035
    130  CD        25.7630  -19.4020   -4.3810 C.3   116  LYS116      0.0206
    131  CE        25.9310  -18.3440   -3.3300 C.3   116  LYS116      0.1093
    132  NZ        25.5550  -18.8990   -2.0080 N.3   116  LYS116     -0.1314
    133  N         29.5440  -12.7800   -7.5630 N.3   118  ASP118     -0.1239
    134  CA        29.0930  -11.3830   -7.5140 C.3   118  ASP118      0.1674
    135  C         29.6920  -10.5350   -8.6160 C.2   118  ASP118      0.2266
    136  O         29.0000   -9.7000   -9.1890 O.2   118  ASP118     -0.2867
    137  CB        29.4290  -10.7480   -6.1680 C.3   118  ASP118      0.1410
    138  CG        28.7300  -11.4250   -5.0250 C.2   118  ASP118      0.3668
    139  OD1       27.4800  -11.4350   -5.0190 O.co2 118  ASP118     -0.2456
    140  OD2       29.4330  -11.9490   -4.1320 O.co2 118  ASP118     -0.2456
    141  N         20.1920  -24.2530   -2.5920 N.3   171  GLU171     -0.1245
    142  CA        21.6370  -24.3490   -2.5650 C.3   171  GLU171      0.1567
    143  C         22.0320  -25.6640   -1.8860 C.2   171  GLU171      0.2260
    144  O         21.2690  -26.2290   -1.0720 O.2   171  GLU171     -0.2867
    145  CB        22.2480  -23.1540   -1.8180 C.3   171  GLU171      0.0388
    146  CG        21.9350  -21.7900   -2.4420 C.3   171  GLU171      0.1160
    147  CD        22.6810  -20.6370   -1.7800 C.2   171  GLU171      0.3649
    148  OE1       23.6950  -20.8580   -1.0860 O.co2 171  GLU171     -0.2457
    149  OE2       22.2620  -19.4890   -1.9630 O.co2 171  GLU171     -0.2457
    150  N         21.0180  -27.1760    1.5220 N.3   183  ALA183     -0.1231
    151  CA        21.5910  -26.1950    2.4290 C.3   183  ALA183      0.1694
    152  C         20.8260  -24.8630    2.4310 C.2   183  ALA183      0.2592
    153  O         19.6400  -24.8190    2.0850 O.2   183  ALA183     -0.2718
    154  CB        23.0670  -25.9940    2.0930 C.3   183  ALA183      0.0304
    155  N         21.5040  -23.7880    2.8360 N.am  184  ASP184     -0.1974
    156  CA        20.9090  -22.4510    2.9090 C.3   184  ASP184      0.1709
    157  C         19.5010  -22.4080    3.5570 C.2   184  ASP184      0.2293
    158  O         19.2930  -22.9790    4.6260 O.2   184  ASP184     -0.2864
    159  CB        20.9130  -21.7980    1.5190 C.3   184  ASP184      0.1436
    160  CG        20.8210  -20.2780    1.5930 C.2   184  ASP184      0.3671
    161  OD1       19.8670  -19.7310    1.0250 O.co2 184  ASP184     -0.2456
    162  OD2       21.7010  -19.6380    2.2120 O.co2 184  ASP184     -0.2456
@<TRIPOS>BOND
     1   118   117    2
     2   136   135    2
     3   124   125    1
     4   135   134    1
     5   117   116    1
     6   126   125    1
     7   126   127    2
     8   133   134    1
     9   125   128    1
    10   134   137    1
    11   115   116    1
    12   123   121   ar
    13   119   116    1
    14   119   120    1
    15   128   129    1
    16   137   138    1
    17   121   120    1
    18   121   122   ar
    19   129   130    1
    20   138   139   ar
    21   138   140   ar
    22   130   131    1
    23   131   132    1
    24    25    24    1
    25   141   142    1
    26   142   143    1
    27   142   145    1
    28   110   109    2
    29   146   145    1
    30   146   147    1
    31   109   108    1
    32   149   147   ar
    33   143   144    2
    34    24    23    1
    35   147   148   ar
    36    23    22    1
    37   108   111    1
    38   108   107    1
    39   111   112    1
    40   114   113    1
    41    22    21    1
    42   161   160   ar
    43   112   113    1
    44    21    18    1
    45   159   160    1
    46   159   156    1
    47   150   151    1
    48   160   162   ar
    49    12    11    1
    50   153   152    2
    51   154   151    1
    52   151   152    1
    53   152   155   am
    54   155   156    1
    55   156   157    1
    56    18    17    1
    57    18    19    1
    58    11    10   ar
    59    11     9   ar
    60    17    15   am
    61   105   104    1
    62   101   102    2
    63   101   100    1
    64   103   104    1
    65   103   100    1
    66   157   158    2
    67    39    38    1
    68    10     8   ar
    69    19    26   am
    70    19    20    2
    71    30    27    1
    72     9     7   ar
    73    26    27    1
    74   104   106    1
    75   100    99    1
    76    15    14    1
    77    15    16    2
    78    14    13    1
    79    27    28    1
    80    38    37    1
    81     8     6   ar
    82     7     6   ar
    83    99    92   am
    84    64    65    1
    85     6     5    1
    86    73    72   ar
    87    73    71   ar
    88    37    36    1
    89    72    70   ar
    90    71    69   ar
    91    28    31   am
    92    28    29    2
    93    70    69   ar
    94    69    68    1
    95    31    32    1
    96    36    35    1
    97    68    65    1
    98    65    66    1
    99    92    93    2
   100    92    91    1
   101    35    32    1
   102    62    63    1
   103    62    61    1
   104    34    33    2
   105    47    46    1
   106     5     2    1
   107    45    46    1
   108    45    44    1
   109    32    33    1
   110    98    97    1
   111    88    87   ar
   112    84    83    2
   113    89    87   ar
   114    87    86    1
   115    95    96    1
   116    95    94    1
   117    91    94    1
   118    91    90    1
   119    66    67    2
   120     3     4    2
   121     3     2    1
   122     2     1    1
   123    61    60    1
   124    44    41    1
   125    86    85    1
   126    83    90   am
   127    83    82    1
   128    97    96    1
   129    85    82    1
   130    54    53    1
   131    55    53    1
   132    80    78    1
   133    82    81    1
   134    78    79    1
   135    78    75    1
   136    40    41    1
   137    60    57    1
   138    53    52    1
   139    81    76   am
   140    41    42    1
   141    43    42    2
   142    76    75    1
   143    76    77    2
   144    57    58    1
   145    57    56    1
   146    75    74    1
   147    52    49    1
   148    58    59    2
   149    48    49    1
   150    49    50    1
   151    50    51    2
