@<TRIPOS>MOLECULE
tmp/4o7yA00.pdb
 128 121 0 0 0
SMALL
GASTEIGER

@<TRIPOS>ATOM
      1  N         23.2220  -21.7750   -7.4490 N.3    79  GLU79      -0.1245
      2  CA        21.8480  -21.5720   -7.0620 C.3    79  GLU79       0.1567
      3  C         21.0390  -22.3990   -8.0330 C.2    79  GLU79       0.2260
      4  O         21.2190  -22.3000   -9.2630 O.2    79  GLU79      -0.2867
      5  CB        21.5040  -20.0930   -7.1040 C.3    79  GLU79       0.0388
      6  CG        22.2620  -19.3520   -5.9970 C.3    79  GLU79       0.1160
      7  CD        21.9550  -17.8770   -5.9560 C.2    79  GLU79       0.3649
      8  OE1       22.7190  -17.1150   -5.3400 O.co2  79  GLU79      -0.2457
      9  OE2       20.9320  -17.4750   -6.5440 O.co2  79  GLU79      -0.2457
     10  N         17.4970  -23.4980   -9.4060 N.3    81  VAL81      -0.1245
     11  CA        16.1600  -22.9140   -9.4600 C.3    81  VAL81       0.1561
     12  C         15.1970  -23.8970  -10.1550 C.2    81  VAL81       0.2260
     13  O         15.4720  -24.3580  -11.2650 O.2    81  VAL81      -0.2867
     14  CB        16.1750  -21.5490  -10.1990 C.3    81  VAL81       0.0252
     15  CG1       14.7590  -21.0210  -10.4480 C.3    81  VAL81       0.0019
     16  CG2       16.9890  -20.5030   -9.4270 C.3    81  VAL81       0.0019
     17  N         11.2370  -24.3520  -11.5120 N.3    83  ARG83      -0.1245
     18  CA        10.1200  -23.4960  -11.9180 C.3    83  ARG83       0.1563
     19  C          8.9320  -24.3420  -12.4250 C.2    83  ARG83       0.2260
     20  O          9.1020  -25.2190  -13.2680 O.2    83  ARG83      -0.2867
     21  CB        10.6010  -22.4920  -12.9780 C.3    83  ARG83       0.0307
     22  CG        12.0690  -22.0810  -12.7980 C.3    83  ARG83       0.0489
     23  CD        12.5350  -20.9810  -13.7470 C.3    83  ARG83       0.2205
     24  NE        11.9380  -19.7100  -13.3780 N.pl3  83  ARG83      -0.0865
     25  CZ        12.5850  -18.6160  -12.9790 C.cat  83  ARG83       0.5346
     26  NH1       13.9200  -18.5550  -12.9180 N.pl3  83  ARG83       0.1354
     27  NH2       11.8620  -17.5440  -12.6700 N.pl3  83  ARG83       0.1354
     28  N          9.0410  -13.9700  -13.1490 N.3    88  GLY88      -0.1210
     29  CA        10.3860  -13.4600  -12.9160 C.3    88  GLY88       0.1956
     30  C         11.2150  -13.5220  -14.1750 C.2    88  GLY88       0.2612
     31  O         10.7190  -13.2420  -15.2680 O.2    88  GLY88      -0.2717
     32  N         12.4630  -13.9440  -14.0350 N.am   89  SER89      -0.1952
     33  CA        13.4260  -13.9190  -15.1450 C.3    89  SER89       0.1924
     34  C         13.0910  -14.8700  -16.3130 C.2    89  SER89       0.2314
     35  O         13.5380  -14.6650  -17.4370 O.2    89  SER89      -0.2863
     36  CB        14.8290  -14.2320  -14.5980 C.3    89  SER89       0.2116
     37  OG        14.9260  -15.6080  -14.2800 O.3    89  SER89      -0.2180
     38  N         22.5390  -21.6260  -11.7570 N.3   110  TYR110     -0.1241
     39  CA        23.1480  -20.2890  -11.7390 C.3   110  TYR110      0.1605
     40  C         24.4760  -20.3930  -10.9880 C.2   110  TYR110      0.2264
     41  O         24.5550  -21.0040   -9.9370 O.2   110  TYR110     -0.2867
     42  CB        22.2560  -19.2340  -11.0700 C.3   110  TYR110      0.0534
     43  CG        21.0290  -18.9310  -11.8860 C.ar  110  TYR110     -0.0201
     44  CD1       21.0270  -17.8970  -12.8220 C.ar  110  TYR110     -0.0009
     45  CD2       19.8840  -19.7180  -11.7530 C.ar  110  TYR110     -0.0009
     46  CE1       19.9050  -17.6460  -13.6200 C.ar  110  TYR110      0.0417
     47  CE2       18.7530  -19.4640  -12.5210 C.ar  110  TYR110      0.0417
     48  CZ        18.7700  -18.4230  -13.4520 C.ar  110  TYR110      0.1957
     49  OH        17.6470  -18.1960  -14.2270 O.3   110  TYR110     -0.2866
     50  N         25.8740  -13.6840  -10.8500 N.3   118  ASP118     -0.1239
     51  CA        25.2350  -15.0100  -10.8620 C.3   118  ASP118      0.1674
     52  C         24.7080  -15.4360  -12.2250 C.2   118  ASP118      0.2266
     53  O         23.5160  -15.5500  -12.3870 O.2   118  ASP118     -0.2867
     54  CB        24.1040  -15.0600   -9.8600 C.3   118  ASP118      0.1410
     55  CG        24.5460  -14.6780   -8.4640 C.2   118  ASP118      0.3668
     56  OD1       25.7230  -14.8400   -8.1050 O.co2 118  ASP118     -0.2456
     57  OD2       23.6970  -14.1960   -7.7280 O.co2 118  ASP118     -0.2456
     58  N          7.8390  -21.0530   -8.1620 N.3   163  ASP163     -0.1225
     59  CA         9.2490  -21.4230   -8.4150 C.3   163  ASP163      0.1805
     60  C         10.0020  -21.3070   -7.0930 C.2   163  ASP163      0.2598
     61  O          9.4160  -20.8790   -6.1020 O.2   163  ASP163     -0.2718
     62  CB         9.8970  -20.5800   -9.5440 C.3   163  ASP163      0.1424
     63  CG         9.9120  -19.0360   -9.2510 C.2   163  ASP163      0.3668
     64  OD1       10.0500  -18.5930   -8.0950 O.co2 163  ASP163     -0.2456
     65  OD2        9.7910  -18.2510  -10.1990 O.co2 163  ASP163     -0.2456
     66  N         11.2730  -21.7050   -7.0490 N.am  164  PHE164     -0.1962
     67  CA        12.0650  -21.5260   -5.8330 C.3   164  PHE164      0.1771
     68  C         13.5310  -21.7970   -6.1010 C.2   164  PHE164      0.2619
     69  O         13.8950  -22.4090   -7.1030 O.2   164  PHE164     -0.2715
     70  CB        11.5740  -22.4280   -4.6720 C.3   164  PHE164      0.0574
     71  CG        11.6530  -23.9030   -4.9670 C.ar  164  PHE164     -0.0200
     72  CD1       12.7080  -24.6700   -4.4810 C.ar  164  PHE164     -0.0042
     73  CD2       10.6700  -24.5340   -5.7280 C.ar  164  PHE164     -0.0042
     74  CE1       12.7940  -26.0290   -4.7550 C.ar  164  PHE164     -0.0003
     75  CE2       10.7420  -25.9030   -5.9930 C.ar  164  PHE164     -0.0003
     76  CZ        11.8180  -26.6580   -5.5110 C.ar  164  PHE164     -0.0000
     77  N         14.3660  -21.3550   -5.1780 N.am  165  LYS165     -0.1977
     78  CA        15.8040  -21.5150   -5.3050 C.3   165  LYS165      0.1596
     79  C         16.3170  -22.3710   -4.1340 C.2   165  LYS165      0.2287
     80  O         15.9390  -22.1480   -2.9590 O.2   165  LYS165     -0.2864
     81  CB        16.5020  -20.1550   -5.2970 C.3   165  LYS165      0.0298
     82  CG        18.0310  -20.2060   -5.4810 C.3   165  LYS165      0.0038
     83  CD        18.7820  -20.3420   -4.1420 C.3   165  LYS165      0.0206
     84  CE        18.7130  -19.0550   -3.2910 C.3   165  LYS165      0.1093
     85  NZ        19.2950  -19.2900   -1.9200 N.3   165  LYS165     -0.1314
     86  N         11.3470  -15.6840    1.0860 N.3   185  ASP185     -0.1225
     87  CA        12.4280  -14.9310    0.4330 C.3   185  ASP185      0.1805
     88  C         12.9350  -15.6630   -0.8130 C.2   185  ASP185      0.2598
     89  O         13.2620  -15.0230   -1.8240 O.2   185  ASP185     -0.2718
     90  CB        13.6340  -14.7460    1.3720 C.3   185  ASP185      0.1424
     91  CG        13.6010  -13.4370    2.1650 C.2   185  ASP185      0.3668
     92  OD1       14.6850  -13.0310    2.6230 O.co2 185  ASP185     -0.2456
     93  OD2       12.5280  -12.8270    2.3560 O.co2 185  ASP185     -0.2456
     94  N         12.9970  -16.9940   -0.7240 N.am  186  THR186     -0.1939
     95  CA        13.6300  -17.8100   -1.7550 C.3   186  THR186      0.2028
     96  C         12.6630  -18.6470   -2.6080 C.2   186  THR186      0.2642
     97  O         13.1050  -19.4760   -3.3810 O.2   186  THR186     -0.2714
     98  CB        14.7230  -18.7240   -1.1480 C.3   186  THR186      0.1808
     99  OG1       14.1280  -19.6310   -0.2240 O.3   186  THR186     -0.2208
    100  CG2       15.7980  -17.8980   -0.4480 C.3   186  THR186      0.0379
    101  N         11.3590  -18.4070   -2.4550 N.am  187  CYS187     -0.1953
    102  CA        10.3130  -19.0880   -3.2240 C.3   187  CYS187      0.1843
    103  C          9.3230  -18.0710   -3.7520 C.2   187  CYS187      0.2625
    104  O          9.1780  -16.9880   -3.1950 O.2   187  CYS187     -0.2714
    105  CB         9.5330  -20.0870   -2.3620 C.3   187  CYS187      0.0997
    106  SG        10.4950  -21.3150   -1.4420 S.3   187  CYS187     -0.0797
    107  N          8.6380  -18.4140   -4.8320 N.am  188  ARG188     -0.1977
    108  CA         7.4120  -17.6970   -5.1650 C.3   188  ARG188      0.1597
    109  C          6.2200  -18.5400   -4.7670 C.2   188  ARG188      0.2287
    110  O          6.1310  -19.6990   -5.1680 O.2   188  ARG188     -0.2864
    111  CB         7.3400  -17.3310   -6.6400 C.3   188  ARG188      0.0334
    112  CG         8.1820  -16.1010   -6.9850 C.3   188  ARG188      0.0492
    113  CD         8.0010  -15.6680   -8.4250 C.3   188  ARG188      0.2205
    114  NE         8.7950  -14.4610   -8.6690 N.pl3 188  ARG188     -0.0865
    115  CZ        10.0070  -14.4420   -9.2070 C.cat 188  ARG188      0.5346
    116  NH1       10.5870  -15.5560   -9.6420 N.pl3 188  ARG188      0.1354
    117  NH2       10.6350  -13.2910   -9.3560 N.pl3 188  ARG188      0.1354
    118  N          9.6680   -6.7480   -3.7470 N.3   204  ARG204     -0.1245
    119  CA        10.3060   -6.4180   -5.0250 C.3   204  ARG204      0.1563
    120  C          9.4710   -5.3870   -5.7870 C.2   204  ARG204      0.2260
    121  O         10.0190   -4.4080   -6.2870 O.2   204  ARG204     -0.2867
    122  CB        10.5120   -7.6470   -5.9160 C.3   204  ARG204      0.0307
    123  CG        11.7250   -8.4890   -5.5670 C.3   204  ARG204      0.0489
    124  CD        11.8450   -9.6750   -6.5270 C.3   204  ARG204      0.2205
    125  NE        12.7980  -10.6640   -6.0060 N.pl3 204  ARG204     -0.0865
    126  CZ        12.4810  -11.8720   -5.5300 C.cat 204  ARG204      0.5346
    127  NH1       13.4490  -12.6660   -5.0720 N.pl3 204  ARG204      0.1354
    128  NH2       11.2210  -12.3060   -5.5090 N.pl3 204  ARG204      0.1354
@<TRIPOS>BOND
     1    35    34    2
     2    34    33    1
     3    31    30    2
     4    33    36    1
     5    33    32    1
     6    36    37    1
     7    49    48    1
     8    30    32   am
     9    30    29    1
    10    23    24    1
    11    23    22    1
    12    46    48   ar
    13    46    44   ar
    14    48    47   ar
    15    24    25    2
    16    20    19    2
    17    28    29    1
    18    25    26    1
    19    25    27    1
    20    21    22    1
    21    21    18    1
    22    44    43   ar
    23    47    45   ar
    24    19    18    1
    25    53    52    2
    26    52    51    1
    27    18    17    1
    28    43    45   ar
    29    43    42    1
    30    38    39    1
    31    39    42    1
    32    39    40    1
    33    13    12    2
    34    40    41    2
    35    51    50    1
    36    51    54    1
    37    15    14    1
    38    14    11    1
    39    14    16    1
    40    65    63   ar
    41    12    11    1
    42    54    55    1
    43   116   115    1
    44    62    63    1
    45    62    59    1
    46    11    10    1
    47   117   115    1
    48     4     3    2
    49    63    64   ar
    50   115   114    2
    51   114   113    1
    52    55    56   ar
    53    55    57   ar
    54   113   112    1
    55    59    58    1
    56    59    60    1
    57     3     2    1
    58     1     2    1
    59     5     2    1
    60     5     6    1
    61    69    68    2
    62    60    66   am
    63    60    61    2
    64    66    67    1
    65   112   111    1
    66   111   108    1
    67     9     7   ar
    68   124   125    1
    69   124   123    1
    70   121   120    2
    71    68    67    1
    72    68    77   am
    73   125   126    2
    74     6     7    1
    75    75    73   ar
    76    75    76   ar
    77     7     8   ar
    78   122   123    1
    79   122   119    1
    80    67    70    1
    81   120   119    1
    82    73    71   ar
    83   126   128    1
    84   126   127    1
    85    76    74   ar
    86    82    81    1
    87    82    83    1
    88    78    81    1
    89    78    77    1
    90    78    79    1
    91   110   109    2
    92   108   107    1
    93   108   109    1
    94   119   118    1
    95    71    70    1
    96    71    72   ar
    97   107   103   am
    98    74    72   ar
    99    83    84    1
   100    79    80    2
   101   103   102    1
   102   103   104    2
   103    97    96    2
   104    84    85    1
   105   102   101    1
   106   102   105    1
   107    96   101   am
   108    96    95    1
   109   105   106    1
   110    89    88    2
   111    95    98    1
   112    95    94    1
   113    98   100    1
   114    98    99    1
   115    88    94   am
   116    88    87    1
   117    87    86    1
   118    87    90    1
   119    90    91    1
   120    91    93   ar
   121    91    92   ar
