@<TRIPOS>MOLECULE
tmp/4o82A00.pdb
 142 133 0 0 0
SMALL
GASTEIGER

@<TRIPOS>ATOM
      1  N        -23.8630  -35.4140   13.0900 N.3    75  GLU75      -0.1245
      2  CA       -22.9770  -34.3680   12.5700 C.3    75  GLU75       0.1567
      3  C        -23.6750  -33.7960   11.3710 C.2    75  GLU75       0.2260
      4  O        -24.0300  -34.5390   10.4450 O.2    75  GLU75      -0.2867
      5  CB       -21.6580  -34.9330   12.0720 C.3    75  GLU75       0.0388
      6  CG       -20.8010  -35.5840   13.1250 C.3    75  GLU75       0.1160
      7  CD       -19.5900  -36.2580   12.5140 C.2    75  GLU75       0.3649
      8  OE1      -19.5540  -36.4150   11.2620 O.co2  75  GLU75      -0.2457
      9  OE2      -18.6820  -36.6330   13.2890 O.co2  75  GLU75      -0.2457
     10  N        -23.1420  -31.4620    8.3540 N.3    77  VAL77      -0.1245
     11  CA       -22.0650  -30.8880    7.5770 C.3    77  VAL77       0.1561
     12  C        -22.5900  -29.9990    6.4590 C.2    77  VAL77       0.2260
     13  O        -23.4500  -30.4100    5.6930 O.2    77  VAL77      -0.2867
     14  CB       -21.0770  -31.9790    7.0570 C.3    77  VAL77       0.0252
     15  CG1      -19.9660  -31.3640    6.2190 C.3    77  VAL77       0.0019
     16  CG2      -20.4500  -32.7480    8.2340 C.3    77  VAL77       0.0019
     17  N        -21.2860  -27.5490    3.1800 N.3    79  ARG79      -0.1245
     18  CA       -20.1670  -27.5120    2.2610 C.3    79  ARG79       0.1563
     19  C        -20.4210  -26.4920    1.1600 C.2    79  ARG79       0.2260
     20  O        -21.4310  -26.5630    0.4530 O.2    79  ARG79      -0.2867
     21  CB       -19.8810  -28.9120    1.6650 C.3    79  ARG79       0.0307
     22  CG       -20.0120  -30.0400    2.6860 C.3    79  ARG79       0.0489
     23  CD       -19.6770  -31.4180    2.1330 C.3    79  ARG79       0.2205
     24  NE       -18.2430  -31.6000    2.1070 N.pl3  79  ARG79      -0.0865
     25  CZ       -17.5680  -32.5650    2.7270 C.cat  79  ARG79       0.5346
     26  NH1      -18.1800  -33.5120    3.4080 N.pl3  79  ARG79       0.1354
     27  NH2      -16.2570  -32.5910    2.6340 N.pl3  79  ARG79       0.1354
     28  N        -13.9250  -35.5100    1.8240 N.3    85  SER85      -0.1217
     29  CA       -14.7050  -36.6780    1.4280 C.3    85  SER85       0.1889
     30  C        -15.7290  -36.3900    0.3180 C.2    85  SER85       0.2288
     31  O        -16.2070  -37.3260   -0.3430 O.2    85  SER85      -0.2866
     32  CB       -15.4190  -37.2790    2.6450 C.3    85  SER85       0.2089
     33  OG       -16.5560  -36.5020    3.0140 O.3    85  SER85      -0.2183
     34  N        -24.6420  -37.0580    9.0510 N.3   106  TYR106     -0.1241
     35  CA       -23.8900  -38.2210    9.4130 C.3   106  TYR106      0.1605
     36  C        -24.3810  -38.6930   10.7500 C.2   106  TYR106      0.2264
     37  O        -24.6800  -37.8720   11.6340 O.2   106  TYR106     -0.2867
     38  CB       -22.4170  -37.8830    9.5440 C.3   106  TYR106      0.0534
     39  CG       -21.7640  -37.5530    8.2460 C.ar  106  TYR106     -0.0201
     40  CD1      -21.0710  -38.5260    7.5370 C.ar  106  TYR106     -0.0009
     41  CD2      -21.8550  -36.2530    7.7090 C.ar  106  TYR106     -0.0009
     42  CE1      -20.4600  -38.2140    6.3220 C.ar  106  TYR106      0.0417
     43  CE2      -21.2580  -35.9360    6.4980 C.ar  106  TYR106      0.0417
     44  CZ       -20.5500  -36.9130    5.8250 C.ar  106  TYR106      0.1957
     45  OH       -19.9940  -36.6140    4.6310 O.3   106  TYR106     -0.2866
     46  N        -23.7750  -39.9340   14.2690 N.3   108  LYS108     -0.1245
     47  CA       -22.7010  -39.8370   15.2500 C.3   108  LYS108      0.1561
     48  C        -22.5380  -41.1820   15.9410 C.2   108  LYS108      0.2260
     49  O        -23.3850  -41.5670   16.7490 O.2   108  LYS108     -0.2867
     50  CB       -22.9910  -38.7180   16.2450 C.3   108  LYS108      0.0271
     51  CG       -21.7610  -37.9130   16.6400 C.3   108  LYS108      0.0035
     52  CD       -22.1190  -36.8060   17.6350 C.3   108  LYS108      0.0206
     53  CE       -20.9690  -36.5280   18.5880 C.3   108  LYS108      0.1093
     54  NZ       -19.7300  -36.1560   17.8470 N.3   108  LYS108     -0.1314
     55  N        -18.9390  -42.8610   11.9070 N.3   114  ASP114     -0.1239
     56  CA       -19.7970  -41.7160   11.4590 C.3   114  ASP114      0.1674
     57  C        -20.2880  -41.7990   10.0110 C.2   114  ASP114      0.2266
     58  O        -19.9080  -40.9940    9.1790 O.2   114  ASP114     -0.2867
     59  CB       -19.0860  -40.3650   11.6710 C.3   114  ASP114      0.1410
     60  CG       -18.6820  -40.1330   13.1210 C.2   114  ASP114      0.3668
     61  OD1      -19.4690  -40.4670   14.0400 O.co2 114  ASP114     -0.2456
     62  OD2      -17.5590  -39.6370   13.3520 O.co2 114  ASP114     -0.2456
     63  N        -15.9990  -25.8950    4.2480 N.3   158  ASP158     -0.1225
     64  CA       -17.0380  -26.7500    4.8020 C.3   158  ASP158      0.1805
     65  C        -16.8820  -26.6820    6.3140 C.2   158  ASP158      0.2598
     66  O        -15.8940  -26.0930    6.8120 O.2   158  ASP158     -0.2718
     67  CB       -16.9500  -28.1960    4.2720 C.3   158  ASP158      0.1424
     68  CG       -15.5630  -28.7990    4.4300 C.2   158  ASP158      0.3668
     69  OD1      -14.9980  -28.7360    5.5320 O.co2 158  ASP158     -0.2456
     70  OD2      -15.0220  -29.3250    3.4510 O.co2 158  ASP158     -0.2456
     71  N        -17.8550  -27.2440    7.0310 N.am  159  PHE159     -0.1962
     72  CA       -17.8210  -27.2940    8.4810 C.3   159  PHE159      0.1771
     73  C        -18.8750  -28.2480    9.0430 C.2   159  PHE159      0.2619
     74  O        -19.8100  -28.6040    8.3390 O.2   159  PHE159     -0.2715
     75  CB       -17.9190  -25.8820    9.1000 C.3   159  PHE159      0.0574
     76  CG       -19.2320  -25.1970    8.8940 C.ar  159  PHE159     -0.0200
     77  CD1      -20.1030  -25.0240    9.9540 C.ar  159  PHE159     -0.0042
     78  CD2      -19.5930  -24.7040    7.6480 C.ar  159  PHE159     -0.0042
     79  CE1      -21.3270  -24.3810    9.7780 C.ar  159  PHE159     -0.0003
     80  CE2      -20.8150  -24.0860    7.4700 C.ar  159  PHE159     -0.0003
     81  CZ       -21.6880  -23.9260    8.5320 C.ar  159  PHE159     -0.0000
     82  N        -18.6950  -28.6680   10.2980 N.am  160  LYS160     -0.1977
     83  CA       -19.5920  -29.6200   10.9550 C.3   160  LYS160      0.1596
     84  C        -20.2660  -28.9460   12.1440 C.2   160  LYS160      0.2287
     85  O        -19.6230  -28.2670   12.9030 O.2   160  LYS160     -0.2864
     86  CB       -18.8490  -30.8670   11.4590 C.3   160  LYS160      0.0298
     87  CG       -19.7120  -31.8030   12.3170 C.3   160  LYS160      0.0038
     88  CD       -19.0420  -32.3980   13.5580 C.3   160  LYS160      0.0206
     89  CE       -18.2580  -31.4270   14.4280 C.3   160  LYS160      0.1093
     90  NZ       -18.5330  -31.6390   15.8680 N.3   160  LYS160     -0.1314
     91  N        -10.8740  -26.6470   14.2950 N.3   180  ASP180     -0.1225
     92  CA       -10.9870  -28.0940   14.4470 C.3   180  ASP180      0.1805
     93  C        -12.1860  -28.6790   13.6840 C.2   180  ASP180      0.2598
     94  O        -12.1690  -29.8420   13.2580 O.2   180  ASP180     -0.2718
     95  CB       -11.0930  -28.4650   15.9340 C.3   180  ASP180      0.1424
     96  CG        -9.7340  -28.5650   16.6160 C.2   180  ASP180      0.3668
     97  OD1       -9.6650  -29.1340   17.7190 O.co2 180  ASP180     -0.2456
     98  OD2       -8.7280  -28.0910   16.0460 O.co2 180  ASP180     -0.2456
     99  N        -13.2280  -27.8690   13.5220 N.am  181  THR181     -0.1939
    100  CA       -14.4960  -28.3550   12.9920 C.3   181  THR181      0.2028
    101  C        -14.9550  -27.6780   11.6910 C.2   181  THR181      0.2642
    102  O        -16.0800  -27.8890   11.2520 O.2   181  THR181     -0.2714
    103  CB       -15.5980  -28.2180   14.0450 C.3   181  THR181      0.1808
    104  OG1      -15.7450  -26.8460   14.3730 O.3   181  THR181     -0.2208
    105  CG2      -15.2390  -29.0430   15.3130 C.3   181  THR181      0.0379
    106  N        -14.0750  -26.8740   11.0990 N.am  182  CYS182     -0.1953
    107  CA       -14.3110  -26.2200    9.8000 C.3   182  CYS182      0.1843
    108  C        -13.0590  -26.3070    8.9530 C.2   182  CYS182      0.2625
    109  O        -11.9490  -26.4080    9.4840 O.2   182  CYS182     -0.2714
    110  CB       -14.5940  -24.7110    9.9450 C.3   182  CYS182      0.0997
    111  SG       -15.6000  -24.1630   11.3300 S.3   182  CYS182     -0.0797
    112  N        -13.2420  -26.2390    7.6370 N.am  183  ARG183     -0.1977
    113  CA       -12.1450  -25.9910    6.7370 C.3   183  ARG183      0.1597
    114  C        -12.1570  -24.5170    6.3470 C.2   183  ARG183      0.2287
    115  O        -13.1130  -24.0250    5.7140 O.2   183  ARG183     -0.2864
    116  CB       -12.1940  -26.8860    5.4980 C.3   183  ARG183      0.0334
    117  CG       -11.8410  -28.3510    5.7480 C.3   183  ARG183      0.0492
    118  CD       -11.5700  -29.1150    4.4450 C.3   183  ARG183      0.2205
    119  NE       -11.1250  -30.4860    4.7200 N.pl3 183  ARG183     -0.0865
    120  CZ       -11.9340  -31.5550    4.7660 C.cat 183  ARG183      0.5346
    121  NH1      -13.2420  -31.4630    4.5170 N.pl3 183  ARG183      0.1354
    122  NH2      -11.4210  -32.7450    5.0560 N.pl3 183  ARG183      0.1354
    123  N         -7.4390  -27.6630   10.9960 N.3   195  LYS195     -0.1245
    124  CA        -6.8870  -28.9310   11.4290 C.3   195  LYS195      0.1561
    125  C         -6.2420  -29.7590   10.3030 C.2   195  LYS195      0.2260
    126  O         -5.4870  -30.6890   10.5840 O.2   195  LYS195     -0.2867
    127  CB        -7.9640  -29.7530   12.1550 C.3   195  LYS195      0.0271
    128  CG        -7.4240  -30.8320   13.0810 C.3   195  LYS195      0.0035
    129  CD        -8.5290  -31.3620   13.9880 C.3   195  LYS195      0.0206
    130  CE        -8.3010  -32.8150   14.3860 C.3   195  LYS195      0.1093
    131  NZ        -9.3380  -33.2890   15.3650 N.3   195  LYS195     -0.1314
    132  N         -3.6430  -32.8180   10.1800 N.3   199  ARG199     -0.1245
    133  CA        -4.0210  -34.1130    9.5920 C.3   199  ARG199      0.1563
    134  C         -3.0350  -34.5750    8.5370 C.2   199  ARG199      0.2260
    135  O         -2.7220  -35.7610    8.4420 O.2   199  ARG199     -0.2867
    136  CB        -5.4060  -34.0390    8.9510 C.3   199  ARG199      0.0307
    137  CG        -6.5620  -34.0290    9.9330 C.3   199  ARG199      0.0489
    138  CD        -7.8910  -34.1770    9.2120 C.3   199  ARG199      0.2205
    139  NE        -8.9820  -33.8140   10.1020 N.pl3 199  ARG199     -0.0865
    140  CZ        -9.6010  -32.6400   10.0990 C.cat 199  ARG199      0.5346
    141  NH1      -10.5780  -32.4140   10.9630 N.pl3 199  ARG199      0.1354
    142  NH2       -9.2550  -31.6960    9.2330 N.pl3 199  ARG199      0.1354
@<TRIPOS>BOND
     1    31    30    2
     2    30    29    1
     3    20    19    2
     4    19    18    1
     5    29    28    1
     6    29    32    1
     7    21    18    1
     8    21    22    1
     9    24    23    1
    10    24    25    2
    11    23    22    1
    12    18    17    1
    13    27    25    1
    14    32    33    1
    15    25    26    1
    16    70    68   ar
    17    63    64    1
    18    67    68    1
    19    67    64    1
    20    68    69   ar
    21   118   119    1
    22   118   117    1
    23   121   120    1
    24    45    44    1
    25   119   120    2
    26   120   122    1
    27    64    65    1
    28   116   117    1
    29   116   113    1
    30    13    12    2
    31   115   114    2
    32    44    42   ar
    33    44    43   ar
    34    15    14    1
    35    65    66    2
    36    65    71   am
    37    42    40   ar
    38   114   113    1
    39    12    11    1
    40    43    41   ar
    41   113   112    1
    42    71    72    1
    43    14    11    1
    44    14    16    1
    45    80    78   ar
    46    80    81   ar
    47    40    39   ar
    48    11    10    1
    49   112   108   am
    50    78    76   ar
    51    41    39   ar
    52    39    38    1
    53    74    73    2
    54   135   134    2
    55    72    73    1
    56    72    75    1
    57    81    79   ar
    58   134   133    1
    59    76    75    1
    60    76    77   ar
    61   136   133    1
    62   136   137    1
    63   108   109    2
    64   108   107    1
    65    73    82   am
    66    34    35    1
    67    58    57    2
    68   138   137    1
    69   138   139    1
    70   142   140    1
    71    35    38    1
    72    35    36    1
    73   133   132    1
    74    79    77   ar
    75   107   110    1
    76   107   106    1
    77   110   111    1
    78    57    56    1
    79   140   139    2
    80   140   141    1
    81    82    83    1
    82   125   126    2
    83   125   124    1
    84     4     3    2
    85    36    37    2
    86    83    86    1
    87    83    84    1
    88   123   124    1
    89   106   101   am
    90   102   101    2
    91     8     7   ar
    92     3     2    1
    93   124   127    1
    94    56    59    1
    95    56    55    1
    96    86    87    1
    97    59    60    1
    98   101   100    1
    99     5     2    1
   100     5     6    1
   101    84    85    2
   102   127   128    1
   103    87    88    1
   104     7     6    1
   105     7     9   ar
   106     2     1    1
   107   100    99    1
   108   100   103    1
   109   128   129    1
   110    60    62   ar
   111    60    61   ar
   112    94    93    2
   113    99    93   am
   114    88    89    1
   115    93    92    1
   116   129   130    1
   117   103   104    1
   118   103   105    1
   119    46    47    1
   120    91    92    1
   121   130   131    1
   122    89    90    1
   123    92    95    1
   124    47    48    1
   125    47    50    1
   126    95    96    1
   127    48    49    2
   128    98    96   ar
   129    50    51    1
   130    96    97   ar
   131    51    52    1
   132    52    53    1
   133    54    53    1
