@<TRIPOS>MOLECULE
tmp/4o83A00.pdb
 105 99 0 0 0
SMALL
GASTEIGER

@<TRIPOS>ATOM
      1  N         36.8850    6.3010  -22.6420 N.3     1  ALA1       -0.1231
      2  CA        37.4300    4.9110  -22.6520 C.3     1  ALA1        0.1694
      3  C         36.5710    3.9260  -23.4570 C.2     1  ALA1        0.2592
      4  O         36.9660    2.7750  -23.6470 O.2     1  ALA1       -0.2718
      5  CB        37.6520    4.4130  -21.2350 C.3     1  ALA1        0.0304
      6  N         35.4080    4.3870  -23.9210 N.am    2  LYS2       -0.1966
      7  CA        34.5710    3.6400  -24.8760 C.3     2  LYS2        0.1728
      8  C         34.1950    4.5200  -26.0660 C.2     2  LYS2        0.2616
      9  O         34.0550    5.7400  -25.9340 O.2     2  LYS2       -0.2715
     10  CB        33.2750    3.0890  -24.2340 C.3     2  LYS2        0.0311
     11  CG        33.4870    2.1580  -23.0530 C.3     2  LYS2        0.0038
     12  CD        32.2160    1.4070  -22.6580 C.3     2  LYS2        0.0206
     13  CE        31.1170    2.3150  -22.1170 C.3     2  LYS2        0.1093
     14  NZ        31.5710    3.1920  -21.0080 N.3     2  LYS2       -0.1314
     15  N         34.0210    3.8930  -27.2240 N.am    3  LYS3       -0.1977
     16  CA        33.4790    4.5860  -28.3880 C.3     3  LYS3        0.1596
     17  C         32.1820    3.8970  -28.8120 C.2     3  LYS3        0.2287
     18  O         32.1510    2.6740  -28.9730 O.2     3  LYS3       -0.2864
     19  CB        34.4990    4.6020  -29.5250 C.3     3  LYS3        0.0298
     20  CG        35.7430    5.3900  -29.2110 C.3     3  LYS3        0.0038
     21  CD        36.6010    5.4980  -30.4590 C.3     3  LYS3        0.0206
     22  CE        37.7400    6.4680  -30.1780 C.3     3  LYS3        0.1093
     23  NZ        37.2830    7.9020  -30.0220 N.3     3  LYS3       -0.1314
     24  N         24.0300   -0.6040  -31.7950 N.3    11  LEU11      -0.1245
     25  CA        25.3040    0.0600  -31.9350 C.3    11  LEU11       0.1561
     26  C         26.4730   -0.8050  -31.4650 C.2    11  LEU11       0.2260
     27  O         26.2940   -1.8610  -30.8370 O.2    11  LEU11      -0.2867
     28  CB        25.2770    1.4330  -31.2490 C.3    11  LEU11       0.0270
     29  CG        24.9880    1.5510  -29.7610 C.3    11  LEU11       0.0019
     30  CD1       26.3150    1.5210  -29.0420 C.3    11  LEU11       0.0001
     31  CD2       24.2540    2.8510  -29.4720 C.3    11  LEU11       0.0001
     32  N         21.4210   -4.5130  -22.3780 N.3    55  HIS55      -0.1241
     33  CA        21.5460   -4.0770  -23.7610 C.3    55  HIS55       0.1621
     34  C         22.4070   -5.0030  -24.5880 C.2    55  HIS55       0.2264
     35  O         22.4990   -4.8450  -25.8020 O.2    55  HIS55      -0.2867
     36  CB        22.0250   -2.6300  -23.8450 C.3    55  HIS55       0.0745
     37  CG        23.4650   -2.4130  -23.4180 C.ar   55  HIS55       0.0817
     38  ND1       24.1580   -1.3230  -23.7730 N.ar   55  HIS55      -0.2268
     39  CD2       24.3300   -3.1940  -22.6510 C.ar   55  HIS55       0.1154
     40  CE1       25.3950   -1.3800  -23.2500 C.ar   55  HIS55       0.1986
     41  NE2       25.4950   -2.5220  -22.5500 N.ar   55  HIS55      -0.2212
     42  N         25.3750   -3.8440  -29.0030 N.3    67  VAL67      -0.1231
     43  CA        24.3780   -3.5760  -27.9840 C.3    67  VAL67       0.1692
     44  C         23.1750   -2.8890  -28.6130 C.2    67  VAL67       0.2592
     45  O         23.2840   -2.2250  -29.6570 O.2    67  VAL67      -0.2718
     46  CB        24.9380   -2.7320  -26.8090 C.3    67  VAL67       0.0266
     47  CG1       26.0520   -3.4850  -26.0860 C.3    67  VAL67       0.0020
     48  CG2       25.4150   -1.3620  -27.2910 C.3    67  VAL67       0.0020
     49  N         22.0180   -3.0830  -27.9940 N.am   68  GLU68      -0.1966
     50  CA        20.8130   -2.4350  -28.4700 C.3    68  GLU68       0.1733
     51  C         20.7870   -0.9720  -28.0470 C.2    68  GLU68       0.2616
     52  O         21.1970   -0.6290  -26.9340 O.2    68  GLU68      -0.2715
     53  CB        19.5600   -3.1950  -28.0470 C.3    68  GLU68       0.0429
     54  CG        19.2130   -3.1590  -26.5770 C.3    68  GLU68       0.1163
     55  CD        17.8380   -3.7490  -26.3060 C.2    68  GLU68       0.3649
     56  OE1       17.7310   -4.6270  -25.4240 O.co2  68  GLU68      -0.2457
     57  OE2       16.8670   -3.3490  -26.9850 O.co2  68  GLU68      -0.2457
     58  N         20.3430   -0.1190  -28.9680 N.am   69  LYS69      -0.1963
     59  CA        20.3300    1.3170  -28.7310 C.3    69  LYS69       0.1728
     60  C         19.1510    1.6420  -27.8260 C.2    69  LYS69       0.2616
     61  O         18.0400    1.1610  -28.0340 O.2    69  LYS69      -0.2715
     62  CB        20.2830    2.1090  -30.0460 C.3    69  LYS69       0.0311
     63  CG        20.5820    3.5880  -29.8730 C.3    69  LYS69       0.0038
     64  CD        20.8970    4.2550  -31.2160 C.3    69  LYS69       0.0206
     65  CE        21.2370    5.7210  -31.0140 C.3    69  LYS69       0.1093
     66  NZ        21.4210    6.4500  -32.3000 N.3    69  LYS69      -0.1314
     67  N         19.4260    2.4300  -26.7950 N.am   70  LEU70      -0.1977
     68  CA        18.4270    2.7500  -25.7910 C.3    70  LEU70       0.1596
     69  C         18.2260    4.2560  -25.6750 C.2    70  LEU70       0.2287
     70  O         19.1210    5.0520  -26.0100 O.2    70  LEU70      -0.2864
     71  CB        18.8420    2.1710  -24.4260 C.3    70  LEU70       0.0297
     72  CG        19.0330    0.6610  -24.3080 C.3    70  LEU70       0.0022
     73  CD1       19.5930    0.3380  -22.9450 C.3    70  LEU70       0.0001
     74  CD2       17.7210   -0.0820  -24.5430 C.3    70  LEU70       0.0001
     75  N         23.7060   12.4300  -14.2830 N.3   108  LYS108     -0.1245
     76  CA        24.8040   12.2670  -15.2190 C.3   108  LYS108      0.1561
     77  C         24.9690   13.5610  -15.9830 C.2   108  LYS108      0.2260
     78  O         24.1740   13.8570  -16.8690 O.2   108  LYS108     -0.2867
     79  CB        24.5280   11.0840  -16.1440 C.3   108  LYS108      0.0271
     80  CG        25.7260   10.5840  -16.9310 C.3   108  LYS108      0.0035
     81  CD        25.3520    9.3440  -17.7470 C.3   108  LYS108      0.0206
     82  CE        26.4570    8.9440  -18.7030 C.3   108  LYS108      0.1093
     83  NZ        27.7020    8.5760  -17.9740 N.3   108  LYS108     -0.1314
     84  N         24.1600    2.0660  -15.4230 N.3   162  GLU162     -0.1245
     85  CA        23.3450    2.9610  -16.2220 C.3   162  GLU162      0.1567
     86  C         22.2270    2.1670  -16.8950 C.2   162  GLU162      0.2260
     87  O         22.3830    0.9620  -17.1870 O.2   162  GLU162     -0.2867
     88  CB        24.1910    3.7030  -17.2710 C.3   162  GLU162      0.0388
     89  CG        25.4240    4.3610  -16.6650 C.3   162  GLU162      0.1160
     90  CD        26.1660    5.3100  -17.5920 C.2   162  GLU162      0.3649
     91  OE1       25.6430    5.6760  -18.6680 O.co2 162  GLU162     -0.2457
     92  OE2       27.2810    5.7160  -17.2120 O.co2 162  GLU162     -0.2457
     93  N         22.4360   -1.0080  -19.1380 N.3   174  ALA174     -0.1231
     94  CA        23.2550   -0.5550  -20.2480 C.3   174  ALA174      0.1694
     95  C         24.7280   -0.3560  -19.8780 C.2   174  ALA174      0.2592
     96  O         25.2100   -0.8910  -18.8790 O.2   174  ALA174     -0.2718
     97  CB        22.6790    0.7420  -20.7970 C.3   174  ALA174      0.0304
     98  N         25.4200    0.4230  -20.7090 N.am  175  ASP175     -0.1974
     99  CA        26.8270    0.7970  -20.5210 C.3   175  ASP175      0.1709
    100  C         27.7590   -0.4100  -20.3470 C.2   175  ASP175      0.2293
    101  O         27.6930   -1.3490  -21.1220 O.2   175  ASP175     -0.2864
    102  CB        26.9650    1.7940  -19.3620 C.3   175  ASP175      0.1436
    103  CG        28.2110    2.6190  -19.4590 C.2   175  ASP175      0.3671
    104  OD1       29.0470    2.5540  -18.5420 O.co2 175  ASP175     -0.2456
    105  OD2       28.3630    3.3370  -20.4530 O.co2 175  ASP175     -0.2456
@<TRIPOS>BOND
     1    66    65    1
     2    25    24    1
     3    25    26    1
     4    25    28    1
     5    26    27    2
     6    28    29    1
     7    64    65    1
     8    64    63    1
     9    21    22    1
    10    21    20    1
    11    22    23    1
    12    62    63    1
    13    62    59    1
    14    29    31    1
    15    29    30    1
    16    45    44    2
    17    19    20    1
    18    19    16    1
    19    42    43    1
    20    18    17    2
    21    58    59    1
    22    58    51   am
    23    17    16    1
    24    59    60    1
    25    44    49   am
    26    44    43    1
    27    50    53    1
    28    50    51    1
    29    50    49    1
    30    16    15    1
    31    53    54    1
    32    51    52    2
    33    61    60    2
    34    43    46    1
    35    60    67   am
    36    48    46    1
    37    15     8   am
    38    57    55   ar
    39    46    47    1
    40    67    68    1
    41    54    55    1
    42    55    56   ar
    43     8     9    2
    44     8     7    1
    45    70    69    2
    46    35    34    2
    47    68    69    1
    48    68    71    1
    49     7    10    1
    50     7     6    1
    51    34    33    1
    52    74    72    1
    53    71    72    1
    54    72    73    1
    55    10    11    1
    56     6     3   am
    57    36    33    1
    58    36    37    1
    59    38    37   ar
    60    38    40   ar
    61    33    32    1
    62     4     3    2
    63     3     2    1
    64    37    39   ar
    65    40    41   ar
    66    11    12    1
    67    12    13    1
    68     2     1    1
    69     2     5    1
    70    39    41   ar
    71    13    14    1
    72   101   100    2
    73    97    94    1
    74    98    99    1
    75    98    95   am
    76    99   100    1
    77    99   102    1
    78   105   103   ar
    79    94    95    1
    80    94    93    1
    81    95    96    2
    82   103   102    1
    83   103   104   ar
    84    82    83    1
    85    82    81    1
    86    91    90   ar
    87    81    80    1
    88    90    92   ar
    89    90    89    1
    90    88    89    1
    91    88    85    1
    92    87    86    2
    93    80    79    1
    94    86    85    1
    95    78    77    2
    96    85    84    1
    97    79    76    1
    98    77    76    1
    99    76    75    1
