@<TRIPOS>MOLECULE
tmp/4o84B00.pdb
 133 125 0 0 0
SMALL
GASTEIGER

@<TRIPOS>ATOM
      1  N          5.9440  -25.2980    8.8500 N.3    75  GLU75      -0.1245
      2  CA         7.2890  -25.4230    8.3500 C.3    75  GLU75       0.1567
      3  C          7.3910  -24.4490    7.1910 C.2    75  GLU75       0.2260
      4  O          6.5880  -24.4940    6.2550 O.2    75  GLU75      -0.2867
      5  CB         7.5840  -26.8470    7.8870 C.3    75  GLU75       0.0388
      6  CG         7.3490  -27.8720    8.9840 C.3    75  GLU75       0.1160
      7  CD         7.8080  -29.2620    8.6070 C.2    75  GLU75       0.3649
      8  OE1        7.8190  -29.5690    7.3990 O.co2  75  GLU75      -0.2457
      9  OE2        8.1450  -30.0460    9.5260 O.co2  75  GLU75      -0.2457
     10  N          9.7350  -23.3730    4.2440 N.3    77  VAL77      -0.1245
     11  CA        10.8500  -23.8590    3.4430 C.3    77  VAL77       0.1561
     12  C         11.3210  -22.8150    2.4300 C.2    77  VAL77       0.2260
     13  O         10.5140  -22.2720    1.6530 O.2    77  VAL77      -0.2867
     14  CB        10.4740  -25.1700    2.7320 C.3    77  VAL77       0.0252
     15  CG1       11.5590  -25.5780    1.7460 C.3    77  VAL77       0.0019
     16  CG2       10.2350  -26.2770    3.7580 C.3    77  VAL77       0.0019
     17  N         13.9830  -22.2410   -0.7790 N.3    79  ARG79      -0.1245
     18  CA        14.6380  -23.0600   -1.7920 C.3    79  ARG79       0.1563
     19  C         15.3870  -22.1740   -2.7880 C.2    79  ARG79       0.2260
     20  O         14.8130  -21.2250   -3.3470 O.2    79  ARG79      -0.2867
     21  CB        13.6150  -23.9480   -2.5130 C.3    79  ARG79       0.0307
     22  CG        12.5150  -24.5070   -1.6040 C.3    79  ARG79       0.0489
     23  CD        11.6450  -25.5490   -2.2930 C.3    79  ARG79       0.2205
     24  NE        12.3270  -26.8280   -2.4230 N.pl3  79  ARG79      -0.0865
     25  CZ        11.9670  -27.9600   -1.8130 C.cat  79  ARG79       0.5346
     26  NH1       10.9020  -28.0080   -1.0170 N.pl3  79  ARG79       0.1354
     27  NH2       12.6810  -29.0590   -2.0090 N.pl3  79  ARG79       0.1354
     28  N         11.3020  -32.3890   -3.1440 N.3    85  SER85      -0.1217
     29  CA         9.8940  -32.3320   -3.5170 C.3    85  SER85       0.1889
     30  C          9.5780  -31.2770   -4.5730 C.2    85  SER85       0.2288
     31  O          8.5700  -31.3820   -5.2700 O.2    85  SER85      -0.2866
     32  CB         9.0190  -32.1060   -2.2810 C.3    85  SER85       0.2089
     33  OG         9.0110  -30.7350   -1.9540 O.3    85  SER85      -0.2183
     34  N          4.2540  -25.0380    4.8660 N.3   106  TYR106     -0.1241
     35  CA         3.7260  -26.3630    5.1310 C.3   106  TYR106      0.1605
     36  C          2.9930  -26.3390    6.4510 C.2   106  TYR106      0.2264
     37  O          3.4310  -25.6800    7.3880 O.2   106  TYR106     -0.2867
     38  CB         4.8480  -27.4100    5.1380 C.3   106  TYR106      0.0534
     39  CG         5.4370  -27.6280    3.7640 C.ar  106  TYR106     -0.0201
     40  CD1        4.9650  -28.6490    2.9380 C.ar  106  TYR106     -0.0009
     41  CD2        6.4390  -26.7900    3.2730 C.ar  106  TYR106     -0.0009
     42  CE1        5.4860  -28.8450    1.6760 C.ar  106  TYR106      0.0417
     43  CE2        6.9670  -26.9780    2.0050 C.ar  106  TYR106      0.0417
     44  CZ         6.4750  -27.9960    1.2070 C.ar  106  TYR106      0.1957
     45  OH         6.9920  -28.1940   -0.0470 O.3   106  TYR106     -0.2866
     46  N          2.6050  -33.3160    6.8340 N.3   114  ASP114     -0.1239
     47  CA         3.0930  -31.9610    6.5210 C.3   114  ASP114      0.1674
     48  C          2.6910  -31.4440    5.1440 C.2   114  ASP114      0.2266
     49  O          3.5530  -31.2000    4.3190 O.2   114  ASP114     -0.2867
     50  CB         4.6330  -31.8810    6.6300 C.3   114  ASP114      0.1410
     51  CG         5.1420  -32.1850    8.0200 C.2   114  ASP114      0.3668
     52  OD1        4.4140  -31.9810    9.0170 O.co2 114  ASP114     -0.2456
     53  OD2        6.2990  -32.6240    8.0950 O.co2 114  ASP114     -0.2456
     54  N         18.3010  -25.8740   -0.0250 N.3   158  ASP158     -0.1225
     55  CA        17.0160  -25.4810    0.5570 C.3   158  ASP158      0.1805
     56  C         17.1110  -25.6980    2.0630 C.2   158  ASP158      0.2598
     57  O         18.1160  -26.2420    2.5460 O.2   158  ASP158     -0.2718
     58  CB        15.8400  -26.2550   -0.0860 C.3   158  ASP158      0.1424
     59  CG        16.0220  -27.7480   -0.0370 C.2   158  ASP158      0.3668
     60  OD1       16.5120  -28.2450    0.9780 O.co2 158  ASP158     -0.2456
     61  OD2       15.6750  -28.4430   -1.0120 O.co2 158  ASP158     -0.2456
     62  N         16.1060  -25.2450    2.8080 N.am  159  PHE159     -0.1962
     63  CA        16.0810  -25.4620    4.2410 C.3   159  PHE159      0.1771
     64  C         14.7210  -25.1620    4.8520 C.2   159  PHE159      0.2619
     65  O         13.9160  -24.4050    4.2810 O.2   159  PHE159     -0.2715
     66  CB        17.2090  -24.7000    4.9750 C.3   159  PHE159      0.0574
     67  CG        17.0740  -23.2050    4.9470 C.ar  159  PHE159     -0.0200
     68  CD1       16.8280  -22.5070    6.1130 C.ar  159  PHE159     -0.0042
     69  CD2       17.2610  -22.4890    3.7760 C.ar  159  PHE159     -0.0042
     70  CE1       16.7530  -21.1150    6.1100 C.ar  159  PHE159     -0.0003
     71  CE2       17.1610  -21.1030    3.7600 C.ar  159  PHE159     -0.0003
     72  CZ        16.9050  -20.4110    4.9270 C.ar  159  PHE159     -0.0000
     73  N         14.4850  -25.7600    6.0170 N.am  160  LYS160     -0.1977
     74  CA        13.2260  -25.6060    6.7440 C.3   160  LYS160      0.1596
     75  C         13.4400  -24.7440    7.9900 C.2   160  LYS160      0.2287
     76  O         14.3750  -24.9820    8.7650 O.2   160  LYS160     -0.2864
     77  CB        12.6560  -26.9680    7.1650 C.3   160  LYS160      0.0298
     78  CG        11.4330  -26.8600    8.0890 C.3   160  LYS160      0.0038
     79  CD        11.1640  -28.1190    8.9130 C.3   160  LYS160      0.0206
     80  CE        12.3120  -28.5230    9.8330 C.3   160  LYS160      0.1093
     81  NZ        12.2040  -28.0300   11.2320 N.3   160  LYS160     -0.1314
     82  N         20.4700  -31.6060    9.5270 N.3   180  ASP180     -0.1225
     83  CA        19.1830  -32.3140    9.6110 C.3   180  ASP180      0.1805
     84  C         18.0530  -31.5860    8.8730 C.2   180  ASP180      0.2598
     85  O         17.1350  -32.2300    8.3590 O.2   180  ASP180     -0.2718
     86  CB        18.7520  -32.5530   11.0720 C.3   180  ASP180      0.1424
     87  CG        19.2770  -33.8680   11.6340 C.2   180  ASP180      0.3668
     88  OD1       18.7330  -34.3390   12.6440 O.co2 180  ASP180     -0.2456
     89  OD2       20.2290  -34.4320   11.0670 O.co2 180  ASP180     -0.2456
     90  N         18.1240  -30.2600    8.8330 N.am  181  THR181     -0.1939
     91  CA        16.9970  -29.4190    8.3760 C.3   181  THR181      0.2028
     92  C         17.3140  -28.5280    7.1580 C.2   181  THR181      0.2642
     93  O         16.4940  -27.6930    6.7490 O.2   181  THR181     -0.2714
     94  CB        16.4960  -28.5140    9.5130 C.3   181  THR181      0.1808
     95  OG1       17.5860  -27.7050    9.9920 O.3   181  THR181     -0.2208
     96  CG2       15.9150  -29.3450   10.6610 C.3   181  THR181      0.0379
     97  N         18.5110  -28.6970    6.6020 N.am  182  CYS182     -0.1953
     98  CA        18.9460  -27.9530    5.4320 C.3   182  CYS182      0.1843
     99  C         19.4400  -28.9510    4.3960 C.2   182  CYS182      0.2625
    100  O         19.8430  -30.0790    4.7430 O.2   182  CYS182     -0.2714
    101  CB        20.1020  -27.0240    5.7900 C.3   182  CYS182      0.0997
    102  SG        19.8380  -25.8820    7.1700 S.3   182  CYS182     -0.0797
    103  N         19.4260  -28.5400    3.1310 N.am  183  ARG183     -0.1977
    104  CA        20.2070  -29.2390    2.1180 C.3   183  ARG183      0.1597
    105  C         21.4570  -28.4350    1.8250 C.2   183  ARG183      0.2287
    106  O         21.3620  -27.2790    1.4470 O.2   183  ARG183     -0.2864
    107  CB        19.4060  -29.5350    0.8550 C.3   183  ARG183      0.0334
    108  CG        18.5280  -30.7780    0.9640 C.3   183  ARG183      0.0492
    109  CD        17.9550  -31.2320   -0.3730 C.3   183  ARG183      0.2205
    110  NE        17.0130  -32.3460   -0.1690 N.pl3 183  ARG183     -0.0865
    111  CZ        15.6830  -32.2520   -0.2500 C.cat 183  ARG183      0.5346
    112  NH1       15.0780  -31.0990   -0.5530 N.pl3 183  ARG183      0.1354
    113  NH2       14.9440  -33.3220   -0.0250 N.pl3 183  ARG183      0.1354
    114  N         21.3000  -34.5220    5.8690 N.3   195  LYS195     -0.1245
    115  CA        20.5430  -35.7170    6.2070 C.3   195  LYS195      0.1561
    116  C         20.1850  -36.6120    4.9990 C.2   195  LYS195      0.2260
    117  O         19.9070  -37.7950    5.1830 O.2   195  LYS195     -0.2867
    118  CB        19.2870  -35.3660    7.0110 C.3   195  LYS195      0.0271
    119  CG        18.7620  -36.5430    7.8130 C.3   195  LYS195      0.0035
    120  CD        17.8560  -36.1210    8.9600 C.3   195  LYS195      0.0206
    121  CE        16.4250  -36.5200    8.6920 C.3   195  LYS195      0.1093
    122  NZ        15.5700  -36.6710    9.9140 N.3   195  LYS195     -0.1314
    123  N         19.0650  -40.4120    4.5380 N.3   199  ARG199     -0.1245
    124  CA        17.7970  -40.7050    3.8800 C.3   199  ARG199      0.1563
    125  C         17.9410  -41.6810    2.7110 C.2   199  ARG199      0.2260
    126  O         17.0890  -42.5490    2.5170 O.2   199  ARG199     -0.2867
    127  CB        17.1460  -39.4140    3.3910 C.3   199  ARG199      0.0307
    128  CG        16.5350  -38.5560    4.4940 C.3   199  ARG199      0.0489
    129  CD        16.1490  -37.1980    3.9260 C.3   199  ARG199      0.2205
    130  NE        15.5770  -36.3100    4.9330 N.pl3 199  ARG199     -0.0865
    131  CZ        15.7810  -35.0000    4.9780 C.cat 199  ARG199      0.5346
    132  NH1       15.2040  -34.2730    5.9290 N.pl3 199  ARG199      0.1354
    133  NH2       16.5660  -34.4130    4.0880 N.pl3 199  ARG199      0.1354
@<TRIPOS>BOND
     1    31    30    2
     2    30    29    1
     3    29    28    1
     4    29    32    1
     5    20    19    2
     6    19    18    1
     7    21    18    1
     8    21    22    1
     9    24    23    1
    10    24    25    2
    11    23    22    1
    12    32    33    1
    13    27    25    1
    14    25    26    1
    15    18    17    1
    16    61    59   ar
    17   112   111    1
    18   109   110    1
    19   109   108    1
    20   111   110    2
    21   111   113    1
    22    58    59    1
    23    58    55    1
    24    45    44    1
    25    59    60   ar
    26    54    55    1
    27    55    56    1
    28   107   108    1
    29   107   104    1
    30    44    42   ar
    31    44    43   ar
    32   106   105    2
    33    13    12    2
    34    42    40   ar
    35    15    14    1
    36   105   104    1
    37    43    41   ar
    38    56    57    2
    39    56    62   am
    40   104   103    1
    41    12    11    1
    42   126   125    2
    43   125   124    1
    44    14    11    1
    45    14    16    1
    46    62    63    1
    47    40    39   ar
    48   103    99   am
    49    41    39   ar
    50   127   124    1
    51   127   128    1
    52    11    10    1
    53    71    69   ar
    54    71    72   ar
    55    39    38    1
    56    69    67   ar
    57   124   123    1
    58   129   128    1
    59   129   130    1
    60   133   131    1
    61    63    64    1
    62    63    66    1
    63    65    64    2
    64    49    48    2
    65    99   100    2
    66    99    98    1
    67    64    73   am
    68    34    35    1
    69    72    70   ar
    70   130   131    2
    71    67    66    1
    72    67    68   ar
    73   131   132    1
    74   116   117    2
    75   116   115    1
    76    35    38    1
    77    35    36    1
    78    48    47    1
    79    98   101    1
    80    98    97    1
    81   101   102    1
    82   114   115    1
    83    73    74    1
    84    70    68   ar
    85   115   118    1
    86     4     3    2
    87    36    37    2
    88    47    50    1
    89    47    46    1
    90    97    92   am
    91    50    51    1
    92    74    77    1
    93    74    75    1
    94    93    92    2
    95   118   119    1
    96    92    91    1
    97    77    78    1
    98     3     2    1
    99     8     7   ar
   100   119   120    1
   101     5     2    1
   102     5     6    1
   103    75    76    2
   104    51    53   ar
   105    51    52   ar
   106    78    79    1
   107     2     1    1
   108    85    84    2
   109    91    90    1
   110    91    94    1
   111     7     6    1
   112     7     9   ar
   113   121   120    1
   114   121   122    1
   115    90    84   am
   116    84    83    1
   117    79    80    1
   118    94    95    1
   119    94    96    1
   120    82    83    1
   121    83    86    1
   122    80    81    1
   123    89    87   ar
   124    86    87    1
   125    87    88   ar
