@<TRIPOS>MOLECULE
tmp/4o86A00.pdb
 139 133 0 0 0
SMALL
GASTEIGER

@<TRIPOS>ATOM
      1  N         23.3550  -21.9990   -7.4560 N.3    78  GLU78      -0.1245
      2  CA        21.9870  -21.7910   -7.0360 C.3    78  GLU78       0.1567
      3  C         21.1600  -22.5790   -8.0320 C.2    78  GLU78       0.2260
      4  O         21.2980  -22.3910   -9.2460 O.2    78  GLU78      -0.2867
      5  CB        21.6530  -20.3040   -7.0270 C.3    78  GLU78       0.0388
      6  CG        22.4870  -19.5700   -5.9760 C.3    78  GLU78       0.1160
      7  CD        22.0250  -18.1620   -5.6900 C.2    78  GLU78       0.3649
      8  OE1       22.7680  -17.4330   -4.9870 O.co2  78  GLU78      -0.2457
      9  OE2       20.9270  -17.7740   -6.1560 O.co2  78  GLU78      -0.2457
     10  N         17.6200  -23.5560   -9.4270 N.3    80  VAL80      -0.1245
     11  CA        16.2850  -23.0170   -9.4910 C.3    80  VAL80       0.1561
     12  C         15.3400  -24.0320  -10.1660 C.2    80  VAL80       0.2260
     13  O         15.6260  -24.5310  -11.2570 O.2    80  VAL80      -0.2867
     14  CB        16.2690  -21.6490  -10.2200 C.3    80  VAL80       0.0252
     15  CG1       14.8390  -21.1770  -10.4150 C.3    80  VAL80       0.0019
     16  CG2       17.0610  -20.5960   -9.4360 C.3    80  VAL80       0.0019
     17  N         11.3450  -24.5170  -11.5410 N.3    82  ARG82      -0.1245
     18  CA        10.2470  -23.6450  -11.9580 C.3    82  ARG82       0.1563
     19  C          9.0320  -24.4360  -12.4670 C.2    82  ARG82       0.2260
     20  O          9.1670  -25.2840  -13.3620 O.2    82  ARG82      -0.2867
     21  CB        10.7410  -22.6320  -13.0150 C.3    82  ARG82       0.0307
     22  CG        12.2180  -22.2330  -12.8550 C.3    82  ARG82       0.0489
     23  CD        12.6510  -21.1290  -13.8110 C.3    82  ARG82       0.2205
     24  NE        12.0630  -19.8580  -13.4330 N.pl3  82  ARG82      -0.0865
     25  CZ        12.7290  -18.7490  -13.1240 C.cat  82  ARG82       0.5346
     26  NH1       14.0670  -18.6920  -13.1720 N.pl3  82  ARG82       0.1354
     27  NH2       12.0290  -17.6740  -12.7740 N.pl3  82  ARG82       0.1354
     28  N          9.1990  -14.0920  -13.1310 N.3    87  GLY87      -0.1210
     29  CA        10.5700  -13.5460  -13.0430 C.3    87  GLY87       0.1956
     30  C         11.4070  -13.6340  -14.3120 C.2    87  GLY87       0.2612
     31  O         10.9150  -13.3710  -15.4160 O.2    87  GLY87      -0.2717
     32  N         12.6640  -14.0520  -14.1670 N.am   88  SER88      -0.1952
     33  CA        13.6070  -14.1140  -15.2970 C.3    88  SER88       0.1924
     34  C         13.2450  -15.1100  -16.3940 C.2    88  SER88       0.2314
     35  O         13.7580  -15.0040  -17.5050 O.2    88  SER88      -0.2863
     36  CB        15.0520  -14.3800  -14.8110 C.3    88  SER88       0.2116
     37  OG        15.2210  -15.7570  -14.4830 O.3    88  SER88      -0.2180
     38  N         22.6600  -21.8290  -11.7140 N.3   109  TYR109     -0.1241
     39  CA        23.2620  -20.5060  -11.6880 C.3   109  TYR109      0.1605
     40  C         24.5990  -20.5800  -10.9670 C.2   109  TYR109      0.2264
     41  O         24.7080  -21.2220   -9.9340 O.2   109  TYR109     -0.2867
     42  CB        22.3230  -19.5080  -11.0030 C.3   109  TYR109      0.0534
     43  CG        21.1200  -19.1620  -11.8450 C.ar  109  TYR109     -0.0201
     44  CD1       21.1720  -18.1190  -12.7740 C.ar  109  TYR109     -0.0009
     45  CD2       19.9330  -19.8800  -11.7150 C.ar  109  TYR109     -0.0009
     46  CE1       20.0700  -17.7920  -13.5460 C.ar  109  TYR109      0.0417
     47  CE2       18.8310  -19.5760  -12.4840 C.ar  109  TYR109      0.0417
     48  CZ        18.9020  -18.5430  -13.4020 C.ar  109  TYR109      0.1957
     49  OH        17.7920  -18.2670  -14.1570 O.3   109  TYR109     -0.2866
     50  N         26.0230  -13.9380  -10.7230 N.3   117  ASP117     -0.1239
     51  CA        25.2770  -15.2020  -10.7770 C.3   117  ASP117      0.1674
     52  C         24.7620  -15.5850  -12.1790 C.2   117  ASP117      0.2266
     53  O         23.5640  -15.7170  -12.3730 O.2   117  ASP117     -0.2867
     54  CB        24.1310  -15.1730   -9.7560 C.3   117  ASP117      0.1410
     55  CG        24.6280  -15.0110   -8.3110 C.2   117  ASP117      0.3668
     56  OD1       25.8490  -15.0110   -8.0530 O.co2 117  ASP117     -0.2456
     57  OD2       23.7870  -14.8880   -7.4100 O.co2 117  ASP117     -0.2456
     58  N          8.0730  -21.1080   -8.3180 N.3   162  ASP162     -0.1225
     59  CA         9.4660  -21.5150   -8.5440 C.3   162  ASP162      0.1805
     60  C         10.1830  -21.3440   -7.2240 C.2   162  ASP162      0.2598
     61  O          9.5700  -20.8700   -6.2640 O.2   162  ASP162     -0.2718
     62  CB        10.1420  -20.6690   -9.6320 C.3   162  ASP162      0.1424
     63  CG        10.0470  -19.1610   -9.3590 C.2   162  ASP162      0.3668
     64  OD1       10.0850  -18.7470   -8.1920 O.co2 162  ASP162     -0.2456
     65  OD2        9.9390  -18.3900  -10.3250 O.co2 162  ASP162     -0.2456
     66  N         11.4560  -21.7340   -7.1620 N.am  163  PHE163     -0.1962
     67  CA        12.2470  -21.5870   -5.9320 C.3   163  PHE163      0.1771
     68  C         13.7120  -21.8720   -6.1950 C.2   163  PHE163      0.2619
     69  O         14.0630  -22.4900   -7.1970 O.2   163  PHE163     -0.2715
     70  CB        11.7190  -22.4950   -4.7950 C.3   163  PHE163      0.0574
     71  CG        11.7450  -23.9740   -5.1150 C.ar  163  PHE163     -0.0200
     72  CD1       12.7770  -24.7830   -4.6440 C.ar  163  PHE163     -0.0042
     73  CD2       10.7360  -24.5590   -5.8770 C.ar  163  PHE163     -0.0042
     74  CE1       12.8080  -26.1450   -4.9190 C.ar  163  PHE163     -0.0003
     75  CE2       10.7640  -25.9230   -6.1670 C.ar  163  PHE163     -0.0003
     76  CZ        11.8050  -26.7170   -5.6890 C.ar  163  PHE163     -0.0000
     77  N         14.5640  -21.4170   -5.2850 N.am  164  LYS164     -0.1977
     78  CA        16.0020  -21.6320   -5.3890 C.3   164  LYS164      0.1596
     79  C         16.5120  -22.5160   -4.2360 C.2   164  LYS164      0.2287
     80  O         16.1620  -22.3090   -3.0760 O.2   164  LYS164     -0.2864
     81  CB        16.7310  -20.2840   -5.3810 C.3   164  LYS164      0.0298
     82  CG        18.2510  -20.3580   -5.5590 C.3   164  LYS164      0.0038
     83  CD        19.0110  -20.4490   -4.2360 C.3   164  LYS164      0.0206
     84  CE        18.9160  -19.1460   -3.4270 C.3   164  LYS164      0.1093
     85  NZ        19.5190  -19.2620   -2.0570 N.3   164  LYS164     -0.1314
     86  N         11.5380  -15.7130    0.9820 N.3   184  ASP184     -0.1225
     87  CA        12.6460  -15.0260    0.3000 C.3   184  ASP184      0.1805
     88  C         13.1420  -15.7930   -0.9310 C.2   184  ASP184      0.2598
     89  O         13.5360  -15.1930   -1.9290 O.2   184  ASP184     -0.2718
     90  CB        13.8390  -14.8270    1.2510 C.3   184  ASP184      0.1424
     91  CG        13.7780  -13.5080    2.0150 C.2   184  ASP184      0.3668
     92  OD1       14.8320  -13.0680    2.5110 O.co2 184  ASP184     -0.2456
     93  OD2       12.6840  -12.9080    2.1080 O.co2 184  ASP184     -0.2456
     94  N         13.1290  -17.1190   -0.8520 N.am  185  THR185     -0.1939
     95  CA        13.7890  -17.9500   -1.8670 C.3   185  THR185      0.2028
     96  C         12.8140  -18.7950   -2.7060 C.2   185  THR185      0.2642
     97  O         13.2450  -19.6470   -3.4850 O.2   185  THR185     -0.2714
     98  CB        14.9150  -18.8180   -1.2400 C.3   185  THR185      0.1808
     99  OG1       14.3790  -19.6040   -0.1810 O.3   185  THR185     -0.2208
    100  CG2       16.0190  -17.9300   -0.6660 C.3   185  THR185      0.0379
    101  N         11.5100  -18.5360   -2.5460 N.am  186  CYS186     -0.1953
    102  CA        10.4650  -19.1930   -3.3330 C.3   186  CYS186      0.1843
    103  C          9.4290  -18.1900   -3.8090 C.2   186  CYS186      0.2625
    104  O          9.2420  -17.1290   -3.2000 O.2   186  CYS186     -0.2714
    105  CB         9.7100  -20.2470   -2.5140 C.3   186  CYS186      0.0997
    106  SG        10.6730  -21.3720   -1.4940 S.3   186  CYS186     -0.0797
    107  N          8.7540  -18.5320   -4.8990 N.am  187  ARG187     -0.1977
    108  CA         7.5080  -17.8550   -5.2470 C.3   187  ARG187      0.1597
    109  C          6.3260  -18.7040   -4.8100 C.2   187  ARG187      0.2287
    110  O          6.1860  -19.8610   -5.2280 O.2   187  ARG187     -0.2864
    111  CB         7.4450  -17.4870   -6.7350 C.3   187  ARG187      0.0334
    112  CG         8.2300  -16.2150   -7.0710 C.3   187  ARG187      0.0492
    113  CD         8.0780  -15.7770   -8.5280 C.3   187  ARG187      0.2205
    114  NE         8.8710  -14.5730   -8.7820 N.pl3 187  ARG187     -0.0865
    115  CZ        10.0500  -14.5460   -9.3990 C.cat 187  ARG187      0.5346
    116  NH1       10.5930  -15.6540   -9.9010 N.pl3 187  ARG187      0.1354
    117  NH2       10.6820  -13.3890   -9.5400 N.pl3 187  ARG187      0.1354
    118  N          9.7890   -6.8340   -3.8420 N.3   203  ARG203     -0.1231
    119  CA        10.3960   -6.4820   -5.1390 C.3   203  ARG203      0.1694
    120  C          9.5790   -5.4420   -5.9250 C.2   203  ARG203      0.2592
    121  O         10.1430   -4.4750   -6.4360 O.2   203  ARG203     -0.2718
    122  CB        10.6310   -7.7210   -6.0190 C.3   203  ARG203      0.0321
    123  CG        11.8370   -8.5650   -5.6260 C.3   203  ARG203      0.0489
    124  CD        11.8710   -9.8430   -6.4450 C.3   203  ARG203      0.2205
    125  NE        12.8430  -10.8030   -5.9240 N.pl3 203  ARG203     -0.0865
    126  CZ        12.5560  -12.0280   -5.4810 C.cat 203  ARG203      0.5346
    127  NH1       13.5430  -12.7920   -5.0300 N.pl3 203  ARG203      0.1354
    128  NH2       11.3030  -12.5000   -5.4950 N.pl3 203  ARG203      0.1354
    129  N          8.2640   -5.6540   -6.0160 N.am  204  PHE204     -0.1976
    130  CA         7.4120   -4.8300   -6.8840 C.3   204  PHE204      0.1639
    131  C          6.3190   -4.0600   -6.1360 C.2   204  PHE204      0.2290
    132  O          5.3250   -3.6490   -6.7390 O.2   204  PHE204     -0.2864
    133  CB         6.8130   -5.6790   -8.0210 C.3   204  PHE204      0.0560
    134  CG         7.8330   -6.4950   -8.7640 C.ar  204  PHE204     -0.0200
    135  CD1        8.7760   -5.8780   -9.5890 C.ar  204  PHE204     -0.0042
    136  CD2        7.8710   -7.8800   -8.6230 C.ar  204  PHE204     -0.0042
    137  CE1        9.7280   -6.6280  -10.2620 C.ar  204  PHE204     -0.0003
    138  CE2        8.8250   -8.6340   -9.2890 C.ar  204  PHE204     -0.0003
    139  CZ         9.7540   -8.0050  -10.1110 C.ar  204  PHE204     -0.0000
@<TRIPOS>BOND
     1    35    34    2
     2    34    33    1
     3    31    30    2
     4    33    36    1
     5    33    32    1
     6    36    37    1
     7    30    32   am
     8    30    29    1
     9    49    48    1
    10    23    24    1
    11    23    22    1
    12    46    48   ar
    13    46    44   ar
    14    24    25    2
    15    48    47   ar
    16    20    19    2
    17    26    25    1
    18    28    29    1
    19    25    27    1
    20    21    22    1
    21    21    18    1
    22    44    43   ar
    23    47    45   ar
    24    19    18    1
    25    53    52    2
    26    52    51    1
    27    18    17    1
    28    43    45   ar
    29    43    42    1
    30    38    39    1
    31    39    42    1
    32    39    40    1
    33    13    12    2
    34    40    41    2
    35    51    50    1
    36    51    54    1
    37    15    14    1
    38    65    63   ar
    39   137   139   ar
    40   137   135   ar
    41    14    11    1
    42    14    16    1
    43    12    11    1
    44   139   138   ar
    45   116   115    1
    46    54    55    1
    47    62    63    1
    48    62    59    1
    49   135   134   ar
    50   117   115    1
    51    11    10    1
    52   115   114    2
    53    63    64   ar
    54   138   136   ar
    55     4     3    2
    56   114   113    1
    57   134   136   ar
    58   134   133    1
    59    59    58    1
    60    59    60    1
    61   113   112    1
    62    55    56   ar
    63    55    57   ar
    64     3     2    1
    65   133   130    1
    66     1     2    1
    67    60    66   am
    68    60    61    2
    69    69    68    2
    70    66    67    1
    71   112   111    1
    72     2     5    1
    73     5     6    1
    74   130   131    1
    75   130   129    1
    76   132   131    2
    77   111   108    1
    78   124   125    1
    79   124   123    1
    80   121   120    2
    81    68    67    1
    82    68    77   am
    83    75    73   ar
    84    75    76   ar
    85     9     7   ar
    86   122   123    1
    87   122   119    1
    88   129   120   am
    89     6     7    1
    90    67    70    1
    91   120   119    1
    92   125   126    2
    93    73    71   ar
    94     7     8   ar
    95    76    74   ar
    96    82    81    1
    97    82    83    1
    98   128   126    1
    99   126   127    1
   100    78    81    1
   101    78    77    1
   102    78    79    1
   103   108   107    1
   104   108   109    1
   105   110   109    2
   106   119   118    1
   107    71    70    1
   108    71    72   ar
   109    74    72   ar
   110   107   103   am
   111    83    84    1
   112    79    80    2
   113   103   102    1
   114   103   104    2
   115    97    96    2
   116    84    85    1
   117   102   101    1
   118   102   105    1
   119    96   101   am
   120    96    95    1
   121   105   106    1
   122    89    88    2
   123    95    98    1
   124    95    94    1
   125    98   100    1
   126    98    99    1
   127    88    94   am
   128    88    87    1
   129    87    86    1
   130    87    90    1
   131    90    91    1
   132    91    93   ar
   133    91    92   ar
