@<TRIPOS>MOLECULE
tmp/4o89A00.pdb
 125 118 0 0 0
SMALL
GASTEIGER

@<TRIPOS>ATOM
      1  N         30.1590  -23.2850   12.1880 N.3    10  GLU10      -0.1245
      2  CA        31.4210  -23.2760   11.4650 C.3    10  GLU10       0.1567
      3  C         32.1170  -21.9120   11.5630 C.2    10  GLU10       0.2260
      4  O         33.3250  -21.8030   11.3170 O.2    10  GLU10      -0.2867
      5  CB        31.1410  -23.6680   10.0090 C.3    10  GLU10       0.0388
      6  CG        32.3460  -23.7810    9.1140 C.3    10  GLU10       0.1160
      7  CD        32.6100  -22.4960    8.3740 C.2    10  GLU10       0.3649
      8  OE1       31.6440  -21.7180    8.1670 O.co2  10  GLU10      -0.2457
      9  OE2       33.7790  -22.2630    8.0130 O.co2  10  GLU10      -0.2457
     10  N         32.9770  -17.0370    6.8850 N.3    13  GLY13      -0.1210
     11  CA        32.3520  -16.0280    6.0410 C.3    13  GLY13       0.1956
     12  C         30.9390  -16.3500    5.5390 C.2    13  GLY13       0.2611
     13  O         30.1970  -15.4550    5.1550 O.2    13  GLY13      -0.2717
     14  N         30.5740  -17.6260    5.5190 N.am   14  GLN14      -0.1979
     15  CA        29.2770  -18.0300    4.9730 C.3    14  GLN14       0.1601
     16  C         28.1320  -17.3680    5.7480 C.2    14  GLN14       0.2287
     17  O         27.2070  -16.7860    5.1550 O.2    14  GLN14      -0.2864
     18  CB        29.1250  -19.5610    5.0180 C.3    14  GLN14       0.0394
     19  CG        27.7580  -20.0460    4.5230 C.3    14  GLN14       0.0908
     20  CD        27.7470  -20.3860    3.0310 C.2    14  GLN14       0.2608
     21  OE1       28.7910  -20.3970    2.3760 O.2    14  GLN14      -0.2717
     22  NE2       26.5610  -20.6790    2.4950 N.am   14  GLN14      -0.0878
     23  N         27.9130  -13.7080    4.7930 N.3    17  ARG17      -0.1245
     24  CA        27.3390  -13.4710    3.4650 C.3    17  ARG17       0.1563
     25  C         25.8280  -13.7120    3.3820 C.2    17  ARG17       0.2260
     26  O         25.0810  -12.8680    2.8930 O.2    17  ARG17      -0.2867
     27  CB        28.0610  -14.3210    2.3970 C.3    17  ARG17       0.0307
     28  CG        29.5240  -13.8950    2.1470 C.3    17  ARG17       0.0489
     29  CD        30.1690  -14.6830    1.0060 C.3    17  ARG17       0.2205
     30  NE        30.0520  -16.1240    1.2290 N.pl3  17  ARG17      -0.0865
     31  CZ        30.9910  -16.8710    1.8060 C.cat  17  ARG17       0.5346
     32  NH1       32.1380  -16.3140    2.1980 N.pl3  17  ARG17       0.1354
     33  NH2       30.7860  -18.1760    1.9790 N.pl3  17  ARG17       0.1354
     34  N         33.5750  -14.1020   11.9350 N.3    36  ARG36      -0.1245
     35  CA        34.6770  -15.0090   11.5780 C.3    36  ARG36       0.1563
     36  C         35.5310  -15.4380   12.7700 C.2    36  ARG36       0.2260
     37  O         36.7560  -15.4730   12.6860 O.2    36  ARG36      -0.2867
     38  CB        35.5520  -14.4070   10.4660 C.3    36  ARG36       0.0307
     39  CG        34.8090  -14.2380    9.1480 C.3    36  ARG36       0.0489
     40  CD        35.7000  -13.7010    8.0340 C.3    36  ARG36       0.2205
     41  NE        36.7370  -14.6560    7.6310 N.pl3  36  ARG36      -0.0865
     42  CZ        38.0120  -14.5750    8.0140 C.cat  36  ARG36       0.5346
     43  NH1       38.3970  -13.5860    8.8020 N.pl3  36  ARG36       0.1354
     44  NH2       38.8980  -15.4810    7.6110 N.pl3  36  ARG36       0.1354
     45  N         38.4470  -18.8360   12.8260 N.3    39  ARG39      -0.1245
     46  CA        39.4260  -18.6030   11.7570 C.3    39  ARG39       0.1563
     47  C         40.7670  -18.1950   12.3540 C.2    39  ARG39       0.2260
     48  O         40.8160  -17.6850   13.4730 O.2    39  ARG39      -0.2867
     49  CB        38.9470  -17.4810   10.8270 C.3    39  ARG39       0.0307
     50  CG        37.7800  -17.8540    9.9300 C.3    39  ARG39       0.0489
     51  CD        38.1770  -18.9850    9.0060 C.3    39  ARG39       0.2205
     52  NE        37.1540  -19.2500    7.9970 N.pl3  39  ARG39      -0.0865
     53  CZ        36.1860  -20.1540    8.1300 C.cat  39  ARG39       0.5346
     54  NH1       36.1100  -20.8920    9.2310 N.pl3  39  ARG39       0.1354
     55  NH2       35.2950  -20.3240    7.1540 N.pl3  39  ARG39       0.1354
     56  N         42.4290  -15.7560   11.3210 N.3    41  ASN41      -0.1240
     57  CA        42.4610  -14.2960   11.2320 C.3    41  ASN41       0.1653
     58  C         41.0740  -13.6820   11.3710 C.2    41  ASN41       0.2266
     59  O         40.5310  -13.1670   10.3950 O.2    41  ASN41      -0.2867
     60  CB        43.0690  -13.8710    9.8790 C.3    41  ASN41       0.1155
     61  CG        42.3890  -14.5520    8.6800 C.2    41  ASN41       0.2627
     62  OD1       41.7880  -15.6210    8.8160 O.2    41  ASN41      -0.2716
     63  ND2       42.4810  -13.9280    7.5030 N.am   41  ASN41      -0.0877
     64  N         37.5610   -9.0840    6.5170 N.3    45  ARG45      -0.1245
     65  CA        38.7130   -8.8830    5.6330 C.3    45  ARG45       0.1563
     66  C         38.2290   -8.1270    4.3760 C.2    45  ARG45       0.2260
     67  O         37.0280   -7.9480    4.1960 O.2    45  ARG45      -0.2867
     68  CB        39.3580  -10.2280    5.2580 C.3    45  ARG45       0.0307
     69  CG        39.8410  -11.1010    6.4390 C.3    45  ARG45       0.0489
     70  CD        40.8130  -10.3760    7.4000 C.3    45  ARG45       0.2205
     71  NE        41.8720   -9.6530    6.6940 N.pl3  45  ARG45      -0.0865
     72  CZ        42.5530   -8.6290    7.2060 C.cat  45  ARG45       0.5346
     73  NH1       42.3000   -8.2080    8.4420 N.pl3  45  ARG45       0.1354
     74  NH2       43.4930   -8.0290    6.4840 N.pl3  45  ARG45       0.1354
     75  N         37.8650   -8.9750    1.2220 N.3    47  GLN47      -0.1231
     76  CA        36.9400   -9.7820    0.4210 C.3    47  GLN47       0.1698
     77  C         35.5050   -9.6950    0.9320 C.2    47  GLN47       0.2592
     78  O         34.5540   -9.6300    0.1480 O.2    47  GLN47      -0.2718
     79  CB        37.3620  -11.2630    0.4020 C.3    47  GLN47       0.0381
     80  CG        38.8670  -11.4980    0.3410 C.3    47  GLN47       0.0905
     81  CD        39.5430  -11.3640    1.7090 C.2    47  GLN47       0.2608
     82  OE1       40.3210  -10.4290    1.9490 O.2    47  GLN47      -0.2717
     83  NE2       39.2460  -12.3010    2.6130 N.am   47  GLN47      -0.0878
     84  N         35.3410   -9.7170    2.2490 N.am   48  HIS48      -0.1976
     85  CA        33.9930   -9.6620    2.8190 C.3    48  HIS48       0.1656
     86  C         33.3710   -8.2920    2.5940 C.2    48  HIS48       0.2291
     87  O         32.1710   -8.1800    2.3400 O.2    48  HIS48      -0.2864
     88  CB        34.0290  -10.0430    4.2970 C.3    48  HIS48       0.0771
     89  CG        34.8380  -11.2700    4.5580 C.ar   48  HIS48       0.0820
     90  ND1       36.0850  -11.2310    5.1420 N.ar   48  HIS48      -0.2267
     91  CD2       34.6080  -12.5710    4.2450 C.ar   48  HIS48       0.1154
     92  CE1       36.5790  -12.4560    5.2060 C.ar   48  HIS48       0.1986
     93  NE2       35.6980  -13.2890    4.6770 N.ar   48  HIS48      -0.2212
     94  N         31.7490  -17.3490   -4.2530 N.3    97  LEU97      -0.1245
     95  CA        31.2120  -17.0910   -2.9210 C.3    97  LEU97       0.1561
     96  C         30.4270  -15.7720   -2.8800 C.2    97  LEU97       0.2260
     97  O         29.3640  -15.6940   -2.2580 O.2    97  LEU97      -0.2867
     98  CB        32.3190  -17.0930   -1.8770 C.3    97  LEU97       0.0270
     99  CG        33.0120  -18.4380   -1.6480 C.3    97  LEU97       0.0019
    100  CD1       34.0430  -18.3000   -0.5510 C.3    97  LEU97       0.0001
    101  CD2       32.0050  -19.5150   -1.2840 C.3    97  LEU97       0.0001
    102  N         38.5690  -23.9980   -1.7360 N.3   125  TRP125     -0.1241
    103  CA        37.6670  -23.4430   -0.7330 C.3   125  TRP125      0.1605
    104  C         36.3210  -22.8790   -1.2750 C.2   125  TRP125      0.2264
    105  O         35.6410  -22.1660   -0.5430 O.2   125  TRP125     -0.2867
    106  CB        38.4330  -22.3980    0.1490 C.3   125  TRP125      0.0550
    107  CG        38.4540  -20.9100   -0.3260 C.ar  125  TRP125      0.0003
    108  CD1       37.4810  -19.9770   -0.1120 C.ar  125  TRP125      0.0946
    109  CD2       39.5090  -20.2130   -1.0390 C.ar  125  TRP125      0.0152
    110  NE1       37.8400  -18.7730   -0.6560 N.ar  125  TRP125     -0.2442
    111  CE2       39.0750  -18.8880   -1.2350 C.ar  125  TRP125      0.0810
    112  CE3       40.7580  -20.5900   -1.5480 C.ar  125  TRP125      0.0012
    113  CZ2       39.8450  -17.9350   -1.9090 C.ar  125  TRP125      0.0191
    114  CZ3       41.5240  -19.6410   -2.2230 C.ar  125  TRP125      0.0001
    115  CH2       41.0630  -18.3310   -2.3950 C.ar  125  TRP125      0.0015
    116  N         27.7450  -25.5540    5.6830 N.3   307  HIS307     -0.1241
    117  CA        27.1300  -24.4190    4.9790 C.3   307  HIS307      0.1621
    118  C         25.6160  -24.5390    4.8780 C.2   307  HIS307      0.2264
    119  O         24.8920  -23.5380    4.9500 O.2   307  HIS307     -0.2867
    120  CB        27.7000  -24.2760    3.5630 C.3   307  HIS307      0.0745
    121  CG        29.1300  -23.8430    3.5350 C.ar  307  HIS307      0.0817
    122  ND1       29.7440  -23.2460    4.6210 N.ar  307  HIS307     -0.2268
    123  CD2       30.0670  -23.9130    2.5630 C.ar  307  HIS307      0.1154
    124  CE1       31.0020  -22.9770    4.3170 C.ar  307  HIS307      0.1986
    125  NE2       31.2260  -23.3710    3.0750 N.ar  307  HIS307     -0.2212
@<TRIPOS>BOND
     1    94    95    1
     2    95    96    1
     3    95    98    1
     4    96    97    2
     5   115   114   ar
     6   115   113   ar
     7   114   112   ar
     8   113   111   ar
     9    98    99    1
    10   102   103    1
    11    99   101    1
    12    99   100    1
    13   112   109   ar
    14   104   103    1
    15   104   105    2
    16   111   109   ar
    17   111   110   ar
    18   109   107   ar
    19   103   106    1
    20   110   108   ar
    21   107   108   ar
    22   107   106    1
    23    78    77    2
    24    80    79    1
    25    80    81    1
    26    79    76    1
    27    76    77    1
    28    76    75    1
    29    77    84   am
    30    29    30    1
    31    29    28    1
    32    30    31    2
    33    81    82    2
    34    81    83   am
    35    31    33    1
    36    31    32    1
    37    28    27    1
    38    84    85    1
    39    87    86    2
    40    21    20    2
    41    27    24    1
    42    22    20   am
    43   123   125   ar
    44   123   121   ar
    45    86    85    1
    46    85    88    1
    47    26    25    2
    48    20    19    1
    49   125   124   ar
    50    25    24    1
    51    24    23    1
    52   121   120    1
    53   121   122   ar
    54   120   117    1
    55    67    66    2
    56    91    89   ar
    57    91    93   ar
    58    88    89    1
    59   124   122   ar
    60    66    65    1
    61    19    18    1
    62    89    90   ar
    63    93    92   ar
    64   118   119    2
    65   118   117    1
    66    15    18    1
    67    15    14    1
    68    15    16    1
    69   117   116    1
    70    90    92   ar
    71    13    12    2
    72    17    16    2
    73    68    65    1
    74    68    69    1
    75    14    12   am
    76    12    11    1
    77    65    64    1
    78    11    10    1
    79    69    70    1
    80    74    72    1
    81    71    72    2
    82    71    70    1
    83    55    53    1
    84    72    73    1
    85    63    61   am
    86    44    42    1
    87    41    42    2
    88    41    40    1
    89    52    53    2
    90    52    51    1
    91     9     7   ar
    92    42    43    1
    93    40    39    1
    94    53    54    1
    95     8     7   ar
    96     7     6    1
    97    61    62    2
    98    61    60    1
    99    51    50    1
   100     6     5    1
   101    39    38    1
   102    60    57    1
   103    50    49    1
   104     5     2    1
   105    59    58    2
   106    38    35    1
   107    49    46    1
   108    57    56    1
   109    57    58    1
   110     4     3    2
   111     2     3    1
   112     2     1    1
   113    35    34    1
   114    35    36    1
   115    46    47    1
   116    46    45    1
   117    47    48    2
   118    37    36    2
