@<TRIPOS>MOLECULE
tmp/4o8eA01.pdb
 132 127 0 0 0
SMALL
GASTEIGER

@<TRIPOS>ATOM
      1  N         -6.0550  -28.5810    0.5840 N.3    69  VAL69      -0.1231
      2  CA        -5.1020  -27.6120    1.0920 C.3    69  VAL69       0.1692
      3  C         -5.4460  -26.1710    0.6770 C.2    69  VAL69       0.2592
      4  O         -4.5900  -25.3450    0.6080 O.2    69  VAL69      -0.2718
      5  CB        -3.6250  -27.9090    0.7450 C.3    69  VAL69       0.0266
      6  CG1       -2.7130  -27.3730    1.8290 C.3    69  VAL69       0.0020
      7  CG2       -3.3800  -29.3750    0.4720 C.3    69  VAL69       0.0020
      8  N         -6.7260  -25.9090    0.4350 N.am   70  TYR70      -0.1962
      9  CA        -7.1710  -24.5790    0.0310 C.3    70  TYR70       0.1771
     10  C         -7.5660  -23.7050    1.2220 C.2    70  TYR70       0.2619
     11  O         -8.5050  -24.0220    1.9530 O.2    70  TYR70      -0.2715
     12  CB        -8.3390  -24.6820   -0.9530 C.3    70  TYR70       0.0574
     13  CG        -7.9770  -25.3350   -2.2680 C.ar   70  TYR70      -0.0198
     14  CD1       -8.9610  -25.7320   -3.1630 C.ar   70  TYR70      -0.0009
     15  CD2       -6.6500  -25.5550   -2.6140 C.ar   70  TYR70      -0.0009
     16  CE1       -8.6350  -26.3290   -4.3660 C.ar   70  TYR70       0.0417
     17  CE2       -6.3140  -26.1510   -3.8150 C.ar   70  TYR70       0.0417
     18  CZ        -7.3100  -26.5360   -4.6860 C.ar   70  TYR70       0.1957
     19  OH        -6.9810  -27.1300   -5.8830 O.3    70  TYR70      -0.2866
     20  N         -6.8450  -22.6030    1.4030 N.am   71  ILE71      -0.1963
     21  CA        -7.1470  -21.6360    2.4540 C.3    71  ILE71       0.1727
     22  C         -8.5640  -21.0840    2.2590 C.2    71  ILE71       0.2616
     23  O         -8.8980  -20.5750    1.1930 O.2    71  ILE71      -0.2715
     24  CB        -6.1000  -20.4940    2.4790 C.3    71  ILE71       0.0290
     25  CG1       -4.7390  -21.0620    2.9110 C.3    71  ILE71       0.0022
     26  CG2       -6.5480  -19.3660    3.4030 C.3    71  ILE71       0.0023
     27  CD1       -3.6090  -20.0560    2.9470 C.3    71  ILE71       0.0001
     28  N         -9.3900  -21.1950    3.2940 N.am   72  MET72      -0.1977
     29  CA       -10.7900  -20.7610    3.2310 C.3    72  MET72       0.1605
     30  C        -10.9860  -19.3510    3.7870 C.2    72  MET72       0.2287
     31  O        -11.8250  -18.5840    3.3080 O.2    72  MET72      -0.2864
     32  CB       -11.6580  -21.7380    4.0250 C.3    72  MET72       0.0413
     33  CG       -11.7400  -23.1310    3.4180 C.3    72  MET72       0.0598
     34  SD       -12.6530  -23.1490    1.8660 S.3    72  MET72      -0.1393
     35  CE       -11.3550  -23.0270    0.6390 C.3    72  MET72       0.0692
     36  N        -13.0020  -15.9640    1.9410 N.3    83  PHE83      -0.1241
     37  CA       -13.0640  -15.7640    0.5180 C.3    83  PHE83       0.1605
     38  C        -14.4940  -15.7400    0.0190 C.2    83  PHE83       0.2264
     39  O        -15.3470  -16.3900    0.5620 O.2    83  PHE83      -0.2867
     40  CB       -12.2800  -16.8300   -0.2230 C.3    83  PHE83       0.0534
     41  CG       -10.7900  -16.6520   -0.1530 C.ar   83  PHE83      -0.0203
     42  CD1      -10.1890  -15.5230   -0.6420 C.ar   83  PHE83      -0.0042
     43  CD2      -10.0070  -17.6170    0.4170 C.ar   83  PHE83      -0.0042
     44  CE1       -8.8490  -15.3760   -0.5710 C.ar   83  PHE83      -0.0003
     45  CE2       -8.6530  -17.4790    0.4810 C.ar   83  PHE83      -0.0003
     46  CZ        -8.0810  -16.3510   -0.0170 C.ar   83  PHE83      -0.0000
     47  N        -16.4770  -17.1720   -2.0160 N.3    85  GLU85      -0.1245
     48  CA       -16.7830  -18.3810   -2.7770 C.3    85  GLU85       0.1567
     49  C        -17.5400  -19.4000   -1.9290 C.2    85  GLU85       0.2260
     50  O        -17.4160  -19.3800   -0.7420 O.2    85  GLU85      -0.2867
     51  CB       -15.5190  -18.9720   -3.3420 C.3    85  GLU85       0.0388
     52  CG       -14.5430  -19.3330   -2.2690 C.3    85  GLU85       0.1160
     53  CD       -13.3180  -19.9680   -2.8120 C.2    85  GLU85       0.3649
     54  OE1      -13.4130  -21.1100   -3.2240 O.co2  85  GLU85      -0.2457
     55  OE2      -12.2940  -19.3380   -2.8570 O.co2  85  GLU85      -0.2457
     56  N        -17.3130  -22.6140   -1.1190 N.3    87  ALA87      -0.1245
     57  CA       -16.5310  -23.4550   -0.2050 C.3    87  ALA87       0.1562
     58  C        -16.1260  -22.7080    1.0690 C.2    87  ALA87       0.2260
     59  O        -16.1120  -23.2830    2.1540 O.2    87  ALA87      -0.2867
     60  CB       -15.2970  -24.0010   -0.9090 C.3    87  ALA87       0.0290
     61  N        -12.6230  -14.3020   -4.6640 N.3   108  SER108     -0.1202
     62  CA       -12.4090  -15.7130   -4.3530 C.3   108  SER108      0.2020
     63  C        -10.9200  -15.9640   -4.1320 C.2   108  SER108      0.2619
     64  O        -10.0920  -15.0660   -4.3230 O.2   108  SER108     -0.2717
     65  CB       -12.9100  -16.5880   -5.4950 C.3   108  SER108      0.2103
     66  OG       -12.0830  -16.4330   -6.6330 O.3   108  SER108     -0.2182
     67  N        -10.5820  -17.1850   -3.7760 N.am  109  GLY109     -0.1942
     68  CA        -9.2400  -17.5570   -3.4090 C.3   109  GLY109      0.2014
     69  C         -8.2960  -17.9950   -4.5160 C.2   109  GLY109      0.2639
     70  O         -7.1870  -18.2850   -4.3000 O.2   109  GLY109     -0.2714
     71  N         -8.7610  -18.0350   -5.7260 N.am  110  ASN110     -0.1958
     72  CA        -7.8970  -18.5010   -6.8100 C.3   110  ASN110      0.1819
     73  C         -6.9090  -17.4280   -7.2640 C.2   110  ASN110      0.2621
     74  O         -7.1410  -16.2240   -7.0760 O.2   110  ASN110     -0.2715
     75  CB        -8.6940  -19.0640   -7.9880 C.3   110  ASN110      0.1195
     76  CG        -9.4460  -18.0050   -8.7550 C.2   110  ASN110      0.2630
     77  OD1       -8.9400  -17.4540   -9.7320 O.2   110  ASN110     -0.2716
     78  ND2      -10.6720  -17.7310   -8.3320 N.am  110  ASN110     -0.0877
     79  N         -5.8210  -17.8860   -7.8780 N.am  111  TYR111     -0.1960
     80  CA        -4.6380  -17.0640   -8.1110 C.3   111  TYR111      0.1771
     81  C         -5.0080  -15.9520   -9.0680 C.2   111  TYR111      0.2619
     82  O         -4.5670  -14.8210   -8.9100 O.2   111  TYR111     -0.2715
     83  CB        -3.4660  -17.8780   -8.7070 C.3   111  TYR111      0.0574
     84  CG        -2.6080  -18.6600   -7.7070 C.ar  111  TYR111     -0.0198
     85  CD1       -2.2130  -18.0970   -6.5040 C.ar  111  TYR111     -0.0009
     86  CD2       -2.1740  -19.9650   -7.9910 C.ar  111  TYR111     -0.0009
     87  CE1       -1.4260  -18.7990   -5.6020 C.ar  111  TYR111      0.0417
     88  CE2       -1.3950  -20.6790   -7.0890 C.ar  111  TYR111      0.0417
     89  CZ        -1.0220  -20.0910   -5.8980 C.ar  111  TYR111      0.1957
     90  OH        -0.2400  -20.7690   -4.9970 O.3   111  TYR111     -0.2866
     91  N         -5.8410  -16.2790  -10.0230 N.am  112  GLU112     -0.1977
     92  CA        -6.2580  -15.3180  -11.0050 C.3   112  GLU112      0.1602
     93  C         -6.9560  -14.1420  -10.3470 C.2   112  GLU112      0.2287
     94  O         -6.5730  -13.0300  -10.5160 O.2   112  GLU112     -0.2864
     95  CB        -7.1270  -16.0000  -12.0510 C.3   112  GLU112      0.0415
     96  CG        -7.8170  -15.0790  -13.0200 C.3   112  GLU112      0.1163
     97  CD        -8.5720  -15.8330  -14.0980 C.2   112  GLU112      0.3649
     98  OE1       -9.7280  -15.4750  -14.3770 O.co2 112  GLU112     -0.2457
     99  OE2       -7.9950  -16.7800  -14.6580 O.co2 112  GLU112     -0.2457
    100  N         -0.4080  -18.2230    0.8160 N.3   155  ILE155     -0.1245
    101  CA        -0.7670  -19.4670    0.1360 C.3   155  ILE155      0.1561
    102  C          0.4720  -20.2210   -0.3400 C.2   155  ILE155      0.2260
    103  O          0.5730  -21.4430   -0.1650 O.2   155  ILE155     -0.2867
    104  CB        -1.6870  -19.1860   -1.0640 C.3   155  ILE155      0.0252
    105  CG1       -3.0880  -18.8180   -0.5640 C.3   155  ILE155      0.0019
    106  CG2       -1.7430  -20.3840   -2.0020 C.3   155  ILE155      0.0019
    107  CD1       -3.9700  -18.1810   -1.6140 C.3   155  ILE155      0.0001
    108  N          0.5550  -23.6520    1.8920 N.3   159  ALA159     -0.1231
    109  CA        -0.0170  -24.7240    1.1280 C.3   159  ALA159      0.1694
    110  C          0.8620  -25.2340    0.0120 C.2   159  ALA159      0.2591
    111  O          1.0500  -26.4090   -0.0940 O.2   159  ALA159     -0.2718
    112  CB        -1.3420  -24.3320    0.5540 C.3   159  ALA159      0.0304
    113  N          1.4410  -24.3470   -0.7740 N.am  160  GLU160     -0.1979
    114  CA         2.2290  -24.8020   -1.9230 C.3   160  GLU160      0.1602
    115  C          3.5180  -25.4900   -1.4640 C.2   160  GLU160      0.2287
    116  O          3.9310  -26.4860   -2.0630 O.2   160  GLU160     -0.2864
    117  CB         2.5350  -23.6660   -2.9140 C.3   160  GLU160      0.0415
    118  CG         1.3100  -22.9800   -3.5080 C.3   160  GLU160      0.1163
    119  CD         0.5270  -23.8320   -4.5000 C.2   160  GLU160      0.3649
    120  OE1        0.7300  -25.0700   -4.5770 O.co2 160  GLU160     -0.2457
    121  OE2       -0.3080  -23.2520   -5.2210 O.co2 160  GLU160     -0.2457
    122  N          2.7050  -28.9440   -0.4580 N.3   163  ARG163     -0.1245
    123  CA         2.4770  -29.7870   -1.6340 C.3   163  ARG163      0.1563
    124  C          3.7410  -30.2300   -2.3620 C.2   163  ARG163      0.2260
    125  O          3.7620  -31.3120   -2.9570 O.2   163  ARG163     -0.2867
    126  CB         1.5910  -29.0610   -2.6380 C.3   163  ARG163      0.0307
    127  CG         0.1570  -28.8960   -2.1910 C.3   163  ARG163      0.0489
    128  CD        -0.5340  -27.8990   -3.0940 C.3   163  ARG163      0.2205
    129  NE        -1.9190  -27.6660   -2.7030 N.pl3 163  ARG163     -0.0865
    130  CZ        -2.5930  -26.5510   -2.9760 C.cat 163  ARG163      0.5346
    131  NH1       -2.0130  -25.5550   -3.6350 N.pl3 163  ARG163      0.1354
    132  NH2       -3.8480  -26.4170   -2.5800 N.pl3 163  ARG163      0.1354
@<TRIPOS>BOND
     1    99    97   ar
     2    98    97   ar
     3    97    96    1
     4    96    95    1
     5    95    92    1
     6    92    93    1
     7    92    91    1
     8    94    93    2
     9    91    81   am
    10    77    76    2
    11    81    82    2
    12    81    80    1
    13    76    78   am
    14    76    75    1
    15    83    80    1
    16    83    84    1
    17    80    79    1
    18    86    84   ar
    19    86    88   ar
    20    75    72    1
    21    79    73   am
    22    84    85   ar
    23    73    74    2
    24    73    72    1
    25    88    89   ar
    26    72    71    1
    27    66    65    1
    28    85    87   ar
    29    89    87   ar
    30    89    90    1
    31    19    18    1
    32    71    69   am
    33    65    62    1
    34   121   119   ar
    35    18    16   ar
    36    18    17   ar
    37    61    62    1
    38   120   119   ar
    39    69    70    2
    40    69    68    1
    41   119   118    1
    42    16    14   ar
    43    62    63    1
    44    64    63    2
    45    63    67   am
    46    17    15   ar
    47    67    68    1
    48   131   130    1
    49   118   117    1
    50    51    48    1
    51    51    52    1
    52    54    53   ar
    53    14    13   ar
    54   128   129    1
    55   128   127    1
    56   130   129    2
    57   130   132    1
    58   125   124    2
    59   117   114    1
    60    55    53   ar
    61    53    52    1
    62    48    47    1
    63    48    49    1
    64   126   127    1
    65   126   123    1
    66    15    13   ar
    67   124   123    1
    68    13    12    1
    69   116   115    2
    70   106   104    1
    71    49    50    2
    72   114   115    1
    73   114   113    1
    74   123   122    1
    75   107   105    1
    76    56    57    1
    77   104   105    1
    78   104   101    1
    79    12     9    1
    80    60    57    1
    81   113   110   am
    82    42    44   ar
    83    42    41   ar
    84    44    46   ar
    85   102   103    2
    86   102   101    1
    87    40    41    1
    88    40    37    1
    89    57    58    1
    90    41    43   ar
    91   111   110    2
    92    46    45   ar
    93   110   109    1
    94    38    37    1
    95    38    39    2
    96     9     8    1
    97     9    10    1
    98   101   100    1
    99    43    45   ar
   100     8     3   am
   101     7     5    1
   102    37    36    1
   103   112   109    1
   104     1     2    1
   105     4     3    2
   106    35    34    1
   107     3     2    1
   108     5     2    1
   109     5     6    1
   110    58    59    2
   111   109   108    1
   112    23    22    2
   113    10    20   am
   114    10    11    2
   115    20    21    1
   116    34    33    1
   117    22    21    1
   118    22    28   am
   119    21    24    1
   120    24    25    1
   121    24    26    1
   122    25    27    1
   123    29    28    1
   124    29    30    1
   125    29    32    1
   126    31    30    2
   127    33    32    1
