@<TRIPOS>MOLECULE
tmp/4o8fA00.pdb
 234 226 0 0 0
SMALL
GASTEIGER

@<TRIPOS>ATOM
      1  N         35.0880   52.7180   18.9540 N.3    59  ARG59      -0.1231
      2  CA        34.0980   51.8360   18.3590 C.3    59  ARG59       0.1694
      3  C         34.6770   50.4310   18.2060 C.2    59  ARG59       0.2592
      4  O         33.9230   49.4800   17.9940 O.2    59  ARG59      -0.2718
      5  CB        33.5550   52.3910   17.0330 C.3    59  ARG59       0.0321
      6  CG        34.4740   52.3800   15.8250 C.3    59  ARG59       0.0489
      7  CD        33.9550   53.4190   14.8210 C.3    59  ARG59       0.2205
      8  NE        34.9980   54.0790   14.0360 N.pl3  59  ARG59      -0.0865
      9  CZ        34.7700   55.0810   13.1900 C.cat  59  ARG59       0.5346
     10  NH1       33.5390   55.5520   13.0400 N.pl3  59  ARG59       0.1354
     11  NH2       35.7720   55.6230   12.5040 N.pl3  59  ARG59       0.1354
     12  N         36.0000   50.3000   18.3440 N.am   60  ILE60      -0.1966
     13  CA        36.5920   49.0030   18.6990 C.3    60  ILE60       0.1727
     14  C         36.1160   48.6190   20.0850 C.2    60  ILE60       0.2616
     15  O         35.5850   47.5310   20.3010 O.2    60  ILE60      -0.2715
     16  CB        38.1360   49.0060   18.7120 C.3    60  ILE60       0.0290
     17  CG1       38.6950   48.9310   17.2930 C.3    60  ILE60       0.0022
     18  CG2       38.6680   47.8340   19.5330 C.3    60  ILE60       0.0023
     19  CD1       40.1920   48.8390   17.2530 C.3    60  ILE60       0.0001
     20  N         36.3080   49.5450   21.0160 N.am   61  PHE61      -0.1974
     21  CA        35.9660   49.3230   22.4090 C.3    61  PHE61       0.1639
     22  C         34.4930   49.0110   22.6000 C.2    61  PHE61       0.2290
     23  O         34.1340   48.1610   23.4210 O.2    61  PHE61      -0.2864
     24  CB        36.3300   50.5360   23.2560 C.3    61  PHE61       0.0560
     25  CG        36.1660   50.2990   24.7100 C.ar   61  PHE61      -0.0200
     26  CD1       37.1630   49.6560   25.4260 C.ar   61  PHE61      -0.0042
     27  CD2       35.0090   50.6860   25.3630 C.ar   61  PHE61      -0.0042
     28  CE1       37.0230   49.4190   26.7680 C.ar   61  PHE61      -0.0003
     29  CE2       34.8580   50.4550   26.7160 C.ar   61  PHE61      -0.0003
     30  CZ        35.8660   49.8200   27.4210 C.ar   61  PHE61      -0.0000
     31  N         32.6880   47.9790   20.1470 N.3    63  GLY63      -0.1210
     32  CA        32.5380   46.7760   19.3470 C.3    63  GLY63       0.1956
     33  C         32.7000   45.5720   20.2540 C.2    63  GLY63       0.2612
     34  O         31.8330   44.6880   20.3160 O.2    63  GLY63      -0.2717
     35  N         33.8230   45.5480   20.9700 N.am   64  CYS64      -0.1956
     36  CA        34.0370   44.5950   22.0500 C.3    64  CYS64       0.1843
     37  C         32.8500   44.5760   23.0020 C.2    64  CYS64       0.2625
     38  O         32.4260   43.5140   23.4620 O.2    64  CYS64      -0.2714
     39  CB        35.3060   44.9440   22.8150 C.3    64  CYS64       0.0997
     40  SG        36.8160   44.7780   21.8330 S.3    64  CYS64      -0.0797
     41  N         32.3050   45.7570   23.2770 N.am   65  GLN65      -0.1963
     42  CA        31.2270   45.8740   24.2430 C.3    65  GLN65       0.1733
     43  C         29.9860   45.1000   23.8420 C.2    65  GLN65       0.2616
     44  O         29.2880   44.5770   24.7090 O.2    65  GLN65      -0.2715
     45  CB        30.8460   47.3340   24.4740 C.3    65  GLN65       0.0408
     46  CG        31.6850   48.0830   25.4920 C.3    65  GLN65       0.0908
     47  CD        31.0480   49.4190   25.8700 C.2    65  GLN65       0.2608
     48  OE1       29.8410   49.4920   26.1010 O.2    65  GLN65      -0.2717
     49  NE2       31.8530   50.4740   25.9380 N.am   65  GLN65      -0.0878
     50  N         29.6900   45.0210   22.5460 N.am   66  PHE66      -0.1960
     51  CA        28.4310   44.3870   22.1650 C.3    66  PHE66       0.1771
     52  C         28.6260   42.9340   21.7190 C.2    66  PHE66       0.2619
     53  O         27.6420   42.2190   21.5220 O.2    66  PHE66      -0.2715
     54  CB        27.6740   45.2300   21.1040 C.3    66  PHE66       0.0574
     55  CG        27.8640   44.7890   19.6620 C.ar   66  PHE66      -0.0200
     56  CD1       27.0520   43.7970   19.1050 C.ar   66  PHE66      -0.0042
     57  CD2       28.7860   45.4280   18.8370 C.ar   66  PHE66      -0.0042
     58  CE1       27.2020   43.4040   17.7860 C.ar   66  PHE66      -0.0003
     59  CE2       28.9370   45.0450   17.5060 C.ar   66  PHE66      -0.0003
     60  CZ        28.1410   44.0330   16.9810 C.ar   66  PHE66      -0.0000
     61  N         29.8630   42.4480   21.6130 N.am   67  ARG67      -0.1963
     62  CA        29.9620   40.9980   21.5440 C.3    67  ARG67       0.1729
     63  C         29.8100   40.4770   22.9750 C.2    67  ARG67       0.2616
     64  O         29.3030   39.3630   23.1980 O.2    67  ARG67      -0.2715
     65  CB        31.2470   40.4820   20.8850 C.3    67  ARG67       0.0348
     66  CG        31.4930   38.9860   21.1900 C.3    67  ARG67       0.0492
     67  CD        32.4730   38.2580   20.2710 C.3    67  ARG67       0.2205
     68  NE        33.3180   39.1520   19.4890 N.pl3  67  ARG67      -0.0865
     69  CZ        33.0070   39.6210   18.2820 C.cat  67  ARG67       0.5346
     70  NH1       31.8490   39.3030   17.7010 N.pl3  67  ARG67       0.1354
     71  NH2       33.8570   40.4220   17.6640 N.pl3  67  ARG67       0.1354
     72  N         30.2080   41.2910   23.9520 N.am   68  SER68      -0.1950
     73  CA        29.8940   40.9540   25.3240 C.3    68  SER68       0.1924
     74  C         28.3880   40.7890   25.5430 C.2    68  SER68       0.2314
     75  O         27.9640   39.8690   26.2480 O.2    68  SER68      -0.2863
     76  CB        30.4430   42.0060   26.2570 C.3    68  SER68       0.2116
     77  OG        31.8270   41.8220   26.4160 O.3    68  SER68      -0.2180
     78  N         32.1060   37.3590   32.6060 N.3   102  HIS102     -0.1241
     79  CA        33.3280   37.8600   31.9970 C.3   102  HIS102      0.1621
     80  C         34.4460   36.8270   32.0580 C.2   102  HIS102      0.2264
     81  O         35.2280   36.7490   31.1290 O.2   102  HIS102     -0.2867
     82  CB        33.7750   39.1490   32.6630 C.3   102  HIS102      0.0745
     83  CG        32.9000   40.3170   32.3580 C.ar  102  HIS102      0.0817
     84  ND1       31.7840   40.6350   33.1180 N.ar  102  HIS102     -0.2268
     85  CD2       32.9740   41.2670   31.3960 C.ar  102  HIS102      0.1154
     86  CE1       31.2190   41.7150   32.6260 C.ar  102  HIS102      0.1986
     87  NE2       31.9210   42.1250   31.5760 N.ar  102  HIS102     -0.2212
     88  N         33.6210   34.8400   29.0870 N.3   105  ILE105     -0.1231
     89  CA        33.9080   35.6180   27.8970 C.3   105  ILE105      0.1692
     90  C         35.4000   35.6050   27.5890 C.2   105  ILE105      0.2592
     91  O         35.7980   35.5820   26.4370 O.2   105  ILE105     -0.2718
     92  CB        33.4250   37.0700   28.0680 C.3   105  ILE105      0.0266
     93  CG1       31.8990   37.1150   28.0130 C.3   105  ILE105      0.0019
     94  CG2       34.0630   37.9930   27.0230 C.3   105  ILE105      0.0020
     95  CD1       31.3430   38.4510   28.3560 C.3   105  ILE105      0.0001
     96  N         36.2320   35.6180   28.6180 N.am  106  TYR106     -0.1976
     97  CA        37.6550   35.6670   28.3630 C.3   106  TYR106      0.1639
     98  C         38.1870   34.2650   28.1050 C.2   106  TYR106      0.2290
     99  O         39.1250   34.0920   27.3170 O.2   106  TYR106     -0.2864
    100  CB        38.3930   36.3440   29.5200 C.3   106  TYR106      0.0560
    101  CG        38.0210   37.7940   29.6550 C.ar  106  TYR106     -0.0198
    102  CD1       37.9590   38.6130   28.5330 C.ar  106  TYR106     -0.0009
    103  CD2       37.7070   38.3490   30.9030 C.ar  106  TYR106     -0.0009
    104  CE1       37.6060   39.9510   28.6460 C.ar  106  TYR106      0.0417
    105  CE2       37.3480   39.6680   31.0210 C.ar  106  TYR106      0.0417
    106  CZ        37.2960   40.4710   29.8910 C.ar  106  TYR106      0.1957
    107  OH        36.9310   41.7960   30.0020 O.3   106  TYR106     -0.2866
    108  N         37.2780   33.6810   24.5490 N.3   109  LEU109     -0.1245
    109  CA        37.9690   34.5460   23.6220 C.3   109  LEU109      0.1561
    110  C         39.3480   33.9520   23.2860 C.2   109  LEU109      0.2260
    111  O         39.8360   34.0630   22.1380 O.2   109  LEU109     -0.2867
    112  CB        38.0880   35.9520   24.1950 C.3   109  LEU109      0.0270
    113  CG        38.6980   37.0430   23.3140 C.3   109  LEU109      0.0019
    114  CD1       37.9670   37.1500   21.9780 C.3   109  LEU109      0.0001
    115  CD2       38.6760   38.3790   24.0890 C.3   109  LEU109      0.0001
    116  N         43.3470   38.1670   16.9740 N.3   118  VAL118     -0.1231
    117  CA        42.0830   37.5910   17.4180 C.3   118  VAL118      0.1692
    118  C         40.9960   37.5760   16.3390 C.2   118  VAL118      0.2592
    119  O         40.7420   38.5840   15.6910 O.2   118  VAL118     -0.2718
    120  CB        41.5260   38.3590   18.6690 C.3   118  VAL118      0.0266
    121  CG1       41.6180   39.8330   18.4780 C.3   118  VAL118      0.0020
    122  CG2       40.0790   38.0090   18.9160 C.3   118  VAL118      0.0020
    123  N         40.3470   36.4270   16.1680 N.am  119  LEU119     -0.1966
    124  CA        39.1840   36.3340   15.2970 C.3   119  LEU119      0.1728
    125  C         38.0650   37.2520   15.7810 C.2   119  LEU119      0.2616
    126  O         37.7060   37.2550   16.9600 O.2   119  LEU119     -0.2715
    127  CB        38.6690   34.8900   15.2090 C.3   119  LEU119      0.0311
    128  CG        39.5150   33.8960   14.4260 C.3   119  LEU119      0.0022
    129  CD1       38.8010   32.5620   14.3010 C.3   119  LEU119      0.0001
    130  CD2       39.8290   34.4680   13.0520 C.3   119  LEU119      0.0001
    131  N         37.5100   38.0250   14.8570 N.am  120  ILE120     -0.1963
    132  CA        36.4150   38.9240   15.1720 C.3   120  ILE120      0.1727
    133  C         35.2130   38.6250   14.2930 C.2   120  ILE120      0.2616
    134  O         35.3640   38.1790   13.1570 O.2   120  ILE120     -0.2715
    135  CB        36.8220   40.3840   14.9830 C.3   120  ILE120      0.0290
    136  CG1       37.3630   40.5810   13.5590 C.3   120  ILE120      0.0022
    137  CG2       37.8730   40.7600   15.9890 C.3   120  ILE120      0.0023
    138  CD1       37.8190   41.9810   13.2370 C.3   120  ILE120      0.0001
    139  N         34.0280   38.8710   14.8450 N.am  121  SER121     -0.1950
    140  CA        32.7520   38.7010   14.1540 C.3   121  SER121      0.1924
    141  C         32.6160   37.3540   13.4560 C.2   121  SER121      0.2314
    142  O         32.9420   37.2280   12.2850 O.2   121  SER121     -0.2863
    143  CB        32.5520   39.8360   13.1470 C.3   121  SER121      0.2116
    144  OG        32.4150   41.0810   13.8220 O.3   121  SER121     -0.2180
    145  N         41.8840   40.6100   13.6220 N.3   127  MET127     -0.1245
    146  CA        42.6140   41.8000   14.0110 C.3   127  MET127      0.1570
    147  C         43.9020   41.3980   14.7430 C.2   127  MET127      0.2261
    148  O         43.9050   40.4350   15.5170 O.2   127  MET127     -0.2867
    149  CB        41.7000   42.6590   14.8580 C.3   127  MET127      0.0387
    150  CG        42.2150   44.0170   15.2360 C.3   127  MET127      0.0595
    151  SD        40.8590   44.8700   16.0550 S.3   127  MET127     -0.1393
    152  CE        39.6120   44.7980   14.7680 C.3   127  MET127      0.0692
    153  N         46.4430   46.0160   18.0240 N.3   132  LEU132     -0.1245
    154  CA        45.6950   46.3650   19.2200 C.3   132  LEU132      0.1561
    155  C         46.6300   47.0120   20.2400 C.2   132  LEU132      0.2260
    156  O         46.2240   47.9240   20.9510 O.2   132  LEU132     -0.2867
    157  CB        44.9860   45.1410   19.7810 C.3   132  LEU132      0.0270
    158  CG        43.7360   44.7960   18.9570 C.3   132  LEU132      0.0019
    159  CD1       43.2390   43.3870   19.2420 C.3   132  LEU132      0.0001
    160  CD2       42.6410   45.8120   19.2240 C.3   132  LEU132      0.0001
    161  N         44.3070   47.3160   26.4500 N.3   142  PHE142     -0.1227
    162  CA        43.1840   46.6620   27.0660 C.3   142  PHE142      0.1736
    163  C         43.0460   45.2130   26.6050 C.2   142  PHE142      0.2595
    164  O         42.4040   44.4230   27.2810 O.2   142  PHE142     -0.2718
    165  CB        41.9030   47.4410   26.8020 C.3   142  PHE142      0.0547
    166  CG        41.2240   47.0860   25.5310 C.ar  142  PHE142     -0.0202
    167  CD1       39.9950   46.4440   25.5490 C.ar  142  PHE142     -0.0042
    168  CD2       41.8030   47.4060   24.3110 C.ar  142  PHE142     -0.0042
    169  CE1       39.3470   46.1220   24.3730 C.ar  142  PHE142     -0.0003
    170  CE2       41.1670   47.0910   23.1230 C.ar  142  PHE142     -0.0003
    171  CZ        39.9330   46.4460   23.1490 C.ar  142  PHE142     -0.0000
    172  N         43.6630   44.8550   25.4820 N.am  143  MET143     -0.1979
    173  CA        43.5940   43.4890   24.9920 C.3   143  MET143      0.1605
    174  C         44.8000   42.7150   25.4410 C.2   143  MET143      0.2287
    175  O         44.7960   41.4860   25.4520 O.2   143  MET143     -0.2864
    176  CB        43.5260   43.4340   23.4530 C.3   143  MET143      0.0413
    177  CG        42.1520   43.6040   22.8470 C.3   143  MET143      0.0598
    178  SD        40.8410   42.6740   23.6720 S.3   143  MET143     -0.1393
    179  CE        41.1630   41.0210   23.0820 C.3   143  MET143      0.0692
    180  N         44.3660   39.8340   27.9890 N.3   146  LYS146     -0.1245
    181  CA        43.6340   38.7580   27.3140 C.3   146  LYS146      0.1561
    182  C         44.5590   37.8980   26.4390 C.2   146  LYS146      0.2260
    183  O         44.4530   36.6710   26.4350 O.2   146  LYS146     -0.2867
    184  CB        42.5100   39.3280   26.4440 C.3   146  LYS146      0.0271
    185  CG        41.3970   40.0370   27.2180 C.3   146  LYS146      0.0035
    186  CD        41.7580   41.4270   27.6760 C.3   146  LYS146      0.0206
    187  CE        40.5900   42.0660   28.4550 C.3   146  LYS146      0.1093
    188  NZ        40.9940   43.3150   29.1690 N.3   146  LYS146     -0.1314
    189  N         40.4870   44.7830   34.2840 N.3   228  HIS228     -0.1241
    190  CA        39.7670   45.4520   33.2040 C.3   228  HIS228      0.1621
    191  C         38.7900   46.4880   33.7660 C.2   228  HIS228      0.2264
    192  O         38.5200   47.5090   33.1380 O.2   228  HIS228     -0.2867
    193  CB        39.0260   44.4440   32.3220 C.3   228  HIS228      0.0745
    194  CG        38.2560   45.0910   31.1870 C.ar  228  HIS228      0.0817
    195  ND1       38.8040   45.3240   29.9840 N.ar  228  HIS228     -0.2268
    196  CD2       36.9760   45.5510   31.1780 C.ar  228  HIS228      0.1154
    197  CE1       37.8730   45.9190   29.1910 C.ar  228  HIS228      0.1986
    198  NE2       36.7970   46.0520   29.8940 N.ar  228  HIS228     -0.2212
    199  N         38.5890   50.3050   33.2470 N.3   232  LEU232     -0.1245
    200  CA        37.3180   51.0020   33.0640 C.3   232  LEU232      0.1561
    201  C         37.1280   52.2170   34.0040 C.2   232  LEU232      0.2260
    202  O         36.2960   53.0880   33.7390 O.2   232  LEU232     -0.2867
    203  CB        36.1510   50.0210   33.2470 C.3   232  LEU232      0.0270
    204  CG        35.7920   49.0650   32.1010 C.3   232  LEU232      0.0019
    205  CD1       34.9510   47.9100   32.5980 C.3   232  LEU232      0.0001
    206  CD2       35.0460   49.7920   31.0150 C.3   232  LEU232      0.0001
    207  N         29.2010   53.5170   27.5340 N.3   240  LEU240     -0.1245
    208  CA        29.2470   52.0700   27.7460 C.3   240  LEU240      0.1561
    209  C         27.8330   51.4680   27.7880 C.2   240  LEU240      0.2260
    210  O         26.9290   52.0300   28.4050 O.2   240  LEU240     -0.2867
    211  CB        30.0270   51.7510   29.0340 C.3   240  LEU240      0.0270
    212  CG        30.1640   50.3130   29.5490 C.3   240  LEU240      0.0019
    213  CD1       31.4430   50.1810   30.3430 C.3   240  LEU240      0.0001
    214  CD2       29.0200   49.9260   30.4310 C.3   240  LEU240      0.0001
    215  N         25.9000   46.1350   30.5210 N.3   244  LEU244     -0.1245
    216  CA        27.1950   45.9890   31.1770 C.3   244  LEU244      0.1561
    217  C         27.2680   46.7020   32.5170 C.2   244  LEU244      0.2260
    218  O         27.8720   46.1810   33.4620 O.2   244  LEU244     -0.2867
    219  CB        28.3110   46.4950   30.2690 C.3   244  LEU244      0.0270
    220  CG        28.6350   45.5470   29.1270 C.3   244  LEU244      0.0019
    221  CD1       29.7800   46.0950   28.2970 C.3   244  LEU244      0.0001
    222  CD2       28.9750   44.1880   29.7080 C.3   244  LEU244      0.0001
    223  N         28.7020   45.4740   36.1180 N.3   248  TYR248     -0.1241
    224  CA        29.8690   46.0740   36.7160 C.3   248  TYR248      0.1605
    225  C         29.6060   46.7030   38.0960 C.2   248  TYR248      0.2264
    226  O         30.5390   46.8510   38.8660 O.2   248  TYR248     -0.2867
    227  CB        30.4680   47.0950   35.7380 C.3   248  TYR248      0.0534
    228  CG        31.2720   46.4610   34.6080 C.ar  248  TYR248     -0.0201
    229  CD1       32.3570   45.6470   34.8880 C.ar  248  TYR248     -0.0009
    230  CD2       30.9550   46.6890   33.2760 C.ar  248  TYR248     -0.0009
    231  CE1       33.1040   45.0670   33.8880 C.ar  248  TYR248      0.0417
    232  CE2       31.7030   46.1130   32.2540 C.ar  248  TYR248      0.0417
    233  CZ        32.7820   45.3000   32.5710 C.ar  248  TYR248      0.1957
    234  OH        33.5540   44.7120   31.5840 O.3   248  TYR248     -0.2866
@<TRIPOS>BOND
     1   142   141    2
     2    11     9    1
     3    10     9    1
     4   130   128    1
     5   143   144    1
     6   143   140    1
     7   134   133    2
     8     9     8    2
     9   138   136    1
    10   141   140    1
    11   136   135    1
    12   145   146    1
    13   146   147    1
    14   146   149    1
    15     8     7    1
    16   140   139    1
    17   133   139   am
    18   133   132    1
    19   129   128    1
    20   128   127    1
    21   147   148    2
    22   152   151    1
    23     7     6    1
    24   131   132    1
    25   131   125   am
    26   149   150    1
    27   135   132    1
    28   135   137    1
    29   127   124    1
    30   150   151    1
    31   124   125    1
    32   124   123    1
    33   119   118    2
    34   125   126    2
    35     6     5    1
    36   123   118   am
    37   118   117    1
    38   116   117    1
    39    60    59   ar
    40    60    58   ar
    41     5     2    1
    42    19    17    1
    43    17    16    1
    44   117   120    1
    45    59    57   ar
    46    71    69    1
    47    70    69    1
    48    58    56   ar
    49     4     3    2
    50   153   154    1
    51     3    12   am
    52     3     2    1
    53    69    68    2
    54    12    13    1
    55     2     1    1
    56   121   120    1
    57   120   122    1
    58    13    16    1
    59    13    14    1
    60    16    18    1
    61    57    55   ar
    62   158   160    1
    63   158   159    1
    64   158   157    1
    65    56    55   ar
    66   154   157    1
    67   154   155    1
    68    32    31    1
    69    32    33    1
    70    68    67    1
    71    55    54    1
    72    14    15    2
    73    14    20   am
    74   155   156    2
    75    33    34    2
    76    33    35   am
    77    67    66    1
    78    65    66    1
    79    65    62    1
    80    35    36    1
    81    20    21    1
    82    54    51    1
    83    53    52    2
    84    62    61    1
    85    62    63    1
    86    61    52   am
    87    52    51    1
    88    40    39    1
    89   114   113    1
    90    36    39    1
    91    36    37    1
    92   111   110    2
    93    51    50    1
    94    21    22    1
    95    21    24    1
    96    50    43   am
    97    22    23    2
    98   177   176    1
    99   177   178    1
   100    63    64    2
   101    63    72   am
   102    37    41   am
   103    37    38    2
   104   179   178    1
   105   170   171   ar
   106   170   168   ar
   107   171   169   ar
   108    24    25    1
   109    41    42    1
   110   110   109    1
   111   113   115    1
   112   113   112    1
   113   176   173    1
   114   109   112    1
   115   109   108    1
   116    43    42    1
   117    43    44    2
   118    72    73    1
   119    42    45    1
   120   168   166   ar
   121   169   167   ar
   122    45    46    1
   123    25    27   ar
   124    25    26   ar
   125   173   174    1
   126   173   172    1
   127    73    74    1
   128    73    76    1
   129    27    29   ar
   130    26    28   ar
   131   174   175    2
   132   172   163   am
   133    46    47    1
   134   166   167   ar
   135   166   165    1
   136    74    75    2
   137    47    49   am
   138    47    48    2
   139    76    77    1
   140   183   182    2
   141    91    90    2
   142   182   181    1
   143   184   185    1
   144   184   181    1
   145   161   162    1
   146   163   162    1
   147   163   164    2
   148    29    30   ar
   149    28    30   ar
   150   165   162    1
   151    94    92    1
   152   185   186    1
   153   181   180    1
   154    99    98    2
   155   207   208    1
   156    90    89    1
   157    90    96   am
   158   186   187    1
   159   208   209    1
   160   208   211    1
   161   209   210    2
   162    89    92    1
   163    89    88    1
   164    93    92    1
   165    93    95    1
   166    98    97    1
   167   221   220    1
   168    97    96    1
   169    97   100    1
   170   187   188    1
   171   102   104   ar
   172   102   101   ar
   173   104   106   ar
   174   211   212    1
   175   220   222    1
   176   220   219    1
   177   197   198   ar
   178   197   195   ar
   179   100   101    1
   180   212   213    1
   181   212   214    1
   182   101   103   ar
   183   106   107    1
   184   106   105   ar
   185   198   196   ar
   186   195   194   ar
   187   219   216    1
   188   215   216    1
   189   103   105   ar
   190   206   204    1
   191    81    80    2
   192   216   217    1
   193   196   194   ar
   194   194   193    1
   195    85    87   ar
   196    85    83   ar
   197    87    86   ar
   198   234   233    1
   199    79    80    1
   200    79    78    1
   201    79    82    1
   202   204   205    1
   203   204   203    1
   204   232   233   ar
   205   232   230   ar
   206   193   190    1
   207    83    82    1
   208    83    84   ar
   209   217   218    2
   210   233   231   ar
   211    86    84   ar
   212   200   199    1
   213   200   203    1
   214   200   201    1
   215   192   191    2
   216   190   191    1
   217   190   189    1
   218   230   228   ar
   219   202   201    2
   220   231   229   ar
   221   228   229   ar
   222   228   227    1
   223   227   224    1
   224   223   224    1
   225   224   225    1
   226   225   226    2
