@<TRIPOS>MOLECULE
tmp/4o8hA00.pdb
 95 93 0 0 0
SMALL
GASTEIGER

@<TRIPOS>ATOM
      1  N         70.3910   47.5810   78.7260 N.3    54  ARG54      -0.1245
      2  CA        71.7670   47.6410   78.2160 C.3    54  ARG54       0.1563
      3  C         72.3900   46.2870   78.5200 C.2    54  ARG54       0.2260
      4  O         72.6290   45.9650   79.6760 O.2    54  ARG54      -0.2867
      5  CB        72.5590   48.7810   78.8940 C.3    54  ARG54       0.0307
      6  CG        74.0200   48.8280   78.4870 C.3    54  ARG54       0.0489
      7  CD        74.7910   49.7610   79.3880 C.3    54  ARG54       0.2205
      8  NE        76.1950   49.8730   78.9670 N.pl3  54  ARG54      -0.0865
      9  CZ        77.2270   50.0560   79.7750 C.cat  54  ARG54       0.5346
     10  NH1       77.0780   50.0890   81.0980 N.pl3  54  ARG54       0.1354
     11  NH2       78.4430   50.1710   79.2710 N.pl3  54  ARG54       0.1354
     12  N         80.2030   40.6940   78.8090 N.3    59  PHE59      -0.1227
     13  CA        80.4370   41.7740   79.7530 C.3    59  PHE59       0.1736
     14  C         79.4090   41.7070   80.8970 C.2    59  PHE59       0.2595
     15  O         79.7250   41.2400   81.9910 O.2    59  PHE59      -0.2718
     16  CB        80.4850   43.1320   79.0230 C.3    59  PHE59       0.0547
     17  CG        80.6800   44.3370   79.8940 C.ar   59  PHE59      -0.0202
     18  CD1       81.2230   44.2750   81.1390 C.ar   59  PHE59      -0.0042
     19  CD2       80.2890   45.5740   79.4100 C.ar   59  PHE59      -0.0042
     20  CE1       81.4040   45.4230   81.9120 C.ar   59  PHE59      -0.0003
     21  CE2       80.4250   46.7350   80.1810 C.ar   59  PHE59      -0.0003
     22  CZ        81.0020   46.6570   81.4320 C.ar   59  PHE59      -0.0000
     23  N         78.1860   42.1990   80.6540 N.am   60  MET60      -0.1979
     24  CA        77.2190   42.3070   81.7290 C.3    60  MET60       0.1605
     25  C         75.8330   42.5940   81.1540 C.2    60  MET60       0.2287
     26  O         75.6680   42.9820   79.9920 O.2    60  MET60      -0.2864
     27  CB        77.6280   43.3680   82.7850 C.3    60  MET60       0.0413
     28  CG        77.7850   44.7950   82.2780 C.3    60  MET60       0.0598
     29  SD        76.1980   45.6490   82.0820 S.3    60  MET60      -0.1393
     30  CE        76.3210   46.2930   80.4120 C.3    60  MET60       0.0692
     31  N         72.4930   44.9130   82.2560 N.3    62  GLN62      -0.1245
     32  CA        72.1550   46.0520   83.1060 C.3    62  GLN62       0.1566
     33  C         70.6470   46.3560   83.0290 C.2    62  GLN62       0.2260
     34  O         70.0290   46.3410   81.9550 O.2    62  GLN62      -0.2867
     35  CB        72.9580   47.2840   82.6770 C.3    62  GLN62       0.0367
     36  CG        72.6840   48.5320   83.4990 C.3    62  GLN62       0.0905
     37  CD        73.6500   49.6430   83.1670 C.2    62  GLN62       0.2608
     38  OE1       74.7950   49.3800   82.7650 O.2    62  GLN62      -0.2717
     39  NE2       73.2240   50.8950   83.3490 N.am   62  GLN62      -0.0878
     40  N         75.2900   50.0430   88.8320 N.3   100  ALA100     -0.1231
     41  CA        75.6500   50.9400   87.7440 C.3   100  ALA100      0.1694
     42  C         75.7110   52.3730   88.2970 C.2   100  ALA100      0.2592
     43  O         75.1090   52.6690   89.3200 O.2   100  ALA100     -0.2718
     44  CB        74.6110   50.8400   86.6330 C.3   100  ALA100      0.0304
     45  N         76.4550   53.2470   87.6200 N.am  101  ASN101     -0.1974
     46  CA        76.5220   54.6230   88.0830 C.3   101  ASN101      0.1688
     47  C         76.9560   55.5200   86.9290 C.2   101  ASN101      0.2292
     48  O         77.1810   55.0840   85.8140 O.2   101  ASN101     -0.2864
     49  CB        77.4030   54.7320   89.3360 C.3   101  ASN101      0.1181
     50  CG        78.8650   54.4550   89.0570 C.2   101  ASN101      0.2629
     51  OD1       79.4270   54.9730   88.0900 O.2   101  ASN101     -0.2716
     52  ND2       79.4980   53.6550   89.9150 N.am  101  ASN101     -0.0877
     53  N         73.8110   45.8900   87.5390 N.3   112  PHE112     -0.1241
     54  CA        74.2020   44.9660   86.5040 C.3   112  PHE112      0.1605
     55  C         74.6320   43.6430   87.1220 C.2   112  PHE112      0.2264
     56  O         75.0710   43.5660   88.2690 O.2   112  PHE112     -0.2867
     57  CB        75.2880   45.5440   85.5620 C.3   112  PHE112      0.0534
     58  CG        76.5930   45.9250   86.2350 C.ar  112  PHE112     -0.0203
     59  CD1       76.7140   47.1330   86.9290 C.ar  112  PHE112     -0.0042
     60  CD2       77.7250   45.1220   86.1400 C.ar  112  PHE112     -0.0042
     61  CE1       77.9220   47.5220   87.5090 C.ar  112  PHE112     -0.0003
     62  CE2       78.9400   45.5310   86.6910 C.ar  112  PHE112     -0.0003
     63  CZ        79.0310   46.7220   87.3770 C.ar  112  PHE112     -0.0000
     64  N         88.3030   45.7570   86.1770 N.3   120  TRP120     -0.1227
     65  CA        88.5660   47.1680   86.0170 C.3   120  TRP120      0.1737
     66  C         87.4880   48.0240   86.6760 C.2   120  TRP120      0.2595
     67  O         87.6780   49.2370   86.8480 O.2   120  TRP120     -0.2718
     68  CB        88.6990   47.5350   84.5270 C.3   120  TRP120      0.0564
     69  CG        87.4490   47.4240   83.7260 C.ar  120  TRP120      0.0003
     70  CD1       86.6060   48.4470   83.4150 C.ar  120  TRP120      0.0946
     71  CD2       86.8900   46.2570   83.1070 C.ar  120  TRP120      0.0152
     72  NE1       85.5540   47.9890   82.6660 N.ar  120  TRP120     -0.2442
     73  CE2       85.7120   46.6520   82.4440 C.ar  120  TRP120      0.0810
     74  CE3       87.3010   44.9220   82.9810 C.ar  120  TRP120      0.0012
     75  CZ2       84.9410   45.7430   81.7010 C.ar  120  TRP120      0.0191
     76  CZ3       86.5300   44.0520   82.2400 C.ar  120  TRP120      0.0001
     77  CH2       85.3580   44.4790   81.6080 C.ar  120  TRP120      0.0015
     78  N         86.3630   47.4110   87.0650 N.am  121  LEU121     -0.1980
     79  CA        85.3100   48.1270   87.7620 C.3   121  LEU121      0.1596
     80  C         85.5330   48.1520   89.2770 C.2   121  LEU121      0.2287
     81  O         84.8150   48.8660   89.9930 O.2   121  LEU121     -0.2864
     82  CB        83.9510   47.5390   87.3950 C.3   121  LEU121      0.0297
     83  CG        83.6350   47.5680   85.8970 C.3   121  LEU121      0.0022
     84  CD1       82.2740   46.9380   85.6550 C.3   121  LEU121      0.0001
     85  CD2       83.6750   48.9980   85.3290 C.3   121  LEU121      0.0001
     86  N         82.5950   50.7110   90.9880 N.3   125  HIS125     -0.1241
     87  CA        81.2080   50.2940   91.1680 C.3   125  HIS125      0.1621
     88  C         81.1180   49.4720   92.4460 C.2   125  HIS125      0.2264
     89  O         81.9870   48.6390   92.7290 O.2   125  HIS125     -0.2867
     90  CB        80.7340   49.4420   89.9670 C.3   125  HIS125      0.0745
     91  CG        80.6980   50.2620   88.7100 C.ar  125  HIS125      0.0817
     92  ND1       79.5530   50.8220   88.2200 N.ar  125  HIS125     -0.2268
     93  CD2       81.6970   50.6890   87.8980 C.ar  125  HIS125      0.1154
     94  CE1       79.8650   51.5490   87.1500 C.ar  125  HIS125      0.1986
     95  NE2       81.1640   51.4920   86.9190 N.ar  125  HIS125     -0.2212
@<TRIPOS>BOND
     1     2     3    1
     2     2     1    1
     3     2     5    1
     4     6     5    1
     5     6     7    1
     6     3     4    2
     7    12    13    1
     8     8     7    1
     9     8     9    2
    10    16    13    1
    11    16    17    1
    12    11     9    1
    13    19    17   ar
    14    19    21   ar
    15    13    14    1
    16     9    10    1
    17    17    18   ar
    18    26    25    2
    19    21    22   ar
    20    30    29    1
    21    23    14   am
    22    23    24    1
    23    14    15    2
    24    18    20   ar
    25    25    24    1
    26    22    20   ar
    27    77    75   ar
    28    77    76   ar
    29    75    73   ar
    30    24    27    1
    31    34    33    2
    32    29    28    1
    33    76    74   ar
    34    31    32    1
    35    28    27    1
    36    73    72   ar
    37    73    71   ar
    38    72    70   ar
    39    35    32    1
    40    35    36    1
    41    38    37    2
    42    74    71   ar
    43    33    32    1
    44    71    69   ar
    45    37    39   am
    46    37    36    1
    47    70    69   ar
    48    69    68    1
    49    68    65    1
    50    85    83    1
    51    57    58    1
    52    57    54    1
    53    84    83    1
    54    48    47    2
    55    83    82    1
    56    65    64    1
    57    65    66    1
    58    60    58   ar
    59    60    62   ar
    60    58    59   ar
    61    54    55    1
    62    54    53    1
    63    44    41    1
    64    66    67    2
    65    66    78   am
    66    62    63   ar
    67    95    94   ar
    68    95    93   ar
    69    47    46    1
    70    59    61   ar
    71    78    79    1
    72    55    56    2
    73    94    92   ar
    74    63    61   ar
    75    82    79    1
    76    45    46    1
    77    45    42   am
    78    41    42    1
    79    41    40    1
    80    79    80    1
    81    93    91   ar
    82    46    49    1
    83    51    50    2
    84    92    91   ar
    85    42    43    2
    86    91    90    1
    87    50    49    1
    88    50    52   am
    89    80    81    2
    90    90    87    1
    91    86    87    1
    92    87    88    1
    93    88    89    2
