@<TRIPOS>MOLECULE
tmp/4o8jA00.pdb
 144 140 0 0 0
SMALL
GASTEIGER

@<TRIPOS>ATOM
      1  N         44.5120   59.3050   33.6580 N.3    13  GLY13      -0.1210
      2  CA        43.1350   59.7540   33.7640 C.3    13  GLY13       0.1956
      3  C         42.5040   59.5360   35.1320 C.2    13  GLY13       0.2611
      4  O         41.5920   60.2620   35.5160 O.2    13  GLY13      -0.2717
      5  N         42.9790   58.5520   35.8820 N.am   14  GLN14      -0.1979
      6  CA        42.4230   58.2970   37.2020 C.3    14  GLN14       0.1601
      7  C         42.6110   59.4550   38.1810 C.2    14  GLN14       0.2287
      8  O         41.7720   59.6820   39.0610 O.2    14  GLN14      -0.2864
      9  CB        42.9910   57.0290   37.8140 C.3    14  GLN14       0.0394
     10  CG        42.1580   56.6080   39.0470 C.3    14  GLN14       0.0908
     11  CD        42.5600   55.2420   39.6170 C.2    14  GLN14       0.2608
     12  OE1       43.7320   54.9880   39.9160 O.2    14  GLN14      -0.2717
     13  NE2       41.5850   54.3680   39.7740 N.am   14  GLN14      -0.0878
     14  N         39.7400   61.6810   37.2950 N.3    17  ARG17      -0.1245
     15  CA        38.4650   61.0960   37.7380 C.3    17  ARG17       0.1563
     16  C         38.2280   61.1300   39.2500 C.2    17  ARG17       0.2260
     17  O         37.1500   61.5290   39.7460 O.2    17  ARG17      -0.2867
     18  CB        38.3420   59.6630   37.2290 C.3    17  ARG17       0.0307
     19  CG        38.0460   59.5710   35.7650 C.3    17  ARG17       0.0489
     20  CD        37.7190   58.1530   35.3360 C.3    17  ARG17       0.2205
     21  NE        38.8420   57.2500   35.5080 N.pl3  17  ARG17      -0.0865
     22  CZ        39.8390   57.0740   34.6410 C.cat  17  ARG17       0.5346
     23  NH1       39.9200   57.7560   33.5010 N.pl3  17  ARG17       0.1354
     24  NH2       40.7900   56.2150   34.9410 N.pl3  17  ARG17       0.1354
     25  N         50.7010   59.9110   29.5330 N.3    39  ARG39      -0.1245
     26  CA        49.9830   59.1560   28.5330 C.3    39  ARG39       0.1563
     27  C         50.3360   59.6980   27.1480 C.2    39  ARG39       0.2260
     28  O         50.6820   60.8710   27.0190 O.2    39  ARG39      -0.2867
     29  CB        48.4830   59.2300   28.8030 C.3    39  ARG39       0.0307
     30  CG        48.0670   58.5780   30.1260 C.3    39  ARG39       0.0489
     31  CD        48.1450   57.0630   30.0290 C.3    39  ARG39       0.2205
     32  NE        47.6110   56.3630   31.1980 N.pl3  39  ARG39      -0.0865
     33  CZ        48.3080   56.1460   32.3160 C.cat  39  ARG39       0.5346
     34  NH1       49.5500   56.6140   32.4350 N.pl3  39  ARG39       0.1354
     35  NH2       47.7650   55.4740   33.3300 N.pl3  39  ARG39       0.1354
     36  N         35.1700   53.4780   32.7110 N.3    97  LEU97      -0.1245
     37  CA        35.9490   54.5340   33.3550 C.3    97  LEU97       0.1561
     38  C         35.0810   55.7570   33.6170 C.2    97  LEU97       0.2260
     39  O         35.2790   56.4330   34.6080 O.2    97  LEU97      -0.2867
     40  CB        37.2180   54.8820   32.5850 C.3    97  LEU97       0.0270
     41  CG        38.2680   53.7420   32.5800 C.3    97  LEU97       0.0019
     42  CD1       39.4960   54.0930   31.7690 C.3    97  LEU97       0.0001
     43  CD2       38.6990   53.3190   33.9700 C.3    97  LEU97       0.0001
     44  N         33.6370   54.8110   36.7360 N.3   100  GLN100     -0.1245
     45  CA        34.6100   54.9390   37.7930 C.3   100  GLN100      0.1566
     46  C         34.6040   56.3690   38.3580 C.2   100  GLN100      0.2260
     47  O         34.6880   56.5500   39.5630 O.2   100  GLN100     -0.2867
     48  CB        35.9910   54.5300   37.3090 C.3   100  GLN100      0.0367
     49  CG        37.0590   54.7430   38.3640 C.3   100  GLN100      0.0905
     50  CD        38.4360   54.3340   37.9060 C.2   100  GLN100      0.2608
     51  OE1       39.2610   55.1890   37.4970 O.2   100  GLN100     -0.2717
     52  NE2       38.7100   53.0240   37.9780 N.am  100  GLN100     -0.0878
     53  N         42.8300   49.1270   27.8350 N.3   125  TRP125     -0.1227
     54  CA        43.3830   49.8830   28.9480 C.3   125  TRP125      0.1737
     55  C         42.2940   50.3490   29.8690 C.2   125  TRP125      0.2596
     56  O         42.3750   51.4320   30.4450 O.2   125  TRP125     -0.2718
     57  CB        44.2240   51.0670   28.4570 C.3   125  TRP125      0.0564
     58  CG        45.2080   50.6780   27.3810 C.ar  125  TRP125      0.0003
     59  CD1       46.2300   49.7720   27.4880 C.ar  125  TRP125      0.0946
     60  CD2       45.2560   51.1800   26.0320 C.ar  125  TRP125      0.0152
     61  NE1       46.8980   49.6740   26.2800 N.ar  125  TRP125     -0.2442
     62  CE2       46.3250   50.5290   25.3780 C.ar  125  TRP125      0.0810
     63  CE3       44.4860   52.0920   25.3110 C.ar  125  TRP125      0.0012
     64  CZ2       46.6520   50.7830   24.0410 C.ar  125  TRP125      0.0191
     65  CZ3       44.8150   52.3490   23.9870 C.ar  125  TRP125      0.0001
     66  CH2       45.8880   51.6920   23.3660 C.ar  125  TRP125      0.0015
     67  N         41.2720   49.5180   30.0290 N.am  126  SER126     -0.1938
     68  CA        40.1740   49.8430   30.9370 C.3   126  SER126      0.2040
     69  C         39.4800   48.5620   31.3510 C.2   126  SER126      0.2485
     70  O         39.6070   47.5420   30.6710 O.2   126  SER126     -0.2729
     71  CB        39.1840   50.8010   30.2620 C.3   126  SER126      0.2129
     72  OG        38.6660   50.2610   29.0480 O.3   126  SER126     -0.2179
     73  N         38.7430   48.6100   32.4680 N.am  127  PRO127     -0.2715
     74  CA        37.9950   47.4220   32.8670 C.3   127  PRO127      0.1521
     75  C         36.9610   47.0680   31.8160 C.2   127  PRO127      0.2440
     76  O         36.3100   47.9710   31.2790 O.2   127  PRO127     -0.2731
     77  CB        37.3120   47.8370   34.1830 C.3   127  PRO127      0.0310
     78  CG        38.0450   49.1060   34.6290 C.3   127  PRO127      0.0237
     79  CD        38.5140   49.7560   33.3780 C.3   127  PRO127      0.0939
     80  N         36.8320   45.7720   31.4940 N.am  128  PRO128     -0.2727
     81  CA        35.6720   45.3820   30.6830 C.3   128  PRO128      0.1402
     82  C         34.4180   45.5010   31.5460 C.2   128  PRO128      0.2269
     83  O         34.4900   45.3730   32.7750 O.2   128  PRO128     -0.2865
     84  CB        35.9560   43.9100   30.2900 C.3   128  PRO128      0.0296
     85  CG        36.9240   43.4260   31.2870 C.3   128  PRO128      0.0237
     86  CD        37.7250   44.6360   31.7860 C.3   128  PRO128      0.0939
     87  N         33.7580   42.9000   34.0760 N.3   131  TYR131     -0.1241
     88  CA        34.6120   42.9580   35.2640 C.3   131  TYR131      0.1605
     89  C         33.9720   43.8900   36.3030 C.2   131  TYR131      0.2264
     90  O         33.8810   43.5720   37.4780 O.2   131  TYR131     -0.2867
     91  CB        36.0400   43.3950   34.9100 C.3   131  TYR131      0.0534
     92  CG        36.9440   43.4700   36.1170 C.ar  131  TYR131     -0.0201
     93  CD1       36.8610   44.5420   37.0070 C.ar  131  TYR131     -0.0009
     94  CD2       37.8470   42.4630   36.3930 C.ar  131  TYR131     -0.0009
     95  CE1       37.6650   44.6010   38.1290 C.ar  131  TYR131      0.0417
     96  CE2       38.6590   42.5120   37.4990 C.ar  131  TYR131      0.0417
     97  CZ        38.5570   43.5830   38.3820 C.ar  131  TYR131      0.1957
     98  OH        39.3570   43.6110   39.4970 O.3   131  TYR131     -0.2866
     99  N         41.0950   39.1400   32.6340 N.3   250  ASP250     -0.1239
    100  CA        40.3540   39.4060   31.4210 C.3   250  ASP250      0.1674
    101  C         41.2680   39.7310   30.2510 C.2   250  ASP250      0.2266
    102  O         42.4360   39.9800   30.4270 O.2   250  ASP250     -0.2867
    103  CB        39.3280   40.5210   31.6130 C.3   250  ASP250      0.1410
    104  CG        39.9500   41.8360   32.1000 C.2   250  ASP250      0.3668
    105  OD1       40.6530   42.5080   31.3060 O.co2 250  ASP250     -0.2456
    106  OD2       39.6850   42.2150   33.2640 O.co2 250  ASP250     -0.2456
    107  N         43.7970   45.2220   40.1900 N.3   283  PHE283     -0.1241
    108  CA        42.9200   46.2300   39.5920 C.3   283  PHE283      0.1605
    109  C         41.9250   46.7400   40.6050 C.2   283  PHE283      0.2264
    110  O         41.7480   47.9410   40.7980 O.2   283  PHE283     -0.2867
    111  CB        42.1660   45.6320   38.4020 C.3   283  PHE283      0.0534
    112  CG        43.0660   45.0120   37.3690 C.ar  283  PHE283     -0.0203
    113  CD1       43.8430   45.8000   36.5450 C.ar  283  PHE283     -0.0042
    114  CD2       43.1600   43.6430   37.2610 C.ar  283  PHE283     -0.0042
    115  CE1       44.6940   45.2280   35.6090 C.ar  283  PHE283     -0.0003
    116  CE2       44.0140   43.0610   36.3250 C.ar  283  PHE283     -0.0003
    117  CZ        44.7650   43.8640   35.4930 C.ar  283  PHE283     -0.0000
    118  N         43.1330   49.2480   43.2800 N.3   286  ASP286     -0.1225
    119  CA        43.1270   50.6770   43.0260 C.3   286  ASP286      0.1805
    120  C         41.6930   51.2380   42.9790 C.2   286  ASP286      0.2597
    121  O         41.4430   52.3770   43.3840 O.2   286  ASP286     -0.2718
    122  CB        44.0100   51.0370   41.8070 C.3   286  ASP286      0.1424
    123  CG        43.2930   50.9680   40.4500 C.2   286  ASP286      0.3668
    124  OD1       42.2630   51.6380   40.2430 O.co2 286  ASP286     -0.2456
    125  OD2       43.8210   50.2800   39.5440 O.co2 286  ASP286     -0.2456
    126  N         40.7430   50.4160   42.5530 N.am  287  GLN287     -0.1979
    127  CA        39.3930   50.8880   42.3380 C.3   287  GLN287      0.1601
    128  C         38.6820   51.0990   43.6550 C.2   287  GLN287      0.2287
    129  O         37.8000   51.9550   43.7590 O.2   287  GLN287     -0.2864
    130  CB        38.6250   49.9150   41.4510 C.3   287  GLN287      0.0394
    131  CG        39.2090   49.8410   40.0550 C.3   287  GLN287      0.0908
    132  CD        38.5600   48.7930   39.2000 C.2   287  GLN287      0.2608
    133  OE1       37.3760   48.5180   39.3340 O.2   287  GLN287     -0.2717
    134  NE2       39.3440   48.1870   38.3150 N.am  287  GLN287     -0.0878
    135  N         49.0240   52.8120   40.0900 N.3   307  HIS307     -0.1241
    136  CA        47.6550   53.3030   40.0720 C.3   307  HIS307      0.1621
    137  C         47.1620   53.4040   41.4740 C.2   307  HIS307      0.2264
    138  O         46.5710   54.4120   41.8630 O.2   307  HIS307     -0.2867
    139  CB        46.7230   52.3910   39.2650 C.3   307  HIS307      0.0745
    140  CG        46.6420   52.7640   37.8270 C.ar  307  HIS307      0.0817
    141  ND1       47.5390   52.3020   36.8900 N.ar  307  HIS307     -0.2268
    142  CD2       45.7940   53.5960   37.1660 C.ar  307  HIS307      0.1154
    143  CE1       47.2360   52.8160   35.7110 C.ar  307  HIS307      0.1986
    144  NE2       46.1730   53.5940   35.8470 N.ar  307  HIS307     -0.2212
@<TRIPOS>BOND
     1    66    65   ar
     2    66    64   ar
     3    65    63   ar
     4    64    62   ar
     5    63    60   ar
     6    62    60   ar
     7    62    61   ar
     8    60    58   ar
     9    61    59   ar
    10    28    27    2
    11    27    26    1
    12    58    59   ar
    13    58    57    1
    14    53    54    1
    15    57    54    1
    16    26    29    1
    17    26    25    1
    18    29    30    1
    19    54    55    1
    20    72    71    1
    21    55    67   am
    22    55    56    2
    23    67    68    1
    24    31    30    1
    25    31    32    1
    26   101   102    2
    27   101   100    1
    28    71    68    1
    29    84    81    1
    30    84    85    1
    31    70    69    2
    32    81    80    1
    33    81    82    1
    34    68    69    1
    35    32    33    2
    36    76    75    2
    37    85    86    1
    38   105   104   ar
    39    69    73   am
    40   100   103    1
    41   100    99    1
    42    80    86    1
    43    80    75   am
    44    82    83    2
    45   103   104    1
    46    42    41    1
    47    75    74    1
    48   104   106   ar
    49    33    34    1
    50    33    35    1
    51    73    74    1
    52    73    79    1
    53    41    40    1
    54    41    43    1
    55    40    37    1
    56    36    37    1
    57    74    77    1
    58    37    38    1
    59    79    78    1
    60    23    22    1
    61    38    39    2
    62     1     2    1
    63     2     3    1
    64    87    88    1
    65    77    78    1
    66    22    24    1
    67    22    21    2
    68    91    88    1
    69    91    92    1
    70     3     4    2
    71     3     5   am
    72    88    89    1
    73    20    21    1
    74    20    19    1
    75   117   115   ar
    76   117   116   ar
    77   115   113   ar
    78   143   144   ar
    79   143   141   ar
    80    19    18    1
    81   144   142   ar
    82     5     6    1
    83    92    94   ar
    84    92    93   ar
    85    89    90    2
    86   116   114   ar
    87    94    96   ar
    88   113   112   ar
    89    44    45    1
    90   141   140   ar
    91    93    95   ar
    92   142   140   ar
    93     6     9    1
    94     6     7    1
    95    18    15    1
    96   114   112   ar
    97    14    15    1
    98    48    45    1
    99    48    49    1
   100   112   111    1
   101    51    50    2
   102    96    97   ar
   103    15    16    1
   104    45    46    1
   105     9    10    1
   106   140   139    1
   107    50    52   am
   108    50    49    1
   109    95    97   ar
   110     7     8    2
   111   134   132   am
   112    46    47    2
   113    97    98    1
   114   111   108    1
   115    10    11    1
   116   132   133    2
   117   132   131    1
   118    16    17    2
   119   139   136    1
   120   125   123   ar
   121   108   107    1
   122   108   109    1
   123    11    13   am
   124    11    12    2
   125   131   130    1
   126   136   135    1
   127   136   137    1
   128   124   123   ar
   129   123   122    1
   130   109   110    2
   131   130   127    1
   132   137   138    2
   133   122   119    1
   134   127   126    1
   135   127   128    1
   136   126   120   am
   137   120   119    1
   138   120   121    2
   139   119   118    1
   140   128   129    2
