@<TRIPOS>MOLECULE
tmp/4o8mC00.pdb
 125 115 0 0 0
SMALL
GASTEIGER

@<TRIPOS>ATOM
      1  N         32.9690  112.9200   45.0170 N.3     9  GLY9       -0.1210
      2  CA        32.6870  112.4740   46.3760 C.3     9  GLY9        0.1956
      3  C         32.7070  113.5900   47.4020 C.2     9  GLY9        0.2611
      4  O         32.2630  113.4170   48.5340 O.2     9  GLY9       -0.2717
      5  N         33.1980  114.7480   46.9920 N.am   10  ASN10      -0.1974
      6  CA        33.3670  115.8900   47.8840 C.3    10  ASN10       0.1688
      7  C         32.0430  116.5250   48.2240 C.2    10  ASN10       0.2292
      8  O         31.0700  116.3970   47.4710 O.2    10  ASN10      -0.2864
      9  CB        34.3070  116.8840   47.2270 C.3    10  ASN10       0.1181
     10  CG        35.6020  116.2310   46.8280 C.2    10  ASN10       0.2629
     11  OD1       35.7540  115.7590   45.6870 O.2    10  ASN10      -0.2716
     12  ND2       36.4950  116.0780   47.7990 N.am   10  ASN10      -0.0877
     13  N         32.7590  106.0690   43.4910 N.3    48  GLU48      -0.1245
     14  CA        33.6210  106.5360   42.4290 C.3    48  GLU48       0.1567
     15  C         33.8380  105.3960   41.4370 C.2    48  GLU48       0.2260
     16  O         33.8720  105.6040   40.2040 O.2    48  GLU48      -0.2867
     17  CB        34.9480  107.0270   43.0320 C.3    48  GLU48       0.0388
     18  CG        35.8310  107.8320   42.0550 C.3    48  GLU48       0.1160
     19  CD        36.9350  108.5930   42.7530 C.2    48  GLU48       0.3649
     20  OE1       36.6670  109.1940   43.8400 O.co2  48  GLU48      -0.2457
     21  OE2       38.0930  108.5450   42.2690 O.co2  48  GLU48      -0.2457
     22  N         35.0550  112.3690   38.4040 N.3    64  ILE64      -0.1231
     23  CA        36.4110  112.2950   38.9590 C.3    64  ILE64       0.1692
     24  C         36.8130  110.8280   38.9740 C.2    64  ILE64       0.2593
     25  O         35.9680  109.9400   39.0350 O.2    64  ILE64      -0.2718
     26  CB        36.4850  112.9350   40.3740 C.3    64  ILE64       0.0266
     27  CG1       37.8810  113.5270   40.6640 C.3    64  ILE64       0.0019
     28  CG2       36.0800  111.9040   41.4300 C.3    64  ILE64       0.0020
     29  CD1       37.9560  114.2730   42.0550 C.3    64  ILE64       0.0001
     30  N         38.1070  110.5770   38.8610 N.am   65  SER65      -0.1938
     31  CA        38.6430  109.2430   38.8730 C.3    65  SER65       0.2055
     32  C         40.0170  109.4310   39.4890 C.2    65  SER65       0.2643
     33  O         40.2950  110.4700   40.0690 O.2    65  SER65      -0.2714
     34  CB        38.7240  108.6590   37.4500 C.3    65  SER65       0.2130
     35  OG        39.2570  107.3370   37.4330 O.3    65  SER65      -0.2179
     36  N         40.8650  108.4230   39.3700 N.am   66  ASP66      -0.1971
     37  CA        42.1140  108.4150   40.0670 C.3    66  ASP66       0.1709
     38  C         43.1290  107.6220   39.2860 C.2    66  ASP66       0.2293
     39  O         42.8280  106.5250   38.8330 O.2    66  ASP66      -0.2864
     40  CB        41.8800  107.7730   41.4620 C.3    66  ASP66       0.1436
     41  CG        43.1550  107.5520   42.2360 C.2    66  ASP66       0.3671
     42  OD1       43.8350  108.5380   42.5410 O.co2  66  ASP66      -0.2456
     43  OD2       43.4740  106.3840   42.5580 O.co2  66  ASP66      -0.2456
     44  N         43.9850  118.1940   43.8340 N.3   122  TYR122     -0.1241
     45  CA        43.1020  117.6740   44.9030 C.3   122  TYR122      0.1605
     46  C         43.5560  118.0180   46.3090 C.2   122  TYR122      0.2264
     47  O         42.7320  118.1670   47.2200 O.2   122  TYR122     -0.2867
     48  CB        42.9800  116.1270   44.7560 C.3   122  TYR122      0.0534
     49  CG        41.7610  115.5160   45.3870 C.ar  122  TYR122     -0.0201
     50  CD1       40.4970  115.7420   44.8560 C.ar  122  TYR122     -0.0009
     51  CD2       41.8690  114.7290   46.5230 C.ar  122  TYR122     -0.0009
     52  CE1       39.3950  115.2110   45.4280 C.ar  122  TYR122      0.0417
     53  CE2       40.7790  114.1840   47.1110 C.ar  122  TYR122      0.0417
     54  CZ        39.5330  114.4240   46.5810 C.ar  122  TYR122      0.1957
     55  OH        38.4630  113.8380   47.1880 O.3   122  TYR122     -0.2866
     56  N         47.4560  114.5760   50.7340 N.3   125  ARG125     -0.1245
     57  CA        46.8590  113.5690   51.6170 C.3   125  ARG125      0.1563
     58  C         47.7080  113.3170   52.8410 C.2   125  ARG125      0.2260
     59  O         48.9430  113.2350   52.7560 O.2   125  ARG125     -0.2867
     60  CB        46.6690  112.2440   50.8620 C.3   125  ARG125      0.0307
     61  CG        46.0510  112.3810   49.4470 C.3   125  ARG125      0.0489
     62  CD        45.8650  111.0070   48.7950 C.3   125  ARG125      0.2205
     63  NE        44.7480  110.2750   49.3580 N.pl3 125  ARG125     -0.0865
     64  CZ        43.5060  110.2900   48.8890 C.cat 125  ARG125      0.5346
     65  NH1       43.1890  111.0200   47.8080 N.pl3 125  ARG125      0.1354
     66  NH2       42.5800  109.5640   49.5070 N.pl3 125  ARG125      0.1354
     67  N         41.4160  102.9490   56.3250 N.3   145  ARG145     -0.1245
     68  CA        40.6360  102.8410   55.1220 C.3   145  ARG145      0.1563
     69  C         41.4000  103.4000   53.9490 C.2   145  ARG145      0.2260
     70  O         42.1050  104.4130   54.0560 O.2   145  ARG145     -0.2867
     71  CB        39.3210  103.5940   55.2840 C.3   145  ARG145      0.0307
     72  CG        38.4730  103.6870   54.0150 C.3   145  ARG145      0.0489
     73  CD        38.8810  104.8700   53.1600 C.3   145  ARG145      0.2205
     74  NE        38.1040  104.9640   51.9430 N.pl3 145  ARG145     -0.0865
     75  CZ        38.1300  106.0200   51.1400 C.cat 145  ARG145      0.5346
     76  NH1       38.9220  107.0290   51.4370 N.pl3 145  ARG145      0.1354
     77  NH2       37.3650  106.0610   50.0630 N.pl3 145  ARG145      0.1354
     78  N         40.5440  104.0330   49.5450 N.3   147  GLN147     -0.1245
     79  CA        39.6180  103.8200   48.4610 C.3   147  GLN147      0.1566
     80  C         40.0200  102.5340   47.7120 C.2   147  GLN147      0.2260
     81  O         41.0710  101.9320   47.9970 O.2   147  GLN147     -0.2867
     82  CB        39.5950  105.0340   47.5300 C.3   147  GLN147      0.0367
     83  CG        40.7620  105.1330   46.6100 C.3   147  GLN147      0.0905
     84  CD        40.9420  106.5360   46.0660 C.2   147  GLN147      0.2608
     85  OE1       40.6430  106.8270   44.8970 O.2   147  GLN147     -0.2717
     86  NE2       41.4650  107.3850   46.8820 N.am  147  GLN147     -0.0878
     87  N         34.0610  106.0480   49.8700 N.3   168  LEU168     -0.1245
     88  CA        34.1190  107.2340   50.7240 C.3   168  LEU168      0.1561
     89  C         32.8810  107.4010   51.5910 C.2   168  LEU168      0.2260
     90  O         32.9900  107.7730   52.7740 O.2   168  LEU168     -0.2867
     91  CB        34.3510  108.4850   49.8730 C.3   168  LEU168      0.0270
     92  CG        34.5680  109.7730   50.6680 C.3   168  LEU168      0.0019
     93  CD1       35.8210  109.6070   51.5370 C.3   168  LEU168      0.0001
     94  CD2       34.7200  110.9400   49.6990 C.3   168  LEU168      0.0001
     95  N         43.4790  111.5340   53.4210 N.3   185  ASN185     -0.1240
     96  CA        42.9080  112.4770   52.4910 C.3   185  ASN185      0.1653
     97  C         43.4600  113.8540   52.7980 C.2   185  ASN185      0.2266
     98  O         44.0210  114.0710   53.8640 O.2   185  ASN185     -0.2867
     99  CB        41.3790  112.5120   52.6220 C.3   185  ASN185      0.1155
    100  CG        40.6550  111.7660   51.5110 C.2   185  ASN185      0.2627
    101  OD1       40.9430  111.9340   50.3140 O.2   185  ASN185     -0.2716
    102  ND2       39.6800  110.9340   51.9050 N.am  185  ASN185     -0.0877
    103  N         39.0980  117.6660   52.4180 N.3   189  VAL189     -0.1245
    104  CA        38.1990  116.5350   52.3380 C.3   189  VAL189      0.1561
    105  C         37.9020  115.8970   53.7010 C.2   189  VAL189      0.2260
    106  O         36.7790  115.4720   53.9570 O.2   189  VAL189     -0.2867
    107  CB        38.7650  115.4800   51.4020 C.3   189  VAL189      0.0252
    108  CG1       37.7860  114.3290   51.2470 C.3   189  VAL189      0.0019
    109  CG2       39.1340  116.1150   50.0300 C.3   189  VAL189      0.0019
    110  N         48.2030  115.1260   45.6170 N.3   210  HIS210     -0.1241
    111  CA        47.2590  114.3870   44.7720 C.3   210  HIS210      0.1621
    112  C         46.6970  115.2040   43.5710 C.2   210  HIS210      0.2264
    113  O         46.0420  116.2450   43.7350 O.2   210  HIS210     -0.2867
    114  CB        46.1050  113.8580   45.6260 C.3   210  HIS210      0.0745
    115  CG        45.2400  112.8560   44.9310 C.ar  210  HIS210      0.0817
    116  ND1       45.2480  111.5090   45.2610 N.ar  210  HIS210     -0.2268
    117  CD2       44.3380  112.9890   43.9240 C.ar  210  HIS210      0.1154
    118  CE1       44.3920  110.8650   44.4810 C.ar  210  HIS210      0.1986
    119  NE2       43.8370  111.7370   43.6560 N.ar  210  HIS210     -0.2212
    120  N         44.1670  114.9740   40.2810 N.3   212  SER212     -0.1217
    121  CA        42.9750  114.2520   39.8370 C.3   212  SER212      0.1889
    122  C         42.5930  114.4460   38.3520 C.2   212  SER212      0.2288
    123  O         42.5290  115.5770   37.8850 O.2   212  SER212     -0.2866
    124  CB        41.7840  114.7320   40.6430 C.3   212  SER212      0.2089
    125  OG        41.8880  114.3230   42.0080 O.3   212  SER212     -0.2183
@<TRIPOS>BOND
     1    35    34    1
     2    34    31    1
     3   123   122    2
     4   122   121    1
     5    22    23    1
     6    39    38    2
     7    30    31    1
     8    30    24   am
     9    31    32    1
    10    23    24    1
    11    23    26    1
    12    24    25    2
    13    38    37    1
    14    36    32   am
    15    36    37    1
    16    32    33    2
    17   121   120    1
    18   121   124    1
    19    37    40    1
    20    16    15    2
    21    26    27    1
    22    26    28    1
    23   124   125    1
    24    27    29    1
    25    15    14    1
    26    40    41    1
    27    18    19    1
    28    18    17    1
    29    41    42   ar
    30    41    43   ar
    31    21    19   ar
    32    14    17    1
    33    14    13    1
    34    19    20   ar
    35   112   113    2
    36   112   111    1
    37   119   117   ar
    38   119   118   ar
    39    44    45    1
    40   117   115   ar
    41   118   116   ar
    42    48    45    1
    43    48    49    1
    44   111   110    1
    45   111   114    1
    46    50    49   ar
    47    50    52   ar
    48    85    84    2
    49    45    46    1
    50   115   116   ar
    51   115   114    1
    52     1     2    1
    53    49    51   ar
    54    52    54   ar
    55    11    10    2
    56    84    83    1
    57    84    86   am
    58    46    47    2
    59     2     3    1
    60    51    53   ar
    61    54    53   ar
    62    54    55    1
    63    83    82    1
    64    10     9    1
    65    10    12   am
    66     5     3   am
    67     5     6    1
    68     9     6    1
    69     3     4    2
    70     8     7    2
    71    82    79    1
    72    80    81    2
    73    80    79    1
    74    65    64    1
    75     6     7    1
    76    79    78    1
    77    62    63    1
    78    62    61    1
    79    64    63    2
    80    64    66    1
    81    61    60    1
    82    94    92    1
    83    87    88    1
    84    91    92    1
    85    91    88    1
    86   109   107    1
    87    77    75    1
    88   101   100    2
    89    92    93    1
    90    88    89    1
    91    56    57    1
    92    60    57    1
    93    75    76    1
    94    75    74    2
    95   108   107    1
    96   107   104    1
    97   100   102   am
    98   100    99    1
    99    89    90    2
   100    57    58    1
   101    74    73    1
   102   104   103    1
   103   104   105    1
   104    96    99    1
   105    96    97    1
   106    96    95    1
   107    59    58    2
   108    97    98    2
   109    73    72    1
   110   105   106    2
   111    69    70    2
   112    69    68    1
   113    72    71    1
   114    68    71    1
   115    68    67    1
