@<TRIPOS>MOLECULE
tmp/4o8nA00.pdb
 152 146 0 0 0
SMALL
GASTEIGER

@<TRIPOS>ATOM
      1  N        -15.7120  -15.5700   15.1770 N.3    26  LYS26      -0.1231
      2  CA       -15.1570  -16.8600   15.6190 C.3    26  LYS26       0.1693
      3  C        -14.2820  -17.5280   14.5680 C.2    26  LYS26       0.2592
      4  O        -14.3490  -17.2020   13.3810 O.2    26  LYS26      -0.2718
      5  CB       -16.2750  -17.8530   15.9650 C.3    26  LYS26       0.0285
      6  CG       -17.1610  -17.4760   17.1750 C.3    26  LYS26       0.0035
      7  CD       -18.1650  -18.5800   17.5000 C.3    26  LYS26       0.0206
      8  CE       -17.4330  -19.8200   18.0290 C.3    26  LYS26       0.1093
      9  NZ       -18.3640  -20.9760   18.1940 N.3    26  LYS26      -0.1314
     10  N        -13.4900  -18.4950   15.0150 N.am   27  ASP27      -0.1974
     11  CA       -12.8860  -19.4840   14.0960 C.3    27  ASP27       0.1709
     12  C        -11.9830  -18.8430   13.0490 C.2    27  ASP27       0.2293
     13  O        -11.9890  -19.2420   11.8710 O.2    27  ASP27      -0.2864
     14  CB       -13.9920  -20.3110   13.3840 C.3    27  ASP27       0.1436
     15  CG       -15.0410  -20.8780   14.3390 C.2    27  ASP27       0.3671
     16  OD1      -14.7470  -21.1260   15.5370 O.co2  27  ASP27      -0.2456
     17  OD2      -16.1800  -21.1410   13.8680 O.co2  27  ASP27      -0.2456
     18  N        -16.1230  -16.8880   11.1710 N.3    42  THR42      -0.1218
     19  CA       -17.4990  -17.2820   11.4210 C.3    42  THR42       0.1862
     20  C        -18.2220  -16.1610   12.1490 C.2    42  THR42       0.2287
     21  O        -17.6370  -15.5150   13.0200 O.2    42  THR42      -0.2866
     22  CB       -17.5390  -18.5520   12.3070 C.3    42  THR42       0.1770
     23  OG1      -16.8610  -19.6420   11.6380 O.3    42  THR42      -0.2211
     24  CG2      -18.9750  -18.9400   12.6610 C.3    42  THR42       0.0375
     25  N        -25.8980  -18.8980   11.8150 N.3    50  TRP50      -0.1241
     26  CA       -24.4700  -18.9030   11.5680 C.3    50  TRP50       0.1605
     27  C        -24.1920  -18.3070   10.1940 C.2    50  TRP50       0.2264
     28  O        -24.9680  -18.5090    9.2440 O.2    50  TRP50      -0.2867
     29  CB       -23.8920  -20.3220   11.5900 C.3    50  TRP50       0.0550
     30  CG       -23.9380  -20.9990   12.9040 C.ar   50  TRP50       0.0003
     31  CD1      -24.7850  -21.9980   13.2810 C.ar   50  TRP50       0.0946
     32  CD2      -23.0670  -20.7690   14.0110 C.ar   50  TRP50       0.0152
     33  NE1      -24.5140  -22.3860   14.5800 N.ar   50  TRP50      -0.2442
     34  CE2      -23.4680  -21.6420   15.0470 C.ar   50  TRP50       0.0810
     35  CE3      -22.0150  -19.8790   14.2460 C.ar   50  TRP50       0.0012
     36  CZ2      -22.8320  -21.6720   16.2870 C.ar   50  TRP50       0.0191
     37  CZ3      -21.3790  -19.9120   15.4750 C.ar   50  TRP50       0.0001
     38  CH2      -21.8070  -20.8030   16.4880 C.ar   50  TRP50       0.0015
     39  N        -18.6840  -21.4540    7.0180 N.3    77  VAL77      -0.1231
     40  CA       -18.4440  -21.5530    8.4630 C.3    77  VAL77       0.1692
     41  C        -17.1360  -22.2950    8.7510 C.2    77  VAL77       0.2591
     42  O        -16.7780  -23.2570    8.0500 O.2    77  VAL77      -0.2718
     43  CB       -19.6420  -22.2410    9.1470 C.3    77  VAL77       0.0266
     44  CG1      -19.3360  -22.5910   10.6140 C.3    77  VAL77       0.0020
     45  CG2      -20.8830  -21.3150    9.0800 C.3    77  VAL77       0.0020
     46  N        -16.4180  -21.8030    9.7760 N.am   78  ALA78      -0.1980
     47  CA       -15.0810  -22.2990   10.1580 C.3    78  ALA78       0.1597
     48  C        -14.1380  -22.4040    8.9540 C.2    78  ALA78       0.2287
     49  O        -13.6220  -23.4670    8.6240 O.2    78  ALA78      -0.2864
     50  CB       -15.1980  -23.6380   10.8760 C.3    78  ALA78       0.0319
     51  N        -17.0760  -25.7070    6.0150 N.3    95  GLN95      -0.1231
     52  CA       -17.9830  -26.8120    6.2900 C.3    95  GLN95       0.1698
     53  C        -19.4430  -26.3600    6.1530 C.2    95  GLN95       0.2592
     54  O        -19.7210  -25.1720    5.9270 O.2    95  GLN95      -0.2718
     55  CB       -17.7380  -27.3710    7.6940 C.3    95  GLN95       0.0381
     56  CG       -18.1830  -26.4160    8.8170 C.3    95  GLN95       0.0905
     57  CD       -17.6310  -26.8330   10.1690 C.2    95  GLN95       0.2608
     58  OE1      -16.4540  -27.1680   10.2820 O.2    95  GLN95      -0.2717
     59  NE2      -18.4790  -26.8380   11.1880 N.am   95  GLN95      -0.0878
     60  N        -20.3390  -27.3320    6.2840 N.am   96  TRP96      -0.1976
     61  CA       -21.7850  -27.1470    6.2730 C.3    96  TRP96       0.1640
     62  C        -22.3070  -26.7800    4.9010 C.2    96  TRP96       0.2290
     63  O        -23.4250  -26.2610    4.7820 O.2    96  TRP96      -0.2864
     64  CB       -22.2080  -26.0950    7.3010 C.3    96  TRP96       0.0576
     65  CG       -22.0870  -26.5790    8.7030 C.ar   96  TRP96       0.0006
     66  CD1      -21.6950  -27.8240    9.1280 C.ar   96  TRP96       0.0946
     67  CD2      -22.3100  -25.8060    9.8800 C.ar   96  TRP96       0.0152
     68  NE1      -21.6880  -27.8700   10.5050 N.ar   96  TRP96      -0.2442
     69  CE2      -22.0540  -26.6410   10.9880 C.ar   96  TRP96       0.0810
     70  CE3      -22.7080  -24.4840   10.1030 C.ar   96  TRP96       0.0012
     71  CZ2      -22.2050  -26.1990   12.3040 C.ar   96  TRP96       0.0191
     72  CZ3      -22.8400  -24.0430   11.3950 C.ar   96  TRP96       0.0001
     73  CH2      -22.6010  -24.8960   12.4830 C.ar   96  TRP96       0.0015
     74  N        -21.2260  -34.5700   15.0930 N.3   131  THR131     -0.1218
     75  CA       -21.0410  -33.4120   14.2250 C.3   131  THR131      0.1862
     76  C        -20.7040  -33.8130   12.8020 C.2   131  THR131      0.2287
     77  O        -20.9100  -33.0250   11.8680 O.2   131  THR131     -0.2866
     78  CB       -19.8960  -32.4930   14.7250 C.3   131  THR131      0.1770
     79  OG1      -18.6710  -33.2470   14.7940 O.3   131  THR131     -0.2211
     80  CG2      -20.2170  -31.9350   16.1080 C.3   131  THR131      0.0375
     81  N        -15.4140  -31.8450   11.0680 N.3   134  ILE134     -0.1231
     82  CA       -15.4870  -30.4020   11.2960 C.3   134  ILE134      0.1692
     83  C        -14.1060  -29.7740   11.3080 C.2   134  ILE134      0.2592
     84  O        -13.1060  -30.4790   11.4500 O.2   134  ILE134     -0.2718
     85  CB       -16.1800  -30.0480   12.6320 C.3   134  ILE134      0.0266
     86  CG1      -15.5730  -30.8690   13.7840 C.3   134  ILE134      0.0019
     87  CG2      -17.6930  -30.2930   12.5350 C.3   134  ILE134      0.0020
     88  CD1      -15.9030  -30.3440   15.2040 C.3   134  ILE134      0.0001
     89  N        -14.0790  -28.4550   11.1190 N.am  135  ASP135     -0.1974
     90  CA       -12.8810  -27.6330   11.3560 C.3   135  ASP135      0.1709
     91  C        -11.6950  -28.1050   10.5300 C.2   135  ASP135      0.2293
     92  O        -10.5980  -28.3520   11.0630 O.2   135  ASP135     -0.2864
     93  CB       -12.5390  -27.6190   12.8550 C.3   135  ASP135      0.1436
     94  CG       -13.6320  -26.9860   13.6870 C.2   135  ASP135      0.3671
     95  OD1      -14.5880  -26.4210   13.0820 O.co2 135  ASP135     -0.2456
     96  OD2      -13.5180  -27.0240   14.9340 O.co2 135  ASP135     -0.2456
     97  N        -15.1980  -33.5980   17.0490 N.3   152  ASP152     -0.1239
     98  CA       -15.7190  -33.3800   18.4040 C.3   152  ASP152      0.1674
     99  C        -15.7970  -34.7290   19.1260 C.2   152  ASP152      0.2266
    100  O        -16.7480  -35.0050   19.8700 O.2   152  ASP152     -0.2867
    101  CB       -17.0980  -32.7060   18.3720 C.3   152  ASP152      0.1410
    102  CG       -17.0210  -31.1760   18.3850 C.2   152  ASP152      0.3668
    103  OD1      -15.9040  -30.6280   18.3590 O.co2 152  ASP152     -0.2456
    104  OD2      -18.0910  -30.5230   18.4510 O.co2 152  ASP152     -0.2456
    105  N        -11.4550  -30.1720   18.8200 N.3   187  GLU187     -0.1245
    106  CA       -11.7500  -29.5700   17.5240 C.3   187  GLU187      0.1567
    107  C        -10.6760  -28.5600   17.1290 C.2   187  GLU187      0.2260
    108  O         -9.5970  -28.5370   17.7290 O.2   187  GLU187     -0.2867
    109  CB       -13.1310  -28.9090   17.5750 C.3   187  GLU187      0.0388
    110  CG       -13.2420  -27.8050   18.6240 C.3   187  GLU187      0.1160
    111  CD       -14.6920  -27.3910   18.9110 C.2   187  GLU187      0.3649
    112  OE1      -15.6560  -28.0960   18.5230 O.co2 187  GLU187     -0.2457
    113  OE2      -14.8830  -26.3290   19.5250 O.co2 187  GLU187     -0.2457
    114  N        -10.5600  -21.5830   19.1130 N.3   254  HIS254     -0.1241
    115  CA       -10.4260  -21.6820   17.6490 C.3   254  HIS254      0.1621
    116  C         -9.8730  -20.4520   16.9330 C.2   254  HIS254      0.2264
    117  O        -10.5350  -19.4080   16.8610 O.2   254  HIS254     -0.2867
    118  CB       -11.8070  -22.0230   17.0330 C.3   254  HIS254      0.0745
    119  CG       -11.7320  -22.6010   15.6540 C.ar  254  HIS254      0.0817
    120  ND1      -12.7000  -23.4500   15.1530 N.ar  254  HIS254     -0.2268
    121  CD2      -10.8010  -22.4640   14.6750 C.ar  254  HIS254      0.1154
    122  CE1      -12.3660  -23.8090   13.9210 C.ar  254  HIS254      0.1986
    123  NE2      -11.2160  -23.2250   13.6050 N.ar  254  HIS254     -0.2212
    124  N         -9.8960  -16.9220   19.3920 N.3   278  GLN278     -0.1245
    125  CA       -11.1470  -16.3770   19.9070 C.3   278  GLN278      0.1566
    126  C        -11.2050  -16.5390   21.4210 C.2   278  GLN278      0.2260
    127  O        -10.8220  -17.5840   21.9720 O.2   278  GLN278     -0.2867
    128  CB       -12.3550  -17.0570   19.2600 C.3   278  GLN278      0.0367
    129  CG       -12.4800  -18.5340   19.5930 C.3   278  GLN278      0.0905
    130  CD       -13.6410  -19.1980   18.8870 C.2   278  GLN278      0.2608
    131  OE1      -14.1320  -18.6990   17.8660 O.2   278  GLN278     -0.2717
    132  NE2      -14.1040  -20.3170   19.4330 N.am  278  GLN278     -0.0878
    133  N        -24.2530  -21.9440   24.2310 N.3   288  TYR288     -0.1227
    134  CA       -22.9660  -21.9080   23.5610 C.3   288  TYR288      0.1736
    135  C        -23.0040  -21.0620   22.2680 C.2   288  TYR288      0.2595
    136  O        -22.0980  -20.2720   22.0220 O.2   288  TYR288     -0.2718
    137  CB       -22.4730  -23.3310   23.2400 C.3   288  TYR288      0.0548
    138  CG       -21.1890  -23.2580   22.4710 C.ar  288  TYR288     -0.0200
    139  CD1      -19.9800  -23.0690   23.1370 C.ar  288  TYR288     -0.0009
    140  CD2      -21.1880  -23.2880   21.0790 C.ar  288  TYR288     -0.0009
    141  CE1      -18.7800  -22.9250   22.4350 C.ar  288  TYR288      0.0417
    142  CE2      -19.9990  -23.1390   20.3630 C.ar  288  TYR288      0.0417
    143  CZ       -18.8110  -22.9670   21.0400 C.ar  288  TYR288      0.1957
    144  OH       -17.6470  -22.8330   20.3230 O.3   288  TYR288     -0.2866
    145  N        -24.0340  -21.2480   21.4550 N.am  289  ASP289     -0.1974
    146  CA       -24.0940  -20.5720   20.1580 C.3   289  ASP289      0.1709
    147  C        -24.1510  -19.0400   20.2590 C.2   289  ASP289      0.2293
    148  O        -23.7820  -18.3380   19.3100 O.2   289  ASP289     -0.2864
    149  CB       -25.3050  -21.0640   19.3740 C.3   289  ASP289      0.1436
    150  CG       -25.1610  -22.5020   18.9050 C.2   289  ASP289      0.3671
    151  OD1      -24.1160  -23.1220   19.1640 O.co2 289  ASP289     -0.2456
    152  OD2      -26.0970  -23.0050   18.2350 O.co2 289  ASP289     -0.2456
@<TRIPOS>BOND
     1    63    62    2
     2    62    61    1
     3    54    53    2
     4    51    52    1
     5    53    60   am
     6    53    52    1
     7    61    60    1
     8    61    64    1
     9    52    55    1
    10    39    40    1
    11    64    65    1
    12    55    56    1
    13    42    41    2
    14    40    41    1
    15    40    43    1
    16    49    48    2
    17    65    66   ar
    18    65    67   ar
    19    41    46   am
    20    56    57    1
    21    48    47    1
    22    45    43    1
    23    66    68   ar
    24    43    44    1
    25    28    27    2
    26    46    47    1
    27    67    70   ar
    28    67    69   ar
    29    70    72   ar
    30    47    50    1
    31    57    58    2
    32    57    59   am
    33    27    26    1
    34    68    69   ar
    35    91    92    2
    36    91    90    1
    37    69    71   ar
    38    81    82    1
    39    89    83   am
    40    89    90    1
    41    18    19    1
    42    82    83    1
    43    82    85    1
    44    83    84    2
    45    90    93    1
    46    72    73   ar
    47    19    20    1
    48    19    22    1
    49    26    29    1
    50    26    25    1
    51    29    30    1
    52    23    22    1
    53    77    76    2
    54    13    12    2
    55    20    21    2
    56    71    73   ar
    57    22    24    1
    58    87    85    1
    59    85    86    1
    60    76    75    1
    61    93    94    1
    62    30    31   ar
    63    30    32   ar
    64    12    11    1
    65    95    94   ar
    66    31    33   ar
    67     4     3    2
    68    14    11    1
    69    14    15    1
    70   123   122   ar
    71   123   121   ar
    72    94    96   ar
    73    86    88    1
    74    17    15   ar
    75   122   120   ar
    76    32    35   ar
    77    32    34   ar
    78    11    10    1
    79    75    78    1
    80    75    74    1
    81    35    37   ar
    82    15    16   ar
    83     3    10   am
    84     3     2    1
    85    33    34   ar
    86   121   119   ar
    87    78    79    1
    88    78    80    1
    89    34    36   ar
    90   120   119   ar
    91     1     2    1
    92    37    38   ar
    93     2     5    1
    94   119   118    1
    95     5     6    1
    96    36    38   ar
    97   117   116    2
    98   116   115    1
    99   118   115    1
   100    97    98    1
   101   107   106    1
   102   107   108    2
   103     6     7    1
   104     7     8    1
   105   106   109    1
   106   106   105    1
   107   109   110    1
   108   115   114    1
   109   131   130    2
   110     8     9    1
   111   152   150   ar
   112   103   102   ar
   113   101   102    1
   114   101    98    1
   115   102   104   ar
   116    98    99    1
   117   112   111   ar
   118   110   111    1
   119   130   132   am
   120   130   129    1
   121   150   151   ar
   122   150   149    1
   123   111   113   ar
   124    99   100    2
   125   128   129    1
   126   128   125    1
   127   148   147    2
   128   149   146    1
   129   124   125    1
   130   125   126    1
   131   146   147    1
   132   146   145    1
   133   144   143    1
   134   142   143   ar
   135   142   140   ar
   136   143   141   ar
   137   140   138   ar
   138   126   127    2
   139   145   135   am
   140   136   135    2
   141   135   134    1
   142   141   139   ar
   143   138   139   ar
   144   138   137    1
   145   137   134    1
   146   134   133    1
