@<TRIPOS>MOLECULE
tmp/4o8nA01.pdb
 108 101 0 0 0
SMALL
GASTEIGER

@<TRIPOS>ATOM
      1  N        -15.1980  -33.5980   17.0490 N.3   152  ASP152     -0.1239
      2  CA       -15.7190  -33.3800   18.4040 C.3   152  ASP152      0.1674
      3  C        -15.7970  -34.7290   19.1260 C.2   152  ASP152      0.2266
      4  O        -16.7480  -35.0050   19.8700 O.2   152  ASP152     -0.2867
      5  CB       -17.0980  -32.7060   18.3720 C.3   152  ASP152      0.1410
      6  CG       -17.0210  -31.1760   18.3850 C.2   152  ASP152      0.3668
      7  OD1      -15.9040  -30.6280   18.3590 O.co2 152  ASP152     -0.2456
      8  OD2      -18.0910  -30.5230   18.4510 O.co2 152  ASP152     -0.2456
      9  N        -12.5660  -37.3120   24.2110 N.3   182  ARG182     -0.1245
     10  CA       -13.2480  -36.2040   23.5260 C.3   182  ARG182      0.1563
     11  C        -12.7170  -34.8360   23.9420 C.2   182  ARG182      0.2260
     12  O        -12.4290  -33.9860   23.0790 O.2   182  ARG182     -0.2867
     13  CB       -14.7620  -36.3010   23.8010 C.3   182  ARG182      0.0307
     14  CG       -15.6120  -35.2650   23.1030 C.3   182  ARG182      0.0489
     15  CD       -17.0630  -35.6350   23.3320 C.3   182  ARG182      0.2205
     16  NE       -17.9840  -34.7010   22.6980 N.pl3 182  ARG182     -0.0865
     17  CZ       -18.4940  -33.6390   23.3140 C.cat 182  ARG182      0.5346
     18  NH1      -18.1610  -33.3820   24.5760 N.pl3 182  ARG182      0.1354
     19  NH2      -19.3350  -32.8380   22.6650 N.pl3 182  ARG182      0.1354
     20  N        -10.4750  -32.1420   20.8350 N.3   186  PHE186     -0.1241
     21  CA       -11.8730  -31.8130   20.5960 C.3   186  PHE186      0.1605
     22  C        -12.1010  -31.2760   19.1800 C.2   186  PHE186      0.2264
     23  O        -12.8630  -31.8710   18.4100 O.2   186  PHE186     -0.2867
     24  CB       -12.3670  -30.8180   21.6530 C.3   186  PHE186      0.0534
     25  CG       -13.8700  -30.6400   21.6600 C.ar  186  PHE186     -0.0203
     26  CD1      -14.7140  -31.7450   21.7650 C.ar  186  PHE186     -0.0042
     27  CD2      -14.4300  -29.3750   21.5560 C.ar  186  PHE186     -0.0042
     28  CE1      -16.0900  -31.5970   21.7710 C.ar  186  PHE186     -0.0003
     29  CE2      -15.8290  -29.2190   21.5570 C.ar  186  PHE186     -0.0003
     30  CZ       -16.6460  -30.3310   21.6700 C.ar  186  PHE186     -0.0000
     31  N        -10.8100  -29.1670   25.8040 N.3   207  ILE207     -0.1245
     32  CA       -11.6570  -28.6660   26.8780 C.3   207  ILE207      0.1561
     33  C        -11.0160  -29.0420   28.1970 C.2   207  ILE207      0.2260
     34  O        -10.7650  -30.2180   28.4500 O.2   207  ILE207     -0.2867
     35  CB       -13.0770  -29.2530   26.7980 C.3   207  ILE207      0.0252
     36  CG1      -13.6830  -28.9420   25.4300 C.3   207  ILE207      0.0019
     37  CG2      -13.9550  -28.7150   27.9370 C.3   207  ILE207      0.0019
     38  CD1      -14.9640  -29.6840   25.1820 C.3   207  ILE207      0.0001
     39  N        -12.3260  -27.4420   34.0140 N.3   210  GLN210     -0.1231
     40  CA       -13.4910  -26.6490   34.3800 C.3   210  GLN210      0.1698
     41  C        -14.1260  -25.9870   33.1680 C.2   210  GLN210      0.2592
     42  O        -14.7420  -24.9290   33.2680 O.2   210  GLN210     -0.2718
     43  CB       -13.0970  -25.6160   35.4130 C.3   210  GLN210      0.0381
     44  CG       -12.4360  -26.2550   36.6050 C.3   210  GLN210      0.0905
     45  CD       -12.0570  -25.2430   37.6500 C.2   210  GLN210      0.2608
     46  OE1      -11.9450  -24.0470   37.3610 O.2   210  GLN210     -0.2717
     47  NE2      -11.8520  -25.7110   38.8800 N.am  210  GLN210     -0.0878
     48  N        -13.9560  -26.6270   32.0180 N.am  211  GLY211     -0.1957
     49  CA       -14.6480  -26.2310   30.8120 C.3   211  GLY211      0.1869
     50  C        -13.9830  -25.1730   29.9770 C.2   211  GLY211      0.2309
     51  O        -14.5120  -24.7810   28.9380 O.2   211  GLY211     -0.2863
     52  N        -11.4200  -23.4530   27.3660 N.3   213  ARG213     -0.1245
     53  CA       -10.7850  -23.9520   26.1360 C.3   213  ARG213      0.1563
     54  C         -9.3040  -23.6080   26.1090 C.2   213  ARG213      0.2260
     55  O         -8.9070  -22.5460   26.5880 O.2   213  ARG213     -0.2867
     56  CB       -11.4750  -23.3800   24.8940 C.3   213  ARG213      0.0307
     57  CG       -12.9740  -23.6330   24.8440 C.3   213  ARG213      0.0489
     58  CD       -13.2930  -25.1280   24.8830 C.3   213  ARG213      0.2205
     59  NE       -14.7150  -25.3470   24.6180 N.pl3 213  ARG213     -0.0865
     60  CZ       -15.1970  -25.5990   23.4010 C.cat 213  ARG213      0.5346
     61  NH1      -14.3660  -25.6790   22.3650 N.pl3 213  ARG213      0.1354
     62  NH2      -16.5050  -25.7780   23.2110 N.pl3 213  ARG213      0.1354
     63  N        -13.5190  -14.9940   25.2090 N.3   280  ARG280     -0.1245
     64  CA       -14.8070  -14.4160   25.6380 C.3   280  ARG280      0.1563
     65  C        -14.7640  -14.0170   27.0960 C.2   280  ARG280      0.2260
     66  O        -14.0570  -14.6340   27.8940 O.2   280  ARG280     -0.2867
     67  CB       -15.9580  -15.4190   25.4300 C.3   280  ARG280      0.0307
     68  CG       -15.8880  -16.6220   26.3910 C.3   280  ARG280      0.0489
     69  CD       -16.9070  -17.6970   26.0310 C.3   280  ARG280      0.2205
     70  NE       -16.7440  -18.8950   26.8730 N.pl3 280  ARG280     -0.0865
     71  CZ       -17.3540  -19.0970   28.0400 C.cat 280  ARG280      0.5346
     72  NH1      -18.1900  -18.1840   28.5650 N.pl3 280  ARG280      0.1354
     73  NH2      -17.1270  -20.2230   28.7030 N.pl3 280  ARG280      0.1354
     74  N        -22.4060  -15.9400   29.9760 N.3   285  GLY285     -0.1210
     75  CA       -23.1360  -17.1740   30.1300 C.3   285  GLY285      0.1956
     76  C        -24.1280  -17.3110   29.0020 C.2   285  GLY285      0.2612
     77  O        -23.9930  -16.6590   27.9670 O.2   285  GLY285     -0.2717
     78  N        -25.1420  -18.1400   29.2130 N.am  286  GLY286     -0.1942
     79  CA       -26.1070  -18.4260   28.1690 C.3   286  GLY286      0.2014
     80  C        -25.6630  -19.5940   27.3000 C.2   286  GLY286      0.2640
     81  O        -24.6740  -20.2740   27.5760 O.2   286  GLY286     -0.2714
     82  N        -26.4080  -19.8240   26.2290 N.am  287  THR287     -0.1936
     83  CA       -26.1590  -20.9710   25.3680 C.3   287  THR287      0.2028
     84  C        -24.8480  -20.8180   24.6080 C.2   287  THR287      0.2642
     85  O        -24.3830  -19.7030   24.3750 O.2   287  THR287     -0.2714
     86  CB       -27.3090  -21.1490   24.3800 C.3   287  THR287      0.1808
     87  OG1      -27.2910  -20.0570   23.4510 O.3   287  THR287     -0.2208
     88  CG2      -28.6240  -21.1360   25.1200 C.3   287  THR287      0.0379
     89  N        -24.2530  -21.9440   24.2310 N.am  288  TYR288     -0.1973
     90  CA       -22.9660  -21.9080   23.5610 C.3   288  TYR288      0.1639
     91  C        -23.0040  -21.0620   22.2680 C.2   288  TYR288      0.2290
     92  O        -22.0980  -20.2720   22.0220 O.2   288  TYR288     -0.2864
     93  CB       -22.4730  -23.3310   23.2400 C.3   288  TYR288      0.0560
     94  CG       -21.1890  -23.2580   22.4710 C.ar  288  TYR288     -0.0198
     95  CD1      -19.9800  -23.0690   23.1370 C.ar  288  TYR288     -0.0009
     96  CD2      -21.1880  -23.2880   21.0790 C.ar  288  TYR288     -0.0009
     97  CE1      -18.7800  -22.9250   22.4350 C.ar  288  TYR288      0.0417
     98  CE2      -19.9990  -23.1390   20.3630 C.ar  288  TYR288      0.0417
     99  CZ       -18.8110  -22.9670   21.0400 C.ar  288  TYR288      0.1957
    100  OH       -17.6470  -22.8330   20.3230 O.3   288  TYR288     -0.2866
    101  N        -22.4990  -17.2670   22.6300 N.3   291  LEU291     -0.1245
    102  CA       -21.3890  -16.7740   23.4640 C.3   291  LEU291      0.1561
    103  C        -20.6520  -15.6500   22.7490 C.2   291  LEU291      0.2260
    104  O        -20.4350  -15.7250   21.5290 O.2   291  LEU291     -0.2867
    105  CB       -20.3950  -17.9000   23.8190 C.3   291  LEU291      0.0270
    106  CG       -20.9000  -18.9270   24.8340 C.3   291  LEU291      0.0019
    107  CD1      -19.8970  -20.0620   24.9710 C.3   291  LEU291      0.0001
    108  CD2      -21.1870  -18.2560   26.1880 C.3   291  LEU291      0.0001
@<TRIPOS>BOND
     1     1     2    1
     2     7     6   ar
     3     5     6    1
     4     5     2    1
     5     6     8   ar
     6     2     3    1
     7    23    22    2
     8     3     4    2
     9    22    21    1
    10   100    99    1
    11    98    99   ar
    12    98    96   ar
    13    21    20    1
    14    21    24    1
    15    99    97   ar
    16    96    94   ar
    17   104   103    2
    18    27    29   ar
    19    27    25   ar
    20    29    30   ar
    21    24    25    1
    22    25    26   ar
    23    30    28   ar
    24    26    28   ar
    25    92    91    2
    26    91    90    1
    27    61    60    1
    28    97    95   ar
    29    94    95   ar
    30    94    93    1
    31   101   102    1
    32    19    17    1
    33    16    17    2
    34    16    15    1
    35   103   102    1
    36    12    11    2
    37    14    15    1
    38    14    13    1
    39    62    60    1
    40    93    90    1
    41    17    18    1
    42    60    59    2
    43    87    86    1
    44   102   105    1
    45    10    13    1
    46    10    11    1
    47    10     9    1
    48    90    89    1
    49   105   106    1
    50    89    84   am
    51    85    84    2
    52    86    88    1
    53    86    83    1
    54    84    83    1
    55    59    58    1
    56   106   107    1
    57   106   108    1
    58    57    58    1
    59    57    56    1
    60    56    53    1
    61    38    36    1
    62    63    64    1
    63    83    82    1
    64    67    64    1
    65    67    68    1
    66    36    35    1
    67    64    65    1
    68    31    32    1
    69    69    68    1
    70    69    70    1
    71    54    53    1
    72    54    55    2
    73    53    52    1
    74    82    80   am
    75    35    32    1
    76    35    37    1
    77    70    71    2
    78    32    33    1
    79    65    66    2
    80    80    81    2
    81    80    79    1
    82    77    76    2
    83    71    72    1
    84    71    73    1
    85    79    78    1
    86    33    34    2
    87    51    50    2
    88    76    78   am
    89    76    75    1
    90    74    75    1
    91    50    49    1
    92    49    48    1
    93    48    41   am
    94    41    42    2
    95    41    40    1
    96    39    40    1
    97    40    43    1
    98    43    44    1
    99    44    45    1
   100    46    45    2
   101    45    47   am
