@<TRIPOS>MOLECULE
tmp/4o8oA00.pdb
 159 154 0 0 0
SMALL
GASTEIGER

@<TRIPOS>ATOM
      1  N         15.6810   81.2830   15.1600 N.3    27  LYS27      -0.1231
      2  CA        15.1290   82.5620   15.5890 C.3    27  LYS27       0.1693
      3  C         14.2410   83.2030   14.5320 C.2    27  LYS27       0.2592
      4  O         14.3270   82.8560   13.3430 O.2    27  LYS27      -0.2718
      5  CB        16.2600   83.5350   15.8880 C.3    27  LYS27       0.0285
      6  CG        17.1270   83.2010   17.1020 C.3    27  LYS27       0.0035
      7  CD        18.1080   84.3230   17.4020 C.3    27  LYS27       0.0206
      8  CE        17.3940   85.5480   17.9820 C.3    27  LYS27       0.1093
      9  NZ        18.3030   86.7090   18.0510 N.3    27  LYS27      -0.1314
     10  N         13.4480   84.1660   14.9840 N.am   28  ASP28      -0.1974
     11  CA        12.8510   85.1680   14.0840 C.3    28  ASP28       0.1709
     12  C         11.9350   84.5200   13.0370 C.2    28  ASP28       0.2293
     13  O         11.9310   84.9280   11.8430 O.2    28  ASP28      -0.2864
     14  CB        13.9330   86.0120   13.3490 C.3    28  ASP28       0.1436
     15  CG        15.0080   86.5720   14.2490 C.2    28  ASP28       0.3671
     16  OD1       14.7420   86.8570   15.4310 O.co2  28  ASP28      -0.2456
     17  OD2       16.1390   86.7830   13.7240 O.co2  28  ASP28      -0.2456
     18  N         16.1120   82.6000   11.1540 N.3    43  THR43      -0.1218
     19  CA        17.4960   82.9890   11.3870 C.3    43  THR43       0.1862
     20  C         18.2250   81.8700   12.1300 C.2    43  THR43       0.2287
     21  O         17.6290   81.2000   12.9950 O.2    43  THR43      -0.2866
     22  CB        17.5200   84.2550   12.2450 C.3    43  THR43       0.1770
     23  OG1       16.8280   85.3130   11.5730 O.3    43  THR43      -0.2211
     24  CG2       18.9270   84.6760   12.6060 C.3    43  THR43       0.0375
     25  N         25.8720   84.7010   11.7320 N.3    51  TRP51      -0.1241
     26  CA        24.4430   84.6680   11.4870 C.3    51  TRP51       0.1605
     27  C         24.1620   84.0180   10.1390 C.2    51  TRP51       0.2264
     28  O         24.9360   84.1740    9.1860 O.2    51  TRP51      -0.2867
     29  CB        23.8480   86.0800   11.4410 C.3    51  TRP51       0.0550
     30  CG        23.9110   86.8350   12.7190 C.ar   51  TRP51       0.0003
     31  CD1       24.7600   87.8630   13.0340 C.ar   51  TRP51       0.0946
     32  CD2       23.0860   86.6380   13.8510 C.ar   51  TRP51       0.0152
     33  NE1       24.5210   88.3130   14.3250 N.ar   51  TRP51      -0.2442
     34  CE2       23.4820   87.5770   14.8350 C.ar   51  TRP51       0.0810
     35  CE3       22.0400   85.7670   14.1410 C.ar   51  TRP51       0.0012
     36  CZ2       22.8600   87.6440   16.0900 C.ar   51  TRP51       0.0191
     37  CZ3       21.4400   85.8430   15.3780 C.ar   51  TRP51       0.0001
     38  CH2       21.8650   86.7590   16.3390 C.ar   51  TRP51       0.0015
     39  N         18.6850   87.1090    7.0680 N.3    78  VAL78      -0.1231
     40  CA        18.3960   87.2040    8.4950 C.3    78  VAL78       0.1692
     41  C         17.0790   87.9400    8.7380 C.2    78  VAL78       0.2591
     42  O         16.7250   88.9250    8.0570 O.2    78  VAL78      -0.2718
     43  CB        19.5540   87.9050    9.2110 C.3    78  VAL78       0.0266
     44  CG1       19.2080   88.2410   10.6770 C.3    78  VAL78       0.0020
     45  CG2       20.8150   87.0340    9.1260 C.3    78  VAL78       0.0020
     46  N         16.3320   87.4290    9.7240 N.am   79  ALA79      -0.1980
     47  CA        15.0300   87.9550   10.1520 C.3    79  ALA79       0.1597
     48  C         14.0680   88.0310    8.9490 C.2    79  ALA79       0.2287
     49  O         13.5470   89.1020    8.5680 O.2    79  ALA79      -0.2864
     50  CB        15.1800   89.2990   10.8630 C.3    79  ALA79       0.0319
     51  N         17.0990   91.3480    6.1700 N.3    96  GLN96      -0.1231
     52  CA        18.0010   92.4310    6.4940 C.3    96  GLN96       0.1698
     53  C         19.4550   91.9740    6.4000 C.2    96  GLN96       0.2592
     54  O         19.7420   90.7830    6.2220 O.2    96  GLN96      -0.2718
     55  CB        17.7170   92.9330    7.9140 C.3    96  GLN96       0.0381
     56  CG        18.1250   91.9180    8.9880 C.3    96  GLN96       0.0905
     57  CD        17.4600   92.1600   10.3300 C.2    96  GLN96       0.2608
     58  OE1       16.3410   92.6640   10.4000 O.2    96  GLN96      -0.2717
     59  NE2       18.1360   91.7860   11.4160 N.am   96  GLN96      -0.0878
     60  N         20.3460   92.9410    6.5800 N.am   97  TRP97      -0.1976
     61  CA        21.8030   92.7590    6.6470 C.3    97  TRP97       0.1640
     62  C         22.4010   92.2710    5.3250 C.2    97  TRP97       0.2290
     63  O         23.5100   91.6960    5.2970 O.2    97  TRP97      -0.2864
     64  CB        22.1880   91.8300    7.8270 C.3    97  TRP97       0.0576
     65  CG        21.8080   92.3990    9.1660 C.ar   97  TRP97       0.0006
     66  CD1       21.3310   93.6540    9.4210 C.ar   97  TRP97       0.0946
     67  CD2       21.8450   91.7160   10.4320 C.ar   97  TRP97       0.0152
     68  NE1       21.0660   93.7940   10.7750 N.ar   97  TRP97      -0.2442
     69  CE2       21.3590   92.6130   11.4080 C.ar   97  TRP97       0.0810
     70  CE3       22.2170   90.4190   10.8250 C.ar   97  TRP97       0.0012
     71  CZ2       21.2630   92.2680   12.7630 C.ar   97  TRP97       0.0191
     72  CZ3       22.1140   90.0740   12.1810 C.ar   97  TRP97       0.0001
     73  CH2       21.6390   91.0000   13.1260 C.ar   97  TRP97       0.0015
     74  N         15.5330   97.5260   11.3380 N.3   135  ILE135     -0.1231
     75  CA        15.6220   96.1180   11.6700 C.3   135  ILE135      0.1692
     76  C         14.2340   95.5040   11.6530 C.2   135  ILE135      0.2592
     77  O         13.2420   96.2200   11.8630 O.2   135  ILE135     -0.2718
     78  CB        16.2960   95.9550   13.0650 C.3   135  ILE135      0.0266
     79  CG1       16.8640   94.5440   13.2830 C.3   135  ILE135      0.0019
     80  CG2       15.3680   96.3780   14.2150 C.3   135  ILE135      0.0020
     81  CD1       17.7320   94.4120   14.5680 C.3   135  ILE135      0.0001
     82  N         14.1520   94.2040   11.3630 N.am  136  ASP136     -0.1974
     83  CA        12.9430   93.3910   11.5250 C.3   136  ASP136      0.1709
     84  C         11.7820   93.9060   10.6750 C.2   136  ASP136      0.2293
     85  O         10.6920   94.2500   11.1800 O.2   136  ASP136     -0.2864
     86  CB        12.5490   93.3160   12.9940 C.3   136  ASP136      0.1436
     87  CG        13.5860   92.5960   13.8260 C.2   136  ASP136      0.3671
     88  OD1       14.4410   91.8890   13.2230 O.co2 136  ASP136     -0.2456
     89  OD2       13.5280   92.7210   15.0850 O.co2 136  ASP136     -0.2456
     90  N         15.2400   99.2900   17.1370 N.3   153  ASP153     -0.1239
     91  CA        15.7740   99.0950   18.4940 C.3   153  ASP153      0.1674
     92  C         15.8520  100.4310   19.2500 C.2   153  ASP153      0.2266
     93  O         16.7870  100.6760   20.0260 O.2   153  ASP153     -0.2867
     94  CB        17.1570   98.4210   18.4340 C.3   153  ASP153      0.1410
     95  CG        17.0840   96.9040   18.3400 C.2   153  ASP153      0.3668
     96  OD1       16.0110   96.3730   17.9900 O.co2 153  ASP153     -0.2456
     97  OD2       18.1070   96.2300   18.6160 O.co2 153  ASP153     -0.2456
     98  N         10.4720   97.8980   20.8570 N.3   187  PHE187     -0.1227
     99  CA        11.8670   97.5850   20.6490 C.3   187  PHE187      0.1736
    100  C         12.1140   97.0210   19.2530 C.2   187  PHE187      0.2595
    101  O         12.8840   97.6300   18.4780 O.2   187  PHE187     -0.2718
    102  CB        12.3770   96.6410   21.7430 C.3   187  PHE187      0.0547
    103  CG        13.8650   96.4710   21.7220 C.ar  187  PHE187     -0.0202
    104  CD1       14.7040   97.5530   21.8650 C.ar  187  PHE187     -0.0042
    105  CD2       14.4300   95.2120   21.5360 C.ar  187  PHE187     -0.0042
    106  CE1       16.0890   97.3920   21.8260 C.ar  187  PHE187     -0.0003
    107  CE2       15.8060   95.0630   21.5090 C.ar  187  PHE187     -0.0003
    108  CZ        16.6110   96.1470   21.6500 C.ar  187  PHE187     -0.0000
    109  N         11.5180   95.8860   18.9080 N.am  188  GLU188     -0.1979
    110  CA        11.7970   95.3130   17.6000 C.3   188  GLU188      0.1602
    111  C         10.7240   94.2930   17.2070 C.2   188  GLU188      0.2287
    112  O          9.6310   94.2860   17.7950 O.2   188  GLU188     -0.2864
    113  CB        13.2010   94.7040   17.5670 C.3   188  GLU188      0.0415
    114  CG        13.3660   93.5730   18.5020 C.3   188  GLU188      0.1163
    115  CD        14.8410   93.1780   18.7440 C.2   188  GLU188      0.3649
    116  OE1       15.7860   93.8410   18.2460 O.co2 188  GLU188     -0.2457
    117  OE2       15.0570   92.1850   19.4640 O.co2 188  GLU188     -0.2457
    118  N         11.5110   89.2710   27.3520 N.3   214  ARG214     -0.1245
    119  CA        10.8910   89.7490   26.1070 C.3   214  ARG214      0.1563
    120  C          9.4100   89.3950   26.0840 C.2   214  ARG214      0.2260
    121  O          9.0330   88.2960   26.5370 O.2   214  ARG214     -0.2867
    122  CB        11.5620   89.1240   24.8960 C.3   214  ARG214      0.0307
    123  CG        13.0420   89.4020   24.7930 C.3   214  ARG214      0.0489
    124  CD        13.3460   90.9090   24.8180 C.3   214  ARG214      0.2205
    125  NE        14.7590   91.2110   24.5320 N.pl3 214  ARG214     -0.0865
    126  CZ        15.2320   91.4620   23.3120 C.cat 214  ARG214      0.5346
    127  NH1       14.4340   91.5060   22.2620 N.pl3 214  ARG214      0.1354
    128  NH2       16.5250   91.7520   23.1740 N.pl3 214  ARG214      0.1354
    129  N         10.5480   87.3250   19.0900 N.3   255  HIS255     -0.1241
    130  CA        10.4200   87.4140   17.6320 C.3   255  HIS255      0.1621
    131  C          9.9000   86.1840   16.9390 C.2   255  HIS255      0.2264
    132  O         10.5850   85.1480   16.8690 O.2   255  HIS255     -0.2867
    133  CB        11.7950   87.7670   17.0500 C.3   255  HIS255      0.0745
    134  CG        11.7310   88.3200   15.6600 C.ar  255  HIS255      0.0817
    135  ND1       12.7080   89.1480   15.1530 N.ar  255  HIS255     -0.2268
    136  CD2       10.8060   88.1920   14.6780 C.ar  255  HIS255      0.1154
    137  CE1       12.3760   89.5060   13.9140 C.ar  255  HIS255      0.1986
    138  NE2       11.2290   88.9390   13.5900 N.ar  255  HIS255     -0.2212
    139  N          9.9300   82.6490   19.4240 N.3   279  GLN279     -0.1245
    140  CA        11.1860   82.1200   19.9190 C.3   279  GLN279      0.1566
    141  C         11.2420   82.2830   21.4320 C.2   279  GLN279      0.2260
    142  O         10.8520   83.3230   21.9900 O.2   279  GLN279     -0.2867
    143  CB        12.3850   82.8080   19.2410 C.3   279  GLN279      0.0367
    144  CG        12.5510   84.2940   19.5890 C.3   279  GLN279      0.0905
    145  CD        13.6560   84.9720   18.8060 C.2   279  GLN279      0.2608
    146  OE1       14.1290   84.4540   17.7790 O.2   279  GLN279     -0.2717
    147  NE2       14.0830   86.1320   19.2810 N.am  279  GLN279     -0.0878
    148  N         24.3290   87.9560   23.9330 N.3   289  TYR289     -0.1241
    149  CA        23.0480   87.8810   23.2530 C.3   289  TYR289      0.1605
    150  C         23.0840   86.9670   22.0150 C.2   289  TYR289      0.2264
    151  O         22.1870   86.1400   21.7960 O.2   289  TYR289     -0.2867
    152  CB        22.5660   89.2960   22.8490 C.3   289  TYR289      0.0534
    153  CG        21.2590   89.2040   22.1270 C.ar  289  TYR289     -0.0201
    154  CD1       20.0620   89.0660   22.8330 C.ar  289  TYR289     -0.0009
    155  CD2       21.2100   89.1740   20.7390 C.ar  289  TYR289     -0.0009
    156  CE1       18.8560   88.9090   22.1780 C.ar  289  TYR289      0.0417
    157  CE2       20.0230   89.0160   20.0730 C.ar  289  TYR289      0.0417
    158  CZ        18.8420   88.8930   20.7830 C.ar  289  TYR289      0.1957
    159  OH        17.6670   88.7340   20.0720 O.3   289  TYR289     -0.2866
@<TRIPOS>BOND
     1    63    62    2
     2    62    61    1
     3    51    52    1
     4    54    53    2
     5    53    52    1
     6    53    60   am
     7    52    55    1
     8    60    61    1
     9    61    64    1
    10    39    40    1
    11    64    65    1
    12    55    56    1
    13    42    41    2
    14    40    41    1
    15    40    43    1
    16    49    48    2
    17    41    46   am
    18    48    47    1
    19    56    57    1
    20    45    43    1
    21    65    66   ar
    22    65    67   ar
    23    28    27    2
    24    43    44    1
    25    66    68   ar
    26    46    47    1
    27    27    26    1
    28    47    50    1
    29    57    58    2
    30    57    59   am
    31    67    70   ar
    32    67    69   ar
    33    84    85    2
    34    84    83    1
    35    68    69   ar
    36    70    72   ar
    37    18    19    1
    38    74    75    1
    39    82    83    1
    40    82    76   am
    41    19    20    1
    42    19    22    1
    43    69    71   ar
    44    29    26    1
    45    29    30    1
    46    26    25    1
    47    83    86    1
    48    23    22    1
    49    76    75    1
    50    76    77    2
    51    75    78    1
    52    13    12    2
    53    20    21    2
    54    72    73   ar
    55    22    24    1
    56    30    31   ar
    57    30    32   ar
    58    71    73   ar
    59    86    87    1
    60    31    33   ar
    61    12    11    1
    62    78    79    1
    63    78    80    1
    64    88    87   ar
    65    79    81    1
    66     4     3    2
    67    14    11    1
    68    14    15    1
    69   138   137   ar
    70   138   136   ar
    71    17    15   ar
    72    87    89   ar
    73    32    35   ar
    74    32    34   ar
    75   137   135   ar
    76    11    10    1
    77    35    37   ar
    78    15    16   ar
    79    33    34   ar
    80     3    10   am
    81     3     2    1
    82   136   134   ar
    83    34    36   ar
    84   135   134   ar
    85     1     2    1
    86    37    38   ar
    87     2     5    1
    88   134   133    1
    89     5     6    1
    90    36    38   ar
    91   132   131    2
    92   131   130    1
    93   133   130    1
    94     6     7    1
    95    90    91    1
    96   111   110    1
    97   111   112    2
    98     7     8    1
    99   113   110    1
   100   113   114    1
   101   110   109    1
   102   130   129    1
   103   146   145    2
   104     8     9    1
   105    96    95   ar
   106   116   115   ar
   107    95    94    1
   108    95    97   ar
   109    94    91    1
   110   101   100    2
   111    91    92    1
   112   114   115    1
   113   115   117   ar
   114   145   147   am
   115   145   144    1
   116   109   100   am
   117   143   144    1
   118   143   140    1
   119    92    93    2
   120   100    99    1
   121   139   140    1
   122   140   141    1
   123   159   158    1
   124   157   155   ar
   125   157   158   ar
   126    99    98    1
   127    99   102    1
   128   155   153   ar
   129   158   156   ar
   130   141   142    2
   131   107   105   ar
   132   107   108   ar
   133   105   103   ar
   134   108   106   ar
   135   103   102    1
   136   103   104   ar
   137   151   150    2
   138   106   104   ar
   139   150   149    1
   140   153   154   ar
   141   153   152    1
   142   156   154   ar
   143   127   126    1
   144   152   149    1
   145   128   126    1
   146   149   148    1
   147   126   125    2
   148   125   124    1
   149   123   124    1
   150   123   122    1
   151   122   119    1
   152   120   119    1
   153   120   121    2
   154   119   118    1
