@<TRIPOS>MOLECULE
tmp/4o8pA00.pdb
 79 73 0 0 0
SMALL
GASTEIGER

@<TRIPOS>ATOM
      1  N         57.7640   12.1560  138.0560 N.3   142  ASP142     -0.1239
      2  CA        58.9410   12.1360  138.8950 C.3   142  ASP142      0.1674
      3  C         60.1620   12.1150  138.0010 C.2   142  ASP142      0.2266
      4  O         60.0950   12.5690  136.8430 O.2   142  ASP142     -0.2867
      5  CB        58.8770   10.9490  139.9030 C.3   142  ASP142      0.1410
      6  CG        58.8100    9.5930  139.2570 C.2   142  ASP142      0.3668
      7  OD1       59.1570    9.4770  138.0650 O.co2 142  ASP142     -0.2456
      8  OD2       58.4970    8.5890  139.9670 O.co2 142  ASP142     -0.2456
      9  N         61.7540    9.7710  136.5730 N.3   144  THR144     -0.1203
     10  CA        61.8560    8.7950  135.4700 C.3   144  THR144      0.1994
     11  C         60.5610    8.5520  134.7120 C.2   144  THR144      0.2617
     12  O         60.6260    8.0560  133.5900 O.2   144  THR144     -0.2717
     13  CB        62.3540    7.4090  136.0070 C.3   144  THR144      0.1784
     14  OG1       61.4310    6.9190  137.0090 O.3   144  THR144     -0.2211
     15  CG2       63.7100    7.5760  136.6940 C.3   144  THR144      0.0376
     16  N         59.4130    8.8700  135.3030 N.am  145  HIS145     -0.1975
     17  CA        58.1320    8.5100  134.6870 C.3   145  HIS145      0.1656
     18  C         57.1150    9.6400  134.7780 C.2   145  HIS145      0.2291
     19  O         57.1610   10.4460  135.7030 O.2   145  HIS145     -0.2864
     20  CB        57.5210    7.2610  135.3420 C.3   145  HIS145      0.0771
     21  CG        58.2300    5.9960  134.9620 C.ar  145  HIS145      0.0820
     22  ND1       59.4570    5.6400  135.4950 N.ar  145  HIS145     -0.2267
     23  CD2       57.9160    5.0430  134.0530 C.ar  145  HIS145      0.1154
     24  CE1       59.8610    4.5070  134.9300 C.ar  145  HIS145      0.1986
     25  NE2       58.9400    4.1140  134.0640 N.ar  145  HIS145     -0.2212
     26  N         52.9600   10.0640  135.1000 N.3   147  TYR147     -0.1241
     27  CA        51.8360    9.3220  135.6360 C.3   147  TYR147      0.1605
     28  C         50.5740   10.0410  135.3340 C.2   147  TYR147      0.2264
     29  O         50.5040   11.2780  135.4070 O.2   147  TYR147     -0.2867
     30  CB        51.9290    9.1190  137.1730 C.3   147  TYR147      0.0534
     31  CG        53.1200    8.3140  137.5940 C.ar  147  TYR147     -0.0201
     32  CD1       54.3670    8.9200  137.7730 C.ar  147  TYR147     -0.0009
     33  CD2       52.9820    6.9800  137.8330 C.ar  147  TYR147     -0.0009
     34  CE1       55.4660    8.1760  138.1780 C.ar  147  TYR147      0.0417
     35  CE2       54.0750    6.2370  138.2630 C.ar  147  TYR147      0.0417
     36  CZ        55.2900    6.8400  138.3850 C.ar  147  TYR147      0.1957
     37  OH        56.3150    6.0000  138.8240 O.3   147  TYR147     -0.2866
     38  N         45.5880    4.4780  137.7560 N.3   159  ARG159     -0.1245
     39  CA        46.9210    5.0550  137.4730 C.3   159  ARG159      0.1563
     40  C         47.4830    4.4250  136.2250 C.2   159  ARG159      0.2260
     41  O         47.4760    3.1970  136.0970 O.2   159  ARG159     -0.2867
     42  CB        47.8610    4.7860  138.6250 C.3   159  ARG159      0.0307
     43  CG        49.2650    5.4200  138.4260 C.3   159  ARG159      0.0489
     44  CD        50.2550    4.8130  139.4890 C.3   159  ARG159      0.2205
     45  NE        50.6070    3.4970  139.0370 N.pl3 159  ARG159     -0.0865
     46  CZ        50.7040    2.4310  139.8250 C.cat 159  ARG159      0.5346
     47  NH1       50.5710    2.5290  141.1550 N.pl3 159  ARG159      0.1354
     48  NH2       50.9720    1.2420  139.2420 N.pl3 159  ARG159      0.1354
     49  N         51.1420    4.8410  133.5510 N.3   161  SER161     -0.1217
     50  CA        52.4530    5.4740  133.5730 C.3   161  SER161      0.1889
     51  C         53.1870    5.2560  132.2620 C.2   161  SER161      0.2288
     52  O         52.8900    4.3280  131.4870 O.2   161  SER161     -0.2866
     53  CB        53.2860    4.9490  134.7340 C.3   161  SER161      0.2089
     54  OG        53.5890    3.5720  134.5070 O.3   161  SER161     -0.2183
     55  N         45.9100    0.8350  136.1280 N.3   176  THR176     -0.1218
     56  CA        45.9200    0.0390  137.3430 C.3   176  THR176      0.1862
     57  C         45.0690    0.7130  138.4070 C.2   176  THR176      0.2287
     58  O         45.2090    1.8970  138.6730 O.2   176  THR176     -0.2866
     59  CB        47.3700   -0.0990  137.8730 C.3   176  THR176      0.1770
     60  OG1       48.1490   -0.7430  136.8560 O.3   176  THR176     -0.2211
     61  CG2       47.4770   -0.9350  139.2020 C.3   176  THR176      0.0375
     62  N         56.2790    7.0070  146.9120 N.3   223  SER223     -0.1217
     63  CA        56.6790    6.9600  145.5050 C.3   223  SER223      0.1889
     64  C         55.4090    6.8940  144.6770 C.2   223  SER223      0.2288
     65  O         54.3910    6.4050  145.1360 O.2   223  SER223     -0.2866
     66  CB        57.5880    5.7800  145.2410 C.3   223  SER223      0.2089
     67  OG        56.8440    4.5930  145.2670 O.3   223  SER223     -0.2183
     68  N         54.5670    5.2480  142.1490 N.3   225  ASP225     -0.1225
     69  CA        54.1880    3.8650  141.7940 C.3   225  ASP225      0.1805
     70  C         53.8930    2.9980  143.0350 C.2   225  ASP225      0.2598
     71  O         53.7660    1.7830  142.8780 O.2   225  ASP225     -0.2718
     72  CB        55.2650    3.1810  140.9490 C.3   225  ASP225      0.1424
     73  CG        56.6250    3.0980  141.6400 C.2   225  ASP225      0.3668
     74  OD1       56.8470    3.7560  142.6780 O.co2 225  ASP225     -0.2456
     75  OD2       57.5420    2.3870  141.1240 O.co2 225  ASP225     -0.2456
     76  N         53.8130    3.6190  144.2180 N.am  226  GLY226     -0.1957
     77  CA        53.6710    2.8800  145.4890 C.3   226  GLY226      0.1869
     78  C         52.2320    2.9430  145.9710 C.2   226  GLY226      0.2309
     79  O         51.3280    3.4010  145.2340 O.2   226  GLY226     -0.2863
@<TRIPOS>BOND
     1    52    51    2
     2    51    50    1
     3    49    50    1
     4    50    53    1
     5    12    11    2
     6    23    25   ar
     7    23    21   ar
     8    25    24   ar
     9    54    53    1
    10    17    18    1
    11    17    16    1
    12    17    20    1
    13    11    16   am
    14    11    10    1
    15    18    19    2
    16    24    22   ar
    17    21    20    1
    18    21    22   ar
    19    26    27    1
    20    28    29    2
    21    28    27    1
    22    10    13    1
    23    10     9    1
    24    27    30    1
    25    13    15    1
    26    13    14    1
    27    41    40    2
    28    55    56    1
    29    40    39    1
    30     4     3    2
    31    60    59    1
    32    30    31    1
    33    56    59    1
    34    56    57    1
    35    39    38    1
    36    39    42    1
    37    31    32   ar
    38    31    33   ar
    39    32    34   ar
    40    33    35   ar
    41    59    61    1
    42     3     2    1
    43     1     2    1
    44     7     6   ar
    45    34    36   ar
    46    35    36   ar
    47    36    37    1
    48    57    58    2
    49    43    42    1
    50    43    44    1
    51     2     5    1
    52    45    44    1
    53    45    46    2
    54    48    46    1
    55     6     5    1
    56     6     8   ar
    57    46    47    1
    58    72    73    1
    59    72    69    1
    60    75    73   ar
    61    73    74   ar
    62    69    68    1
    63    69    70    1
    64    71    70    2
    65    70    76   am
    66    76    77    1
    67    64    65    2
    68    64    63    1
    69    79    78    2
    70    66    67    1
    71    66    63    1
    72    77    78    1
    73    63    62    1
