@<TRIPOS>MOLECULE
tmp/4o8pA02.pdb
 121 117 0 0 0
SMALL
GASTEIGER

@<TRIPOS>ATOM
      1  N         28.9040   22.1970  127.8740 N.3    51  TRP51      -0.1241
      2  CA        30.1300   22.2860  128.6590 C.3    51  TRP51       0.1605
      3  C         31.1870   22.9670  127.8090 C.2    51  TRP51       0.2264
      4  O         31.3170   22.6820  126.6100 O.2    51  TRP51      -0.2867
      5  CB        30.6630   20.8830  129.0430 C.3    51  TRP51       0.0550
      6  CG        29.7830   20.1200  129.9990 C.ar   51  TRP51       0.0003
      7  CD1       28.9770   19.0600  129.7220 C.ar   51  TRP51       0.0946
      8  CD2       29.6570   20.4010  131.3720 C.ar   51  TRP51       0.0152
      9  NE1       28.3420   18.6330  130.8960 N.ar   51  TRP51      -0.2442
     10  CE2       28.7740   19.4450  131.9210 C.ar   51  TRP51       0.0810
     11  CE3       30.2470   21.3820  132.2130 C.ar   51  TRP51       0.0012
     12  CZ2       28.4050   19.4580  133.2770 C.ar   51  TRP51       0.0191
     13  CZ3       29.9010   21.3790  133.5920 C.ar   51  TRP51       0.0001
     14  CH2       28.9560   20.4270  134.0860 C.ar   51  TRP51       0.0015
     15  N         36.4860   14.5580  127.3130 N.3    97  TRP97      -0.1241
     16  CA        35.3360   14.7320  126.4180 C.3    97  TRP97       0.1605
     17  C         35.6990   15.2680  125.0250 C.2    97  TRP97       0.2264
     18  O         34.8660   15.8220  124.3270 O.2    97  TRP97      -0.2867
     19  CB        34.2490   15.6140  127.0820 C.3    97  TRP97       0.0550
     20  CG        33.7500   14.9690  128.3730 C.ar   97  TRP97       0.0003
     21  CD1       33.9800   13.6860  128.7680 C.ar   97  TRP97       0.0946
     22  CD2       33.0080   15.5860  129.4390 C.ar   97  TRP97       0.0152
     23  NE1       33.4320   13.4600  130.0120 N.ar   97  TRP97      -0.2442
     24  CE2       32.8330   14.6140  130.4490 C.ar   97  TRP97       0.0810
     25  CE3       32.4990   16.8750  129.6360 C.ar   97  TRP97       0.0012
     26  CZ2       32.1440   14.8760  131.6520 C.ar   97  TRP97       0.0191
     27  CZ3       31.7860   17.1280  130.7770 C.ar   97  TRP97       0.0001
     28  CH2       31.6230   16.1430  131.7910 C.ar   97  TRP97       0.0015
     29  N         29.9950    7.5410  133.8280 N.3   132  THR132     -0.1218
     30  CA        30.6610    8.6240  133.1330 C.3   132  THR132      0.1862
     31  C         31.8130    8.1460  132.2420 C.2   132  THR132      0.2287
     32  O         32.2290    8.8820  131.3350 O.2   132  THR132     -0.2866
     33  CB        31.2870    9.6020  134.1110 C.3   132  THR132      0.1770
     34  OG1       32.1630    8.8640  134.9980 O.3   132  THR132     -0.2211
     35  CG2       30.2290   10.3420  134.9750 C.3   132  THR132      0.0375
     36  N         37.1810   10.0180  134.1500 N.3   135  ILE135     -0.1245
     37  CA        36.9040   11.4420  134.3270 C.3   135  ILE135      0.1561
     38  C         37.9930   12.0730  135.2030 C.2   135  ILE135      0.2260
     39  O         38.6500   11.3890  135.9970 O.2   135  ILE135     -0.2867
     40  CB        35.4970   11.6160  134.9860 C.3   135  ILE135      0.0252
     41  CG1       35.0220   13.0430  134.9040 C.3   135  ILE135      0.0019
     42  CG2       35.4920   11.1380  136.4690 C.3   135  ILE135      0.0019
     43  CD1       33.4840   13.1820  135.3080 C.3   135  ILE135      0.0001
     44  N         33.7290    8.1600  138.7980 N.3   153  ASP153     -0.1239
     45  CA        32.4560    8.2770  139.5140 C.3   153  ASP153      0.1674
     46  C         32.0000    6.9100  140.0030 C.2   153  ASP153      0.2266
     47  O         30.8100    6.5870  139.9440 O.2   153  ASP153     -0.2867
     48  CB        31.3690    8.9240  138.6030 C.3   153  ASP153      0.1410
     49  CG        31.4750   10.4390  138.5740 C.2   153  ASP153      0.3668
     50  OD1       32.5480   11.0050  138.9600 O.co2 153  ASP153     -0.2456
     51  OD2       30.4780   11.1080  138.1760 O.co2 153  ASP153     -0.2456
     52  N         31.2530    4.0560  146.1520 N.3   183  ARG183     -0.1245
     53  CA        31.2260    5.0670  145.1110 C.3   183  ARG183      0.1563
     54  C         31.4420    6.4710  145.6640 C.2   183  ARG183      0.2260
     55  O         32.2400    7.2740  145.1420 O.2   183  ARG183     -0.2867
     56  CB        29.8740    5.0640  144.3690 C.3   183  ARG183      0.0307
     57  CG        29.8620    5.9590  143.1770 C.3   183  ARG183      0.0489
     58  CD        28.4440    6.2310  142.5580 C.3   183  ARG183      0.2205
     59  NE        27.8140    7.2450  143.3840 N.pl3 183  ARG183     -0.0865
     60  CZ        26.9530    8.1570  142.9660 C.cat 183  ARG183      0.5346
     61  NH1       26.5730    8.1990  141.6660 N.pl3 183  ARG183      0.1354
     62  NH2       26.4570    9.0060  143.8690 N.pl3 183  ARG183      0.1354
     63  N         35.1050    9.5690  144.6940 N.3   187  PHE187     -0.1227
     64  CA        34.1180    9.8030  143.6410 C.3   187  PHE187      0.1736
     65  C         34.7580   10.4110  142.3890 C.2   187  PHE187      0.2595
     66  O         34.6880    9.8040  141.3220 O.2   187  PHE187     -0.2718
     67  CB        32.9980   10.7080  144.1690 C.3   187  PHE187      0.0547
     68  CG        31.8580   10.8170  143.1990 C.ar  187  PHE187     -0.0202
     69  CD1       31.1380    9.6950  142.8750 C.ar  187  PHE187     -0.0042
     70  CD2       31.4510   12.0390  142.6830 C.ar  187  PHE187     -0.0042
     71  CE1       30.0780    9.7880  141.9530 C.ar  187  PHE187     -0.0003
     72  CE2       30.3500   12.1180  141.7850 C.ar  187  PHE187     -0.0003
     73  CZ        29.6810   11.0340  141.4260 C.ar  187  PHE187     -0.0000
     74  N         35.4350   11.5580  142.5220 N.am  188  GLU188     -0.1979
     75  CA        36.0220   12.1600  141.3360 C.3   188  GLU188      0.1602
     76  C         37.0940   13.1890  141.7010 C.2   188  GLU188      0.2287
     77  O         37.5160   13.2640  142.8630 O.2   188  GLU188     -0.2864
     78  CB        34.9220   12.7640  140.4660 C.3   188  GLU188      0.0415
     79  CG        34.1830   13.9010  141.0750 C.3   188  GLU188      0.1163
     80  CD        32.8990   14.2530  140.2540 C.2   188  GLU188      0.3649
     81  OE1       32.4850   13.5250  139.2690 O.co2 188  GLU188     -0.2457
     82  OE2       32.2300   15.2530  140.6260 O.co2 188  GLU188     -0.2457
     83  N         31.4990   12.4590  148.2700 N.3   208  ILE208     -0.1245
     84  CA        30.1440   12.9380  148.5070 C.3   208  ILE208      0.1561
     85  C         29.7540   12.5270  149.9110 C.2   208  ILE208      0.2260
     86  O         29.7900   11.3370  150.2590 O.2   208  ILE208     -0.2867
     87  CB        29.1540   12.3400  147.4820 C.3   208  ILE208      0.0252
     88  CG1       29.5730   12.6740  146.0570 C.3   208  ILE208      0.0019
     89  CG2       27.6860   12.8800  147.8400 C.3   208  ILE208      0.0019
     90  CD1       28.6030   11.9780  145.0450 C.3   208  ILE208      0.0001
     91  N         29.9440   18.0210  148.9790 N.3   214  ARG214     -0.1245
     92  CA        31.2350   17.5850  148.4580 C.3   214  ARG214      0.1563
     93  C         32.3420   17.9830  149.4120 C.2   214  ARG214      0.2260
     94  O         32.3140   19.0910  150.0010 O.2   214  ARG214     -0.2867
     95  CB        31.5010   18.2040  147.0980 C.3   214  ARG214      0.0307
     96  CG        30.4000   17.9490  146.0610 C.3   214  ARG214      0.0489
     97  CD        30.1590   16.4610  145.9310 C.3   214  ARG214      0.2205
     98  NE        29.2280   16.1420  144.8230 N.pl3 214  ARG214     -0.0865
     99  CZ        29.6280   15.8200  143.5830 C.cat 214  ARG214      0.5346
    100  NH1       30.9330   15.7940  143.2740 N.pl3 214  ARG214      0.1354
    101  NH2       28.7090   15.5400  142.6420 N.pl3 214  ARG214      0.1354
    102  N         22.2210   18.9650  138.1670 N.3   289  TYR289     -0.1227
    103  CA        23.6270   19.1290  138.4780 C.3   289  TYR289      0.1736
    104  C         24.3610   20.0570  137.5040 C.2   289  TYR289      0.2595
    105  O         25.1740   20.8990  137.9350 O.2   289  TYR289     -0.2718
    106  CB        24.3230   17.7290  138.4970 C.3   289  TYR289      0.0548
    107  CG        25.7950   17.8820  138.7610 C.ar  289  TYR289     -0.0200
    108  CD1       26.2610   18.0060  140.0770 C.ar  289  TYR289     -0.0009
    109  CD2       26.6890   17.9640  137.7050 C.ar  289  TYR289     -0.0009
    110  CE1       27.5910   18.2320  140.3230 C.ar  289  TYR289      0.0417
    111  CE2       28.0350   18.1810  137.9140 C.ar  289  TYR289      0.0417
    112  CZ        28.4760   18.3060  139.2350 C.ar  289  TYR289      0.1957
    113  OH        29.8270   18.4970  139.4210 O.3   289  TYR289     -0.2866
    114  N         24.0780   19.8830  136.2140 N.am  290  ASP290     -0.1974
    115  CA        24.9330   20.5570  135.2170 C.3   290  ASP290      0.1709
    116  C         24.7160   22.0780  135.2630 C.2   290  ASP290      0.2293
    117  O         25.5770   22.8110  134.7610 O.2   290  ASP290     -0.2864
    118  CB        24.6650   20.0480  133.7970 C.3   290  ASP290      0.1436
    119  CG        25.0980   18.6080  133.5930 C.2   290  ASP290      0.3671
    120  OD1       25.7230   18.0110  134.4900 O.co2 290  ASP290     -0.2456
    121  OD2       24.8650   18.1160  132.4700 O.co2 290  ASP290     -0.2456
@<TRIPOS>BOND
     1    18    17    2
     2    17    16    1
     3    16    19    1
     4    16    15    1
     5     4     3    2
     6    19    20    1
     7     3     2    1
     8     1     2    1
     9    20    21   ar
    10    20    22   ar
    11     2     5    1
    12    21    23   ar
    13     5     6    1
    14    22    25   ar
    15    22    24   ar
    16    25    27   ar
    17     7     6   ar
    18     7     9   ar
    19     6     8   ar
    20    23    24   ar
    21    24    26   ar
    22    27    28   ar
    23     9    10   ar
    24    32    31    2
    25     8    10   ar
    26     8    11   ar
    27    26    28   ar
    28    10    12   ar
    29    11    13   ar
    30    31    30    1
    31   121   119   ar
    32    30    29    1
    33    30    33    1
    34    12    14   ar
    35    13    14   ar
    36   119   118    1
    37   119   120   ar
    38   118   115    1
    39    33    35    1
    40    33    34    1
    41    36    37    1
    42    37    40    1
    43    37    38    1
    44   117   116    2
    45    41    40    1
    46    41    43    1
    47    40    42    1
    48    38    39    2
    49   115   116    1
    50   115   114    1
    51   114   104   am
    52   104   105    2
    53   104   103    1
    54   109   111   ar
    55   109   107   ar
    56   111   112   ar
    57   102   103    1
    58    51    49   ar
    59   103   106    1
    60   106   107    1
    61    49    48    1
    62    49    50   ar
    63    48    45    1
    64   107   108   ar
    65    44    45    1
    66   112   113    1
    67   112   110   ar
    68    81    80   ar
    69    45    46    1
    70    47    46    2
    71   108   110   ar
    72    80    82   ar
    73    80    79    1
    74    78    79    1
    75    78    75    1
    76    66    65    2
    77    75    76    1
    78    75    74    1
    79    73    72   ar
    80    73    71   ar
    81    61    60    1
    82    76    77    2
    83    72    70   ar
    84    71    69   ar
    85    65    74   am
    86    65    64    1
    87    58    57    1
    88    58    59    1
    89   101    99    1
    90    70    68   ar
    91    69    68   ar
    92    60    59    2
    93    60    62    1
    94    57    56    1
    95    68    67    1
    96   100    99    1
    97    99    98    2
    98    64    67    1
    99    64    63    1
   100    56    53    1
   101    98    97    1
   102    90    88    1
   103    53    54    1
   104    53    52    1
   105    55    54    2
   106    97    96    1
   107    88    87    1
   108    96    95    1
   109    95    92    1
   110    87    89    1
   111    87    84    1
   112    83    84    1
   113    92    91    1
   114    92    93    1
   115    84    85    1
   116    93    94    2
   117    85    86    2
