@<TRIPOS>MOLECULE
tmp/4o8zA00.pdb
 125 126 0 0 0
SMALL
GASTEIGER

@<TRIPOS>ATOM
      1  N         22.4730  -41.9580    2.3010 N.3    36  PHE36      -0.1241
      2  CA        22.3130  -42.8650    1.1030 C.3    36  PHE36       0.1605
      3  C         23.4480  -43.8740    0.8760 C.2    36  PHE36       0.2264
      4  O         24.5910  -43.6430    1.2690 O.2    36  PHE36      -0.2867
      5  CB        22.0800  -42.0520   -0.1840 C.3    36  PHE36       0.0534
      6  CG        20.8200  -41.2570   -0.1450 C.ar   36  PHE36      -0.0203
      7  CD1       19.5840  -41.9030   -0.0290 C.ar   36  PHE36      -0.0042
      8  CD2       20.8570  -39.8610   -0.1330 C.ar   36  PHE36      -0.0042
      9  CE1       18.3940  -41.1680    0.0540 C.ar   36  PHE36      -0.0003
     10  CE2       19.6790  -39.1200   -0.0610 C.ar   36  PHE36      -0.0003
     11  CZ        18.4450  -39.7760    0.0140 C.ar   36  PHE36      -0.0000
     12  N         20.2300  -46.7250   -7.6530 N.3    58  PHE58      -0.1241
     13  CA        21.4100  -46.0730   -8.1720 C.3    58  PHE58       0.1605
     14  C         22.2070  -46.9230   -9.1650 C.2    58  PHE58       0.2264
     15  O         23.3940  -46.6970   -9.4000 O.2    58  PHE58      -0.2867
     16  CB        22.3410  -45.5640   -7.0450 C.3    58  PHE58       0.0534
     17  CG        21.7150  -44.5380   -6.1140 C.ar   58  PHE58      -0.0203
     18  CD1       21.2950  -43.3070   -6.5760 C.ar   58  PHE58      -0.0042
     19  CD2       21.5910  -44.7910   -4.7430 C.ar   58  PHE58      -0.0042
     20  CE1       20.7230  -42.3850   -5.7100 C.ar   58  PHE58      -0.0003
     21  CE2       20.9990  -43.8710   -3.8770 C.ar   58  PHE58      -0.0003
     22  CZ        20.5960  -42.6510   -4.3670 C.ar   58  PHE58      -0.0000
     23  N         29.1500  -36.7770   -5.5810 N.3   126  HIS126     -0.1241
     24  CA        28.2620  -37.8820   -5.8870 C.3   126  HIS126      0.1621
     25  C         27.1650  -37.4150   -6.8380 C.2   126  HIS126      0.2264
     26  O         26.1770  -38.1040   -7.0500 O.2   126  HIS126     -0.2867
     27  CB        27.6640  -38.4510   -4.6070 C.3   126  HIS126      0.0745
     28  CG        28.6520  -39.1790   -3.7590 C.ar  126  HIS126      0.0817
     29  ND1       29.8110  -39.7260   -4.2580 N.ar  126  HIS126     -0.2268
     30  CD2       28.6200  -39.5070   -2.4580 C.ar  126  HIS126      0.1154
     31  CE1       30.4640  -40.3330   -3.2920 C.ar  126  HIS126      0.1986
     32  NE2       29.7590  -40.2180   -2.1880 N.ar  126  HIS126     -0.2212
     33  N         25.5530  -39.5420   -9.5090 N.3   170  VAL170     -0.1231
     34  CA        26.5440  -40.5630   -9.8650 C.3   170  VAL170      0.1692
     35  C         26.0210  -41.9220   -9.5260 C.2   170  VAL170      0.2592
     36  O         25.6640  -42.1640   -8.3980 O.2   170  VAL170     -0.2718
     37  CB        27.9140  -40.3230   -9.1530 C.3   170  VAL170      0.0266
     38  CG1       28.8650  -41.4530   -9.5210 C.3   170  VAL170      0.0020
     39  CG2       28.5160  -39.0120   -9.6470 C.3   170  VAL170      0.0020
     40  N         25.9410  -42.8230  -10.5000 N.am  171  PHE171     -0.1962
     41  CA        25.3660  -44.1370  -10.2570 C.3   171  PHE171      0.1771
     42  C         26.4950  -45.1240  -10.0300 C.2   171  PHE171      0.2620
     43  O         27.6180  -44.8040  -10.3510 O.2   171  PHE171     -0.2715
     44  CB        24.4940  -44.6270  -11.4350 C.3   171  PHE171      0.0574
     45  CG        23.0780  -44.1650  -11.3490 C.ar  171  PHE171     -0.0200
     46  CD1       22.7490  -43.0290  -10.5960 C.ar  171  PHE171     -0.0042
     47  CD2       22.0650  -44.8520  -11.9910 C.ar  171  PHE171     -0.0042
     48  CE1       21.4290  -42.5820  -10.4970 C.ar  171  PHE171     -0.0003
     49  CE2       20.7500  -44.4190  -11.8710 C.ar  171  PHE171     -0.0003
     50  CZ        20.4180  -43.2470  -11.1690 C.ar  171  PHE171     -0.0000
     51  N         26.1640  -46.2740   -9.4520 N.am  172  PHE172     -0.1960
     52  CA        27.1750  -47.3470   -9.2090 C.3   172  PHE172      0.1771
     53  C         28.0200  -47.5750  -10.4120 C.2   172  PHE172      0.2620
     54  O         27.5400  -47.6690  -11.5600 O.2   172  PHE172     -0.2715
     55  CB        26.5660  -48.6740   -8.7310 C.3   172  PHE172      0.0574
     56  CG        26.1570  -48.6350   -7.3210 C.ar  172  PHE172     -0.0200
     57  CD1       27.1040  -48.6020   -6.3230 C.ar  172  PHE172     -0.0042
     58  CD2       24.8260  -48.5570   -6.9700 C.ar  172  PHE172     -0.0042
     59  CE1       26.7270  -48.5080   -4.9860 C.ar  172  PHE172     -0.0003
     60  CE2       24.4360  -48.4450   -5.6500 C.ar  172  PHE172     -0.0003
     61  CZ        25.3860  -48.4310   -4.6430 C.ar  172  PHE172     -0.0000
     62  N         29.3270  -47.5780  -10.1650 N.am  173  GLY173     -0.1940
     63  CA        30.2630  -47.9290  -11.1830 C.3   173  GLY173      0.2014
     64  C         30.5550  -46.8210  -12.1490 C.2   173  GLY173      0.2638
     65  O         31.3530  -46.9940  -13.0510 O.2   173  GLY173     -0.2714
     66  N         29.9100  -45.6710  -12.0180 N.am  174  GLU174     -0.1977
     67  CA        30.2740  -44.5820  -12.8850 C.3   174  GLU174      0.1602
     68  C         31.5030  -43.8310  -12.2610 C.2   174  GLU174      0.2287
     69  O         31.7600  -43.9310  -11.0900 O.2   174  GLU174     -0.2864
     70  CB        29.1400  -43.6100  -13.0780 C.3   174  GLU174      0.0415
     71  CG        27.9040  -44.1720  -13.7220 C.3   174  GLU174      0.1163
     72  CD        26.9870  -43.0490  -14.1080 C.2   174  GLU174      0.3649
     73  OE1       26.4230  -42.3690  -13.1970 O.co2 174  GLU174     -0.2457
     74  OE2       26.7640  -42.8830  -15.3370 O.co2 174  GLU174     -0.2457
     75  N         33.6280  -40.5040  -10.9410 N.3   176  LEU176     -0.1245
     76  CA        33.2680  -39.2590  -10.2890 C.3   176  LEU176      0.1561
     77  C         33.2190  -38.1250  -11.2940 C.2   176  LEU176      0.2260
     78  O         33.8320  -38.2110  -12.3390 O.2   176  LEU176     -0.2867
     79  CB        34.2450  -38.9950   -9.1400 C.3   176  LEU176      0.0270
     80  CG        34.1790  -39.9950   -7.9760 C.3   176  LEU176      0.0019
     81  CD1       35.0030  -39.4790   -6.8000 C.3   176  LEU176      0.0001
     82  CD2       32.7550  -40.2920   -7.4850 C.3   176  LEU176      0.0001
     83  N         35.9790  -42.2270    5.5750 N.3   201  GLU201     -0.1231
     84  CA        36.6930  -43.4830    5.7570 C.3   201  GLU201      0.1699
     85  C         36.9180  -44.2220    4.4210 C.2   201  GLU201      0.2592
     86  O         37.6180  -45.2220    4.3600 O.2   201  GLU201     -0.2718
     87  CB        35.9030  -44.3480    6.7310 C.3   201  GLU201      0.0402
     88  CG        36.1210  -43.9070    8.1440 C.3   201  GLU201      0.1161
     89  CD        35.3410  -44.7060    9.1500 C.2   201  GLU201      0.3649
     90  OE1       34.1140  -44.5050    9.1940 O.co2 201  GLU201     -0.2457
     91  OE2       35.9700  -45.5010    9.9010 O.co2 201  GLU201     -0.2457
     92  N         36.3500  -43.7040    3.3500 N.am  202  VAL202     -0.1966
     93  CA        36.2910  -44.4390    2.1000 C.3   202  VAL202      0.1727
     94  C         36.9870  -43.6250    1.0210 C.2   202  VAL202      0.2616
     95  O         36.7570  -42.4240    0.9010 O.2   202  VAL202     -0.2715
     96  CB        34.8200  -44.7880    1.6920 C.3   202  VAL202      0.0290
     97  CG1       34.0020  -45.1790    2.9090 C.3   202  VAL202      0.0023
     98  CG2       34.1190  -43.6520    0.9880 C.3   202  VAL202      0.0023
     99  N         37.8150  -44.3080    0.2250 N.am  203  GLU203     -0.1964
    100  CA        38.5390  -43.6790   -0.8650 C.3   203  GLU203      0.1718
    101  C         37.5710  -43.2510   -1.9050 C.2   203  GLU203      0.2458
    102  O         36.5070  -43.8200   -1.9830 O.2   203  GLU203     -0.2730
    103  CB        39.5980  -44.6130   -1.4330 C.3   203  GLU203      0.0428
    104  CG        40.7270  -44.8990   -0.4300 C.3   203  GLU203      0.1163
    105  CD        41.6590  -43.6940   -0.1670 C.2   203  GLU203      0.3649
    106  OE1       41.3240  -42.5340   -0.5300 O.co2 203  GLU203     -0.2457
    107  OE2       42.7530  -43.9090    0.3880 O.co2 203  GLU203     -0.2457
    108  N         37.8970  -42.1860   -2.6620 N.am  204  PRO204     -0.2716
    109  CA        39.0960  -41.3410   -2.6490 C.3   204  PRO204      0.1536
    110  C         39.0730  -40.2060   -1.6150 C.2   204  PRO204      0.2598
    111  O         40.0920  -39.5430   -1.4380 O.2   204  PRO204     -0.2715
    112  CB        39.0850  -40.6940   -4.0480 C.3   204  PRO204      0.0310
    113  CG        37.6470  -40.6250   -4.4040 C.3   204  PRO204      0.0237
    114  CD        36.8840  -41.6480   -3.5780 C.3   204  PRO204      0.0939
    115  N         37.9600  -39.9690   -0.9290 N.am  205  PHE205     -0.1974
    116  CA        37.9640  -38.9010    0.1190 C.3   205  PHE205      0.1639
    117  C         38.9510  -39.1170    1.2470 C.2   205  PHE205      0.2290
    118  O         39.5610  -38.1670    1.7690 O.2   205  PHE205     -0.2864
    119  CB        36.5870  -38.7050    0.6860 C.3   205  PHE205      0.0560
    120  CG        35.5260  -38.6190   -0.3610 C.ar  205  PHE205     -0.0200
    121  CD1       35.3100  -37.4230   -1.0300 C.ar  205  PHE205     -0.0042
    122  CD2       34.7210  -39.7480   -0.6760 C.ar  205  PHE205     -0.0042
    123  CE1       34.3230  -37.3270   -1.9930 C.ar  205  PHE205     -0.0003
    124  CE2       33.7040  -39.6510   -1.6320 C.ar  205  PHE205     -0.0003
    125  CZ        33.5230  -38.4390   -2.3080 C.ar  205  PHE205     -0.0000
@<TRIPOS>BOND
     1    74    72   ar
     2    72    71    1
     3    72    73   ar
     4    71    70    1
     5    70    67    1
     6    65    64    2
     7    67    68    1
     8    67    66    1
     9    78    77    2
    10    68    69    2
    11    64    66   am
    12    64    63    1
    13    47    49   ar
    14    47    45   ar
    15    49    50   ar
    16    54    53    2
    17    44    45    1
    18    44    41    1
    19    45    46   ar
    20    77    76    1
    21    63    62    1
    22    50    48   ar
    23    75    76    1
    24    46    48   ar
    25    40    41    1
    26    40    35   am
    27    53    62   am
    28    53    52    1
    29    43    42    2
    30    76    79    1
    31    41    42    1
    32    42    51   am
    33    34    35    1
    34    34    33    1
    35    34    37    1
    36    39    37    1
    37    35    36    2
    38    38    37    1
    39    51    52    1
    40    15    14    2
    41    52    55    1
    42    14    13    1
    43    79    80    1
    44    55    56    1
    45    13    12    1
    46    13    16    1
    47    80    82    1
    48    80    81    1
    49    56    58   ar
    50    56    57   ar
    51    26    25    2
    52    16    17    1
    53    58    60   ar
    54    25    24    1
    55    18    17   ar
    56    18    20   ar
    57    57    59   ar
    58    17    19   ar
    59    24    23    1
    60    24    27    1
    61    20    22   ar
    62    60    61   ar
    63    59    61   ar
    64    19    21   ar
    65    27    28    1
    66   113   112    1
    67   113   114    1
    68    22    21   ar
    69    29    28   ar
    70    29    31   ar
    71   112   109    1
    72    28    30   ar
    73   114   108    1
    74    31    32   ar
    75   108   109    1
    76   108   101   am
    77   109   110    1
    78    30    32   ar
    79   125   123   ar
    80   125   124   ar
    81   123   121   ar
    82   102   101    2
    83   101   100    1
    84   124   122   ar
    85   110   111    2
    86   110   115   am
    87   103   100    1
    88   103   104    1
    89   121   120   ar
    90   115   116    1
    91   100    99    1
    92   122   120   ar
    93   106   105   ar
    94   104   105    1
    95   120   119    1
    96     5     6    1
    97     5     2    1
    98   105   107   ar
    99     6     8   ar
   100     6     7   ar
   101     8    10   ar
   102    10    11   ar
   103     7     9   ar
   104    11     9   ar
   105   116   119    1
   106   116   117    1
   107    99    94   am
   108     3     2    1
   109     3     4    2
   110    95    94    2
   111    98    96    1
   112    94    93    1
   113     2     1    1
   114   117   118    2
   115    96    93    1
   116    96    97    1
   117    93    92    1
   118    92    85   am
   119    86    85    2
   120    85    84    1
   121    83    84    1
   122    84    87    1
   123    87    88    1
   124    88    89    1
   125    89    90   ar
   126    89    91   ar
