@<TRIPOS>MOLECULE
tmp/4o91A00.pdb
 228 217 0 0 0
SMALL
GASTEIGER

@<TRIPOS>ATOM
      1  N        -18.6300  -54.8630  -13.4200 N.3    16  VAL16      -0.1245
      2  CA       -18.4780  -54.3660  -14.7900 C.3    16  VAL16       0.1561
      3  C        -17.9340  -55.4460  -15.7320 C.2    16  VAL16       0.2260
      4  O        -18.5180  -55.7050  -16.7820 O.2    16  VAL16      -0.2867
      5  CB       -17.5460  -53.1340  -14.8480 C.3    16  VAL16       0.0252
      6  CG1      -17.2880  -52.7120  -16.2960 C.3    16  VAL16       0.0019
      7  CG2      -18.1360  -51.9890  -14.0470 C.3    16  VAL16       0.0019
      8  N        -13.4940  -56.0860  -12.0430 N.3    24  VAL24      -0.1245
      9  CA       -13.7970  -54.6590  -11.9500 C.3    24  VAL24       0.1561
     10  C        -15.2720  -54.4110  -11.6190 C.2    24  VAL24       0.2260
     11  O        -16.1590  -54.8810  -12.3270 O.2    24  VAL24      -0.2867
     12  CB       -13.4440  -53.9220  -13.2590 C.3    24  VAL24       0.0252
     13  CG1      -13.9170  -52.4670  -13.2010 C.3    24  VAL24       0.0019
     14  CG2      -11.9460  -53.9950  -13.5330 C.3    24  VAL24       0.0019
     15  N        -14.7010  -46.8000   -9.5350 N.3    35  ALA35      -0.1231
     16  CA       -14.5830  -48.1310  -10.0960 C.3    35  ALA35       0.1694
     17  C        -13.5010  -48.8550   -9.3270 C.2    35  ALA35       0.2592
     18  O        -12.4170  -48.3090   -9.1150 O.2    35  ALA35      -0.2718
     19  CB       -14.2660  -48.0800  -11.5770 C.3    35  ALA35       0.0304
     20  N        -13.8070  -50.0690   -8.8800 N.am   36  ILE36      -0.1966
     21  CA       -12.8480  -50.8370   -8.1050 C.3    36  ILE36       0.1727
     22  C        -12.4200  -52.0800   -8.8500 C.2    36  ILE36       0.2616
     23  O        -13.2040  -52.6810   -9.5770 O.2    36  ILE36      -0.2715
     24  CB       -13.4020  -51.2390   -6.7210 C.3    36  ILE36       0.0290
     25  CG1      -14.5940  -52.1870   -6.8600 C.3    36  ILE36       0.0022
     26  CG2      -13.7690  -50.0030   -5.9140 C.3    36  ILE36       0.0023
     27  CD1      -15.0690  -52.7570   -5.5470 C.3    36  ILE36       0.0001
     28  N        -11.1510  -52.4350   -8.6840 N.am   37  LYS37      -0.1977
     29  CA       -10.6160  -53.6910   -9.2010 C.3    37  LYS37       0.1596
     30  C        -10.1210  -54.5240   -8.0160 C.2    37  LYS37       0.2287
     31  O         -9.1870  -54.1280   -7.3190 O.2    37  LYS37      -0.2864
     32  CB        -9.4890  -53.4390  -10.2130 C.3    37  LYS37       0.0298
     33  CG        -8.9640  -54.6960  -10.8890 C.3    37  LYS37       0.0038
     34  CD        -7.8790  -54.3870  -11.9080 C.3    37  LYS37       0.0206
     35  CE        -7.3900  -55.6710  -12.5640 C.3    37  LYS37       0.1093
     36  NZ        -6.3630  -55.4500  -13.6160 N.3    37  LYS37      -0.1314
     37  N          0.7090  -53.1570  -11.1130 N.3    51  GLU51      -0.1245
     38  CA        -0.2880  -52.2050  -11.5860 C.3    51  GLU51       0.1567
     39  C         -0.4800  -51.0550  -10.5910 C.2    51  GLU51       0.2260
     40  O         -0.5930  -49.8900  -10.9820 O.2    51  GLU51      -0.2867
     41  CB        -1.6160  -52.9240  -11.8420 C.3    51  GLU51       0.0388
     42  CG        -2.7240  -52.0500  -12.4060 C.3    51  GLU51       0.1160
     43  CD        -3.9370  -52.8580  -12.8390 C.2    51  GLU51       0.3649
     44  OE1       -3.9240  -54.0960  -12.6470 O.co2  51  GLU51      -0.2457
     45  OE2       -4.9000  -52.2590  -13.3720 O.co2  51  GLU51      -0.2457
     46  N          2.5250  -48.7530  -10.9850 N.3    54  GLN54      -0.1231
     47  CA         2.4180  -47.9560  -12.2010 C.3    54  GLN54       0.1698
     48  C          1.3930  -46.8280  -12.0580 C.2    54  GLN54       0.2592
     49  O          1.6830  -45.6710  -12.3630 O.2    54  GLN54      -0.2718
     50  CB         2.0580  -48.8510  -13.3870 C.3    54  GLN54       0.0381
     51  CG         3.1420  -49.8470  -13.7770 C.3    54  GLN54       0.0905
     52  CD         2.6160  -50.9330  -14.7030 C.2    54  GLN54       0.2608
     53  OE1        1.4150  -51.2250  -14.7240 O.2    54  GLN54      -0.2717
     54  NE2        3.5100  -51.5350  -15.4740 N.am   54  GLN54      -0.0878
     55  N          0.1990  -47.1640  -11.5820 N.am   55  LEU55      -0.1980
     56  CA        -0.8890  -46.1880  -11.4860 C.3    55  LEU55       0.1596
     57  C         -0.6420  -45.0880  -10.4500 C.2    55  LEU55       0.2287
     58  O         -1.1720  -43.9850  -10.5730 O.2    55  LEU55      -0.2864
     59  CB        -2.2030  -46.8990  -11.1670 C.3    55  LEU55       0.0297
     60  CG        -2.8000  -47.7400  -12.2930 C.3    55  LEU55       0.0022
     61  CD1       -4.0750  -48.4020  -11.8100 C.3    55  LEU55       0.0001
     62  CD2       -3.0670  -46.8750  -13.5120 C.3    55  LEU55       0.0001
     63  N          1.2040  -42.3220  -12.2450 N.3    58  VAL58      -0.1245
     64  CA         0.5140  -41.6960  -13.3650 C.3    58  VAL58       0.1561
     65  C         -0.5360  -40.6850  -12.9250 C.2    58  VAL58       0.2260
     66  O         -1.4630  -41.0130  -12.1810 O.2    58  VAL58      -0.2867
     67  CB        -0.1610  -42.7630  -14.2540 C.3    58  VAL58       0.0252
     68  CG1       -1.1200  -42.1150  -15.2480 C.3    58  VAL58       0.0019
     69  CG2        0.8980  -43.6160  -14.9650 C.3    58  VAL58       0.0019
     70  N         -5.6670  -40.0910  -18.9000 N.3    63  ILE63      -0.1231
     71  CA        -5.4140  -41.4180  -18.3860 C.3    63  ILE63       0.1692
     72  C         -6.2630  -41.6220  -17.1470 C.2    63  ILE63       0.2591
     73  O         -6.5280  -40.6810  -16.4090 O.2    63  ILE63      -0.2718
     74  CB        -3.9490  -41.6290  -18.0420 C.3    63  ILE63       0.0266
     75  CG1       -3.0610  -41.0760  -19.1570 C.3    63  ILE63       0.0019
     76  CG2       -3.6710  -43.1060  -17.8030 C.3    63  ILE63       0.0020
     77  CD1       -1.6100  -41.4750  -19.0090 C.3    63  ILE63       0.0001
     78  N         -6.7010  -42.8500  -16.9270 N.am   64  VAL64      -0.1980
     79  CA        -7.5560  -43.1410  -15.7980 C.3    64  VAL64       0.1595
     80  C         -6.8100  -42.8200  -14.5030 C.2    64  VAL64       0.2287
     81  O         -5.5950  -42.9970  -14.4070 O.2    64  VAL64      -0.2864
     82  CB        -8.0350  -44.6170  -15.8420 C.3    64  VAL64       0.0276
     83  CG1       -6.8560  -45.5740  -15.7830 C.3    64  VAL64       0.0022
     84  CG2       -8.9850  -44.8780  -14.7460 C.3    64  VAL64       0.0022
     85  N         -7.8900  -51.8740   -6.0400 N.3    76  LEU76      -0.1245
     86  CA        -7.6220  -50.5500   -6.6070 C.3    76  LEU76       0.1561
     87  C         -8.8950  -49.7070   -6.7280 C.2    76  LEU76       0.2260
     88  O         -9.9130  -50.1630   -7.2590 O.2    76  LEU76      -0.2867
     89  CB        -6.9690  -50.6780   -7.9850 C.3    76  LEU76       0.0270
     90  CG        -5.7820  -51.6270   -8.1070 C.3    76  LEU76       0.0019
     91  CD1       -5.3610  -51.7420   -9.5560 C.3    76  LEU76       0.0001
     92  CD2       -4.6270  -51.1410   -7.2500 C.3    76  LEU76       0.0001
     93  N        -10.4280  -46.4490   -8.4390 N.3    78  MET78      -0.1230
     94  CA       -10.2410  -45.4620   -9.4910 C.3    78  MET78       0.1702
     95  C        -11.3710  -44.4500   -9.5300 C.2    78  MET78       0.2592
     96  O        -12.4690  -44.7210   -9.0410 O.2    78  MET78      -0.2718
     97  CB       -10.1460  -46.1530  -10.8490 C.3    78  MET78       0.0401
     98  CG        -9.2840  -47.3890  -10.8620 C.3    78  MET78       0.0596
     99  SD        -7.5650  -46.9930  -10.5780 S.3    78  MET78      -0.1393
    100  CE        -7.1720  -46.0830  -12.0620 C.3    78  MET78       0.0692
    101  N        -11.1010  -43.2900  -10.1230 N.am   79  GLU79      -0.1966
    102  CA       -12.1570  -42.3470  -10.4650 C.3    79  GLU79       0.1733
    103  C        -13.0300  -42.9760  -11.5400 C.2    79  GLU79       0.2616
    104  O        -12.5240  -43.4240  -12.5690 O.2    79  GLU79      -0.2715
    105  CB       -11.5680  -41.0230  -10.9530 C.3    79  GLU79       0.0429
    106  CG       -12.5790  -40.0750  -11.5910 C.3    79  GLU79       0.1163
    107  CD       -11.9150  -38.8900  -12.2810 C.2    79  GLU79       0.3649
    108  OE1      -11.1430  -39.1090  -13.2450 O.co2  79  GLU79      -0.2457
    109  OE2      -12.1590  -37.7400  -11.8530 O.co2  79  GLU79      -0.2457
    110  N        -14.3370  -43.0220  -11.3050 N.am   80  TYR80      -0.1960
    111  CA       -15.2330  -43.7060  -12.2290 C.3    80  TYR80       0.1771
    112  C        -15.4230  -42.9560  -13.5440 C.2    80  TYR80       0.2619
    113  O        -15.9550  -41.8420  -13.5750 O.2    80  TYR80      -0.2715
    114  CB       -16.5950  -43.9440  -11.5800 C.3    80  TYR80       0.0574
    115  CG       -17.5710  -44.6750  -12.4740 C.ar   80  TYR80      -0.0198
    116  CD1      -17.3450  -45.9920  -12.8500 C.ar   80  TYR80      -0.0009
    117  CD2      -18.7270  -44.0540  -12.9320 C.ar   80  TYR80      -0.0009
    118  CE1      -18.2400  -46.6720  -13.6640 C.ar   80  TYR80       0.0417
    119  CE2      -19.6290  -44.7270  -13.7490 C.ar   80  TYR80       0.0417
    120  CZ       -19.3800  -46.0330  -14.1100 C.ar   80  TYR80       0.1957
    121  OH       -20.2700  -46.7010  -14.9190 O.3    80  TYR80      -0.2866
    122  N        -14.9750  -43.5880  -14.6260 N.am   81  ALA81      -0.1977
    123  CA       -15.2940  -43.1560  -15.9800 C.3    81  ALA81       0.1597
    124  C        -16.6580  -43.7220  -16.3900 C.2    81  ALA81       0.2287
    125  O        -16.8500  -44.9480  -16.3920 O.2    81  ALA81      -0.2864
    126  CB       -14.2210  -43.6030  -16.9420 C.3    81  ALA81       0.0319
    127  N        -18.5240  -45.3400  -20.8840 N.3    84  GLY84      -0.1225
    128  CA       -18.1920  -46.5560  -21.6050 C.3    84  GLY84       0.1811
    129  C        -16.9880  -46.4430  -22.5300 C.2    84  GLY84       0.2280
    130  O        -16.3490  -45.3900  -22.6240 O.2    84  GLY84      -0.2866
    131  N          2.8860  -41.1330  -20.9530 N.3   118  LEU118     -0.1245
    132  CA         3.4300  -42.4180  -20.5220 C.3   118  LEU118      0.1561
    133  C          4.8430  -42.6220  -21.0720 C.2   118  LEU118      0.2260
    134  O          5.7020  -43.1910  -20.4030 O.2   118  LEU118     -0.2867
    135  CB         2.5300  -43.5850  -20.9590 C.3   118  LEU118      0.0270
    136  CG         1.1300  -43.7780  -20.3680 C.3   118  LEU118      0.0019
    137  CD1        0.4410  -44.9060  -21.0970 C.3   118  LEU118      0.0001
    138  CD2        1.1810  -44.0820  -18.8850 C.3   118  LEU118      0.0001
    139  N          6.8740  -45.6600  -19.5090 N.3   126  LEU126     -0.1231
    140  CA         5.8570  -46.7060  -19.5820 C.3   126  LEU126      0.1693
    141  C          5.3470  -46.8510  -21.0080 C.2   126  LEU126      0.2592
    142  O          5.0240  -45.8600  -21.6730 O.2   126  LEU126     -0.2718
    143  CB         4.6910  -46.4110  -18.6420 C.3   126  LEU126      0.0284
    144  CG         4.9900  -46.5850  -17.1560 C.3   126  LEU126      0.0019
    145  CD1        3.7360  -46.3980  -16.3250 C.3   126  LEU126      0.0001
    146  CD2        5.6010  -47.9540  -16.9130 C.3   126  LEU126      0.0001
    147  N          5.3040  -48.0900  -21.4780 N.am  127  ILE127     -0.1966
    148  CA         4.7210  -48.3950  -22.7750 C.3   127  ILE127      0.1727
    149  C          3.3430  -49.0120  -22.5350 C.2   127  ILE127      0.2616
    150  O          3.1620  -49.7650  -21.5720 O.2   127  ILE127     -0.2715
    151  CB         5.6150  -49.3530  -23.5770 C.3   127  ILE127      0.0290
    152  CG1        6.9820  -48.7230  -23.8060 C.3   127  ILE127      0.0022
    153  CG2        4.9900  -49.7190  -24.9090 C.3   127  ILE127      0.0023
    154  CD1        7.9600  -49.6570  -24.5140 C.3   127  ILE127      0.0001
    155  N          2.3670  -48.6850  -23.3800 N.am  128  HIS128     -0.1959
    156  CA         1.0210  -49.2210  -23.1820 C.3   128  HIS128      0.1787
    157  C          0.9670  -50.6480  -23.6940 C.2   128  HIS128      0.2620
    158  O          0.6590  -51.5670  -22.9360 O.2   128  HIS128     -0.2715
    159  CB        -0.0510  -48.3610  -23.8740 C.3   128  HIS128      0.0785
    160  CG        -1.4470  -48.7190  -23.4650 C.ar  128  HIS128      0.0821
    161  ND1       -2.0880  -49.8570  -23.9130 N.ar  128  HIS128     -0.2267
    162  CD2       -2.3050  -48.1210  -22.6050 C.ar  128  HIS128      0.1154
    163  CE1       -3.2890  -49.9310  -23.3610 C.ar  128  HIS128      0.1986
    164  NE2       -3.4410  -48.8940  -22.5620 N.ar  128  HIS128     -0.2212
    165  N          1.2710  -50.8050  -24.9850 N.am  129  ARG129     -0.1977
    166  CA         1.4090  -52.0980  -25.6790 C.3   129  ARG129      0.1597
    167  C          0.0870  -52.7510  -26.0850 C.2   129  ARG129      0.2287
    168  O          0.0800  -53.7340  -26.8270 O.2   129  ARG129     -0.2864
    169  CB         2.2230  -53.0810  -24.8340 C.3   129  ARG129      0.0334
    170  CG         3.5210  -53.5280  -25.4840 C.3   129  ARG129      0.0492
    171  CD         3.2590  -54.3220  -26.7480 C.3   129  ARG129      0.2205
    172  NE         2.5840  -55.5810  -26.4470 N.pl3 129  ARG129     -0.0865
    173  CZ         3.2090  -56.6860  -26.0600 C.cat 129  ARG129      0.5346
    174  NH1        4.5270  -56.6850  -25.9310 N.pl3 129  ARG129      0.1354
    175  NH2        2.5160  -57.7860  -25.8000 N.pl3 129  ARG129      0.1354
    176  N        -11.5590  -45.2420  -22.7090 N.3   137  LEU137     -0.1245
    177  CA       -12.8200  -44.8380  -22.0970 C.3   137  LEU137      0.1561
    178  C        -13.1900  -43.4070  -22.4650 C.2   137  LEU137      0.2260
    179  O        -12.3180  -42.5510  -22.6270 O.2   137  LEU137     -0.2867
    180  CB       -12.7600  -44.9850  -20.5760 C.3   137  LEU137      0.0270
    181  CG       -12.4940  -46.3910  -20.0340 C.3   137  LEU137      0.0019
    182  CD1      -12.5170  -46.3560  -18.5240 C.3   137  LEU137      0.0001
    183  CD2      -13.4940  -47.4170  -20.5640 C.3   137  LEU137      0.0001
    184  N         -7.3770  -43.1220  -21.2680 N.3   147  ILE147     -0.1231
    185  CA        -6.6770  -44.3700  -21.5200 C.3   147  ILE147      0.1692
    186  C         -6.7110  -45.2710  -20.2970 C.2   147  ILE147      0.2592
    187  O         -6.5290  -44.8200  -19.1680 O.2   147  ILE147     -0.2718
    188  CB        -5.2250  -44.1080  -21.9090 C.3   147  ILE147      0.0266
    189  CG1       -5.1760  -43.2690  -23.1770 C.3   147  ILE147      0.0019
    190  CG2       -4.4570  -45.4060  -22.1070 C.3   147  ILE147      0.0020
    191  CD1       -3.7810  -42.8100  -23.5060 C.3   147  ILE147      0.0001
    192  N         -6.9300  -46.5540  -20.5240 N.am  148  CYS148     -0.1956
    193  CA        -6.8370  -47.5210  -19.4460 C.3   148  CYS148      0.1843
    194  C         -6.2920  -48.8620  -19.9690 C.2   148  CYS148      0.2625
    195  O         -5.9540  -48.9840  -21.1430 O.2   148  CYS148     -0.2714
    196  CB        -8.2060  -47.6960  -18.8060 C.3   148  CYS148      0.0997
    197  SG        -9.3640  -48.4390  -19.9230 S.3   148  CYS148     -0.0797
    198  N         -6.1990  -49.8690  -19.1110 N.am  149  ASP149     -0.1957
    199  CA        -5.7540  -51.1780  -19.5700 C.3   149  ASP149      0.1840
    200  C         -6.3920  -52.2700  -18.7260 C.2   149  ASP149      0.2622
    201  O         -6.0680  -52.4310  -17.5510 O.2   149  ASP149     -0.2715
    202  CB        -4.2230  -51.2760  -19.5250 C.3   149  ASP149      0.1450
    203  CG        -3.7010  -52.6250  -20.0110 C.2   149  ASP149      0.3671
    204  OD1       -4.4490  -53.3740  -20.6780 O.co2 149  ASP149     -0.2456
    205  OD2       -2.5270  -52.9370  -19.7300 O.co2 149  ASP149     -0.2456
    206  N         -7.3090  -53.0150  -19.3290 N.am  150  PHE150     -0.1974
    207  CA        -7.9940  -54.0800  -18.6140 C.3   150  PHE150      0.1639
    208  C         -7.2130  -55.3910  -18.7080 C.2   150  PHE150      0.2290
    209  O         -7.5460  -56.3580  -18.0330 O.2   150  PHE150     -0.2864
    210  CB        -9.4140  -54.2680  -19.1550 C.3   150  PHE150      0.0560
    211  CG       -10.2570  -53.0180  -19.1080 C.ar  150  PHE150     -0.0200
    212  CD1      -10.7200  -52.5180  -17.8980 C.ar  150  PHE150     -0.0042
    213  CD2      -10.6000  -52.3510  -20.2760 C.ar  150  PHE150     -0.0042
    214  CE1      -11.5040  -51.3590  -17.8540 C.ar  150  PHE150     -0.0003
    215  CE2      -11.3830  -51.1980  -20.2410 C.ar  150  PHE150     -0.0003
    216  CZ       -11.8350  -50.6990  -19.0270 C.ar  150  PHE150     -0.0000
    217  N         10.9670  -54.8580  -29.0950 N.3   167  TYR167     -0.1241
    218  CA        10.1470  -53.6960  -29.4380 C.3   167  TYR167      0.1605
    219  C         10.3820  -52.4690  -28.5390 C.2   167  TYR167      0.2264
    220  O         11.0660  -52.5470  -27.5150 O.2   167  TYR167     -0.2867
    221  CB         8.6690  -54.0870  -29.4020 C.3   167  TYR167      0.0534
    222  CG         8.1380  -54.3920  -28.0200 C.ar  167  TYR167     -0.0201
    223  CD1        7.6800  -53.3720  -27.1910 C.ar  167  TYR167     -0.0009
    224  CD2        8.0730  -55.6970  -27.5510 C.ar  167  TYR167     -0.0009
    225  CE1        7.1870  -53.6370  -25.9340 C.ar  167  TYR167      0.0417
    226  CE2        7.5750  -55.9750  -26.2870 C.ar  167  TYR167      0.0417
    227  CZ         7.1330  -54.9370  -25.4840 C.ar  167  TYR167      0.1957
    228  OH         6.6360  -55.1870  -24.2230 O.3   167  TYR167     -0.2866
@<TRIPOS>BOND
     1   218   221    1
     2   218   217    1
     3   218   219    1
     4   221   222    1
     5   219   220    2
     6   222   224   ar
     7   222   223   ar
     8   224   226   ar
     9   223   225   ar
    10   168   167    2
    11   171   172    1
    12   171   170    1
    13   172   173    2
    14   226   227   ar
    15   167   166    1
    16   173   174    1
    17   173   175    1
    18   225   227   ar
    19   166   165    1
    20   166   169    1
    21   227   228    1
    22   170   169    1
    23   165   157   am
    24   153   151    1
    25   154   152    1
    26   161   160   ar
    27   161   163   ar
    28   159   160    1
    29   159   156    1
    30   152   151    1
    31   157   156    1
    32   157   158    2
    33   151   148    1
    34   191   189    1
    35   160   162   ar
    36   155   156    1
    37   155   149   am
    38   163   164   ar
    39   189   188    1
    40   148   149    1
    41   148   147    1
    42   176   177    1
    43   179   178    2
    44   130   129    2
    45   162   164   ar
    46   149   150    2
    47   129   128    1
    48   178   177    1
    49   190   188    1
    50   177   180    1
    51   188   185    1
    52   142   141    2
    53   128   127    1
    54   185   184    1
    55   185   186    1
    56   147   141   am
    57   195   194    2
    58   137   136    1
    59   133   132    1
    60   133   134    2
    61   141   140    1
    62   135   132    1
    63   135   136    1
    64   131   132    1
    65   204   203   ar
    66   180   181    1
    67   183   181    1
    68   192   186   am
    69   192   193    1
    70   136   138    1
    71   186   187    2
    72   213   215   ar
    73   213   211   ar
    74   215   216   ar
    75   181   182    1
    76   203   205   ar
    77   203   202    1
    78   194   193    1
    79   194   198   am
    80   197   196    1
    81   140   139    1
    82   140   143    1
    83   199   202    1
    84   199   198    1
    85   199   200    1
    86   193   196    1
    87   206   200   am
    88   206   207    1
    89    75    77    1
    90    75    74    1
    91   210   211    1
    92   210   207    1
    93   211   212   ar
    94   216   214   ar
    95    70    71    1
    96   200   201    2
    97   208   207    1
    98   208   209    2
    99   143   144    1
   100    71    74    1
   101    71    72    1
   102    74    76    1
   103   212   214   ar
   104   144   146    1
   105   144   145    1
   106    72    78   am
   107    72    73    2
   108   126   123    1
   109    78    79    1
   110     4     3    2
   111   125   124    2
   112   124   123    1
   113     6     5    1
   114   123   122    1
   115    82    79    1
   116    82    83    1
   117    82    84    1
   118    79    80    1
   119     3     2    1
   120    54    52   am
   121    68    67    1
   122    69    67    1
   123   121   120    1
   124     5     2    1
   125     5     7    1
   126     2     1    1
   127    53    52    2
   128    52    51    1
   129   122   112   am
   130    80    81    2
   131    67    64    1
   132   120   119   ar
   133   120   118   ar
   134    51    50    1
   135   119   117   ar
   136   118   116   ar
   137    36    35    1
   138   113   112    2
   139   112   111    1
   140    14    12    1
   141    62    60    1
   142    50    47    1
   143    45    43   ar
   144    64    65    1
   145    64    63    1
   146    12    13    1
   147    12     9    1
   148   108   107   ar
   149   117   115   ar
   150    65    66    2
   151   116   115   ar
   152    43    44   ar
   153    43    42    1
   154   104   103    2
   155    35    34    1
   156   115   114    1
   157    42    41    1
   158    49    48    2
   159    11    10    2
   160    60    61    1
   161    60    59    1
   162   107   109   ar
   163   107   106    1
   164   111   114    1
   165   111   110    1
   166    47    48    1
   167    47    46    1
   168   100    99    1
   169    48    55   am
   170     8     9    1
   171     9    10    1
   172    34    33    1
   173    41    38    1
   174   106   105    1
   175    38    37    1
   176    38    39    1
   177    55    56    1
   178    19    16    1
   179   103   110   am
   180   103   102    1
   181    56    59    1
   182    56    57    1
   183    40    39    2
   184   105   102    1
   185    33    32    1
   186    98    97    1
   187    98    99    1
   188    97    94    1
   189    58    57    2
   190   102   101    1
   191    32    29    1
   192   101    95   am
   193    16    15    1
   194    16    17    1
   195    23    22    2
   196    91    90    1
   197    95    94    1
   198    95    96    2
   199    94    93    1
   200    17    18    2
   201    17    20   am
   202    29    28    1
   203    29    30    1
   204    20    21    1
   205    22    28   am
   206    22    21    1
   207    90    89    1
   208    90    92    1
   209    21    24    1
   210    30    31    2
   211    89    86    1
   212    88    87    2
   213    25    24    1
   214    25    27    1
   215    87    86    1
   216    24    26    1
   217    86    85    1
