@<TRIPOS>MOLECULE
tmp/4o94A00.pdb
 114 105 0 0 0
SMALL
GASTEIGER

@<TRIPOS>ATOM
      1  N         17.6900    2.6360   11.5920 N.3    10  VAL10      -0.1231
      2  CA        19.1170    2.4800   11.3460 C.3    10  VAL10       0.1692
      3  C         19.7360    3.5640   10.5050 C.2    10  VAL10       0.2591
      4  O         20.9620    3.5880   10.3460 O.2    10  VAL10      -0.2718
      5  CB        19.4200    1.0740   10.7110 C.3    10  VAL10       0.0266
      6  CG1       18.9670   -0.0120   11.7030 C.3    10  VAL10       0.0020
      7  CG2       18.7640    0.9020    9.3500 C.3    10  VAL10       0.0020
      8  N         18.9090    4.4830   10.0020 N.am   11  VAL11      -0.1980
      9  CA        19.4220    5.5820    9.1800 C.3    11  VAL11       0.1595
     10  C         19.6080    6.9130    9.9040 C.2    11  VAL11       0.2287
     11  O         19.2540    7.0850   11.0810 O.2    11  VAL11      -0.2864
     12  CB        18.5520    5.7780    7.9430 C.3    11  VAL11       0.0276
     13  CG1       18.3850    4.4500    7.2520 C.3    11  VAL11       0.0022
     14  CG2       17.1990    6.3670    8.3160 C.3    11  VAL11       0.0022
     15  N         13.5280    8.0680    5.3970 N.3    17  LYS17      -0.1245
     16  CA        12.9290    7.4390    6.5840 C.3    17  LYS17       0.1561
     17  C         13.0810    8.3120    7.8470 C.2    17  LYS17       0.2260
     18  O         12.1450    8.4420    8.6590 O.2    17  LYS17      -0.2867
     19  CB        13.5210    6.0550    6.8300 C.3    17  LYS17       0.0271
     20  CG        13.0810    5.4120    8.1230 C.3    17  LYS17       0.0035
     21  CD        13.2850    3.9040    8.1030 C.3    17  LYS17       0.0206
     22  CE        14.7650    3.4900    7.8060 C.3    17  LYS17       0.1093
     23  NZ        14.8550    1.9820    7.7460 N.3    17  LYS17      -0.1314
     24  N         13.9090   -2.2020    5.9050 N.3    66  SER66      -0.1217
     25  CA        13.9660   -2.5290    4.4880 C.3    66  SER66       0.1889
     26  C         13.1550   -3.7960    4.1810 C.2    66  SER66       0.2288
     27  O         13.1700   -4.7640    4.9430 O.2    66  SER66      -0.2866
     28  CB        15.4220   -2.7810    4.0730 C.3    66  SER66       0.2089
     29  OG        15.4760   -3.3580    2.7780 O.3    66  SER66      -0.2183
     30  N         14.5020   -7.5020    4.5010 N.3    69  LYS69      -0.1245
     31  CA        14.8860   -8.0550    5.7990 C.3    69  LYS69       0.1561
     32  C         13.8220   -8.9090    6.4550 C.2    69  LYS69       0.2260
     33  O         13.8750   -9.1140    7.6700 O.2    69  LYS69      -0.2867
     34  CB        15.3050   -6.9210    6.7540 C.3    69  LYS69       0.0271
     35  CG        16.5540   -6.2550    6.2530 C.3    69  LYS69       0.0035
     36  CD        16.8920   -4.9720    6.9190 C.3    69  LYS69       0.0206
     37  CE        18.1670   -4.4030    6.2740 C.3    69  LYS69       0.1093
     38  NZ        18.6320   -3.1300    6.8690 N.3    69  LYS69      -0.1314
     39  N         29.0760   -6.4760    0.6790 N.3   142  ARG142     -0.1245
     40  CA        28.1360   -6.4800    1.7940 C.3   142  ARG142      0.1563
     41  C         26.6940   -6.5060    1.2820 C.2   142  ARG142      0.2260
     42  O         26.3400   -5.7910    0.3420 O.2   142  ARG142     -0.2867
     43  CB        28.3150   -5.2530    2.6980 C.3   142  ARG142      0.0307
     44  CG        27.3120   -5.2620    3.8620 C.3   142  ARG142      0.0489
     45  CD        26.0210   -4.4790    3.5590 C.3   142  ARG142      0.2205
     46  NE        25.0220   -4.5630    4.6210 N.pl3 142  ARG142     -0.0865
     47  CZ        23.9230   -3.8140    4.6810 C.cat 142  ARG142      0.5346
     48  NH1       23.6780   -2.8920    3.7520 N.pl3 142  ARG142      0.1354
     49  NH2       23.0810   -3.9640    5.6900 N.pl3 142  ARG142      0.1354
     50  N         22.3540   -6.8420    2.7030 N.3   144  GLN144     -0.1245
     51  CA        21.3360   -6.9730    3.7380 C.3   144  GLN144      0.1566
     52  C         21.1120   -8.4690    3.9410 C.2   144  GLN144      0.2260
     53  O         21.4760   -9.2580    3.0790 O.2   144  GLN144     -0.2867
     54  CB        20.0680   -6.2930    3.2640 C.3   144  GLN144      0.0367
     55  CG        20.2260   -4.7810    3.2010 C.3   144  GLN144      0.0905
     56  CD        19.1010   -4.1270    2.4500 C.2   144  GLN144      0.2608
     57  OE1       18.0380   -3.8510    3.0180 O.2   144  GLN144     -0.2717
     58  NE2       19.3210   -3.8780    1.1550 N.am  144  GLN144     -0.0878
     59  N         23.6710   -2.9060    8.9940 N.3   165  PHE165     -0.1241
     60  CA        23.8810   -1.6400    8.3040 C.3   165  PHE165      0.1605
     61  C         24.9240   -0.8000    9.0290 C.2   165  PHE165      0.2264
     62  O         25.7330   -0.1550    8.4180 O.2   165  PHE165     -0.2867
     63  CB        22.5600   -0.9080    8.2690 C.3   165  PHE165      0.0534
     64  CG        22.5770    0.3210    7.4600 C.ar  165  PHE165     -0.0203
     65  CD1       22.7720    0.2510    6.0920 C.ar  165  PHE165     -0.0042
     66  CD2       22.3690    1.5570    8.0520 C.ar  165  PHE165     -0.0042
     67  CE1       22.7800    1.4100    5.3170 C.ar  165  PHE165     -0.0003
     68  CE2       22.3710    2.7130    7.2820 C.ar  165  PHE165     -0.0003
     69  CZ        22.5680    2.6260    5.9090 C.ar  165  PHE165     -0.0000
     70  N         25.7650   -2.2970   -2.1870 N.3   181  GLU181     -0.1231
     71  CA        24.6880   -1.6560   -2.9330 C.3   181  GLU181      0.1699
     72  C         23.8470   -0.8110   -1.9900 C.2   181  GLU181      0.2592
     73  O         23.4450   -1.2660   -0.9180 O.2   181  GLU181     -0.2718
     74  CB        23.7810   -2.6920   -3.5770 C.3   181  GLU181      0.0402
     75  CG        23.5530   -3.9200   -2.6880 C.3   181  GLU181      0.1161
     76  CD        22.4960   -4.9090   -3.2180 C.2   181  GLU181      0.3649
     77  OE1       22.2880   -5.0600   -4.4540 O.co2 181  GLU181     -0.2457
     78  OE2       21.8790   -5.5440   -2.3580 O.co2 181  GLU181     -0.2457
     79  N         23.5700    0.4280   -2.3750 N.am  182  ASN182     -0.1974
     80  CA        22.6080    1.2000   -1.6090 C.3   182  ASN182      0.1688
     81  C         22.1030    2.4010   -2.3710 C.2   182  ASN182      0.2292
     82  O         22.4280    2.5950   -3.5600 O.2   182  ASN182     -0.2864
     83  CB        23.2240    1.6100   -0.2790 C.3   182  ASN182      0.1181
     84  CG        22.3070    1.3590    0.8810 C.2   182  ASN182      0.2629
     85  OD1       21.1840    1.8220    0.8810 O.2   182  ASN182     -0.2716
     86  ND2       22.7890    0.6330    1.8820 N.am  182  ASN182     -0.0877
     87  N         21.6930    6.9390    1.4060 N.3   186  ASN186     -0.1240
     88  CA        22.4670    6.1740    2.4050 C.3   186  ASN186      0.1653
     89  C         23.9680    6.2770    2.1180 C.2   186  ASN186      0.2266
     90  O         24.7990    6.3480    3.0400 O.2   186  ASN186     -0.2867
     91  CB        22.0550    4.6940    2.4500 C.3   186  ASN186      0.1155
     92  CG        20.8390    4.4390    3.3670 C.2   186  ASN186      0.2627
     93  OD1       20.5720    5.1980    4.3090 O.2   186  ASN186     -0.2716
     94  ND2       20.1240    3.3580    3.1050 N.am  186  ASN186     -0.0877
     95  N         15.5030   -0.0050   -2.2500 N.3   207  ILE207     -0.1245
     96  CA        15.3550   -0.0500   -0.8050 C.3   207  ILE207      0.1561
     97  C         14.1000    0.7580   -0.5120 C.2   207  ILE207      0.2260
     98  O         14.0730    1.9770   -0.7170 O.2   207  ILE207     -0.2867
     99  CB        16.5580    0.5790   -0.1070 C.3   207  ILE207      0.0252
    100  CG1       17.7750   -0.3300   -0.2700 C.3   207  ILE207      0.0019
    101  CG2       16.2980    0.7400    1.3550 C.3   207  ILE207      0.0019
    102  CD1       19.0170    0.2740    0.2560 C.3   207  ILE207      0.0001
    103  N         10.5350    0.4420    2.4730 N.3   209  TYR209     -0.1241
    104  CA        10.3560    0.0170    3.8490 C.3   209  TYR209      0.1605
    105  C          8.9250   -0.3540    4.1260 C.2   209  TYR209      0.2264
    106  O          8.0140    0.1240    3.4630 O.2   209  TYR209     -0.2867
    107  CB        10.7480    1.1400    4.8120 C.3   209  TYR209      0.0534
    108  CG        12.0940    1.7830    4.5640 C.ar  209  TYR209     -0.0201
    109  CD1       13.2720    1.0820    4.7850 C.ar  209  TYR209     -0.0009
    110  CD2       12.1950    3.1170    4.1600 C.ar  209  TYR209     -0.0009
    111  CE1       14.4990    1.6720    4.5860 C.ar  209  TYR209      0.0417
    112  CE2       13.4400    3.7230    3.9800 C.ar  209  TYR209      0.0417
    113  CZ        14.5780    2.9910    4.1840 C.ar  209  TYR209      0.1957
    114  OH        15.8170    3.5500    4.0180 O.3   209  TYR209     -0.2866
@<TRIPOS>BOND
     1    77    76   ar
     2    74    71    1
     3    74    75    1
     4    82    81    2
     5    76    75    1
     6    76    78   ar
     7    71    70    1
     8    71    72    1
     9    79    72   am
    10    79    80    1
    11    81    80    1
    12    95    96    1
    13    72    73    2
    14    80    83    1
    15    96    97    1
    16    96    99    1
    17    98    97    2
    18    83    84    1
    19   100    99    1
    20   100   102    1
    21    99   101    1
    22    42    41    2
    23    39    40    1
    24    85    84    2
    25    84    86   am
    26    58    56   am
    27    41    40    1
    28    87    88    1
    29    40    43    1
    30    89    88    1
    31    89    90    2
    32    88    91    1
    33    91    92    1
    34    56    57    2
    35    56    55    1
    36   103   104    1
    37    43    44    1
    38    50    51    1
    39    29    28    1
    40    53    52    2
    41    94    92   am
    42    55    54    1
    43    54    51    1
    44    92    93    2
    45   106   105    2
    46    45    44    1
    47    45    46    1
    48    51    52    1
    49    48    47    1
    50   104   105    1
    51   104   107    1
    52   112   110   ar
    53   112   113   ar
    54   114   113    1
    55    28    25    1
    56   110   108   ar
    57    26    25    1
    58    26    27    2
    59   113   111   ar
    60    25    24    1
    61    30    31    1
    62   108   109   ar
    63   108   107    1
    64   111   109   ar
    65    46    47    2
    66    47    49    1
    67    67    69   ar
    68    67    65   ar
    69    15    16    1
    70    31    32    1
    71    31    34    1
    72    69    68   ar
    73    65    64   ar
    74    35    34    1
    75    35    36    1
    76    37    38    1
    77    37    36    1
    78    32    33    2
    79    16    19    1
    80    16    17    1
    81    19    20    1
    82    13    12    1
    83    68    66   ar
    84    64    66   ar
    85    64    63    1
    86    23    22    1
    87    22    21    1
    88    17    18    2
    89    12    14    1
    90    12     9    1
    91    21    20    1
    92    63    60    1
    93    60    59    1
    94    60    61    1
    95    62    61    2
    96     9    10    1
    97     9     8    1
    98     7     5    1
    99    10    11    2
   100     8     3   am
   101     4     3    2
   102     3     2    1
   103     5     2    1
   104     5     6    1
   105     2     1    1
