@<TRIPOS>MOLECULE
tmp/4o95A01.pdb
 183 175 0 0 0
SMALL
GASTEIGER

@<TRIPOS>ATOM
      1  N        -35.8170  -13.2360  -15.6340 N.3    20  PHE20      -0.1241
      2  CA       -34.6890  -13.3850  -14.7120 C.3    20  PHE20       0.1605
      3  C        -34.9340  -12.7810  -13.3190 C.2    20  PHE20       0.2264
      4  O        -34.4380  -13.3210  -12.3230 O.2    20  PHE20      -0.2867
      5  CB       -33.4470  -12.7780  -15.3500 C.3    20  PHE20       0.0534
      6  CG       -32.1710  -13.0310  -14.5990 C.ar   20  PHE20      -0.0203
      7  CD1      -31.5990  -14.2920  -14.5800 C.ar   20  PHE20      -0.0042
      8  CD2      -31.5410  -12.0060  -13.9070 C.ar   20  PHE20      -0.0042
      9  CE1      -30.3900  -14.5080  -13.9250 C.ar   20  PHE20      -0.0003
     10  CE2      -30.3240  -12.2230  -13.2660 C.ar   20  PHE20      -0.0003
     11  CZ       -29.7440  -13.4620  -13.3030 C.ar   20  PHE20      -0.0000
     12  N        -21.6520   -7.7010  -20.3930 N.3   133  ASP133     -0.1225
     13  CA       -20.8580   -8.6720  -19.6480 C.3   133  ASP133      0.1805
     14  C        -21.3630  -10.0800  -19.8780 C.2   133  ASP133      0.2597
     15  O        -20.6540  -11.0320  -19.5520 O.2   133  ASP133     -0.2718
     16  CB       -20.9370   -8.3990  -18.1160 C.3   133  ASP133      0.1424
     17  CG       -20.4500   -7.0430  -17.6710 C.2   133  ASP133      0.3668
     18  OD1      -19.5400   -6.4990  -18.3220 O.co2 133  ASP133     -0.2456
     19  OD2      -20.9090   -6.5700  -16.6070 O.co2 133  ASP133     -0.2456
     20  N        -22.6190  -10.2130  -20.3520 N.am  134  TYR134     -0.1976
     21  CA       -23.2690  -11.5150  -20.5300 C.3   134  TYR134      0.1639
     22  C        -23.7530  -11.6350  -21.9760 C.2   134  TYR134      0.2290
     23  O        -24.5460  -10.8150  -22.4500 O.2   134  TYR134     -0.2864
     24  CB       -24.3990  -11.6460  -19.5110 C.3   134  TYR134      0.0560
     25  CG       -25.1720  -12.9450  -19.5400 C.ar  134  TYR134     -0.0198
     26  CD1      -24.5560  -14.1540  -19.2100 C.ar  134  TYR134     -0.0009
     27  CD2      -26.5400  -12.9540  -19.7760 C.ar  134  TYR134     -0.0009
     28  CE1      -25.2810  -15.3450  -19.1590 C.ar  134  TYR134      0.0417
     29  CE2      -27.2690  -14.1430  -19.7590 C.ar  134  TYR134      0.0417
     30  CZ       -26.6390  -15.3330  -19.4290 C.ar  134  TYR134      0.1957
     31  OH       -27.3620  -16.4990  -19.3840 O.3   134  TYR134     -0.2866
     32  N        -24.1390   -2.2460  -22.3020 N.3   148  ILE148     -0.1245
     33  CA       -22.8840   -1.7260  -21.7790 C.3   148  ILE148      0.1561
     34  C        -21.9900   -2.7570  -21.1610 C.2   148  ILE148      0.2260
     35  O        -22.4730   -3.7050  -20.5150 O.2   148  ILE148     -0.2867
     36  CB       -23.0920   -0.5010  -20.8110 C.3   148  ILE148      0.0252
     37  CG1      -24.0140   -0.8520  -19.6230 C.3   148  ILE148      0.0019
     38  CG2      -23.6300    0.7230  -21.6130 C.3   148  ILE148      0.0019
     39  CD1      -24.0490    0.2550  -18.4870 C.3   148  ILE148      0.0001
     40  N        -13.5030   -1.9760  -16.0470 N.3   248  GLU248     -0.1245
     41  CA       -14.6170   -2.1370  -15.1210 C.3   248  GLU248      0.1567
     42  C        -14.0580   -2.0490  -13.6940 C.2   248  GLU248      0.2260
     43  O        -12.8850   -1.7250  -13.4800 O.2   248  GLU248     -0.2867
     44  CB       -15.4120   -3.4370  -15.3580 C.3   248  GLU248      0.0388
     45  CG       -16.2790   -3.3810  -16.6310 C.3   248  GLU248      0.1160
     46  CD       -17.4210   -4.3800  -16.6710 C.2   248  GLU248      0.3649
     47  OE1      -18.0050   -4.5620  -17.7640 O.co2 248  GLU248     -0.2457
     48  OE2      -17.7200   -4.9960  -15.6190 O.co2 248  GLU248     -0.2457
     49  N        -17.0840  -15.1930  -19.8230 N.3   305  ARG305     -0.1231
     50  CA       -16.7990  -15.4290  -18.4070 C.3   305  ARG305      0.1694
     51  C        -18.0500  -15.5200  -17.5040 C.2   305  ARG305      0.2591
     52  O        -18.0630  -16.3260  -16.5650 O.2   305  ARG305     -0.2718
     53  CB       -15.7730  -14.3930  -17.8680 C.3   305  ARG305      0.0321
     54  CG       -16.3440  -12.9680  -17.7780 C.3   305  ARG305      0.0489
     55  CD       -15.3270  -11.8400  -17.6900 C.3   305  ARG305      0.2205
     56  NE       -16.0320  -10.5570  -17.6020 N.pl3 305  ARG305     -0.0865
     57  CZ       -16.6390   -9.9400  -18.6150 C.cat 305  ARG305      0.5346
     58  NH1      -16.5810  -10.4470  -19.8490 N.pl3 305  ARG305      0.1354
     59  NH2      -17.2930   -8.8060  -18.4090 N.pl3 305  ARG305      0.1354
     60  N        -19.0910  -14.6910  -17.7720 N.am  306  VAL306     -0.1980
     61  CA       -20.3260  -14.6920  -16.9540 C.3   306  VAL306      0.1595
     62  C        -21.1470  -15.9590  -17.2230 C.2   306  VAL306      0.2287
     63  O        -21.7290  -16.4930  -16.2730 O.2   306  VAL306     -0.2864
     64  CB       -21.1470  -13.3880  -17.0820 C.3   306  VAL306      0.0276
     65  CG1      -22.4460  -13.4360  -16.2770 C.3   306  VAL306      0.0022
     66  CG2      -20.2990  -12.1800  -16.6970 C.3   306  VAL306      0.0022
     67  N        -19.7300  -18.6350  -15.0730 N.3   309  ALA309     -0.1245
     68  CA       -20.2240  -18.4530  -13.6970 C.3   309  ALA309      0.1562
     69  C        -21.6720  -18.9710  -13.5840 C.2   309  ALA309      0.2260
     70  O        -21.9970  -19.6640  -12.6110 O.2   309  ALA309     -0.2867
     71  CB       -20.1460  -16.9850  -13.2920 C.3   309  ALA309      0.0290
     72  N        -23.3680  -21.6870  -11.0250 N.3   313  LEU313     -0.1245
     73  CA       -24.5000  -21.2770  -10.1820 C.3   313  LEU313      0.1561
     74  C        -25.7270  -22.1840  -10.3910 C.2   313  LEU313      0.2260
     75  O        -26.3740  -22.5620   -9.4110 O.2   313  LEU313     -0.2867
     76  CB       -24.8540  -19.7910  -10.4050 C.3   313  LEU313      0.0270
     77  CG       -23.8420  -18.7580   -9.8760 C.3   313  LEU313      0.0019
     78  CD1      -24.1500  -17.3610  -10.3970 C.3   313  LEU313      0.0001
     79  CD2      -23.7950  -18.7510   -8.3330 C.3   313  LEU313      0.0001
     80  N        -28.9500  -19.9770   -9.6310 N.3   319  TRP319     -0.1241
     81  CA       -29.1860  -19.1000  -10.7800 C.3   319  TRP319      0.1605
     82  C        -30.6570  -18.7010  -10.8430 C.2   319  TRP319      0.2264
     83  O        -30.9510  -17.5160  -10.9390 O.2   319  TRP319     -0.2867
     84  CB       -28.7660  -19.7750  -12.0970 C.3   319  TRP319      0.0550
     85  CG       -28.8380  -18.8750  -13.3000 C.ar  319  TRP319      0.0003
     86  CD1      -29.7500  -18.9310  -14.3140 C.ar  319  TRP319      0.0946
     87  CD2      -27.9670  -17.7740  -13.6020 C.ar  319  TRP319      0.0152
     88  NE1      -29.4670  -17.9700  -15.2590 N.ar  319  TRP319     -0.2442
     89  CE2      -28.3800  -17.2420  -14.8460 C.ar  319  TRP319      0.0810
     90  CE3      -26.8460  -17.2130  -12.9650 C.ar  319  TRP319      0.0012
     91  CZ2      -27.7140  -16.1730  -15.4640 C.ar  319  TRP319      0.0191
     92  CZ3      -26.2020  -16.1420  -13.5670 C.ar  319  TRP319      0.0001
     93  CH2      -26.6170  -15.6550  -14.8190 C.ar  319  TRP319      0.0015
     94  N        -32.4170   -6.4960   -8.8820 N.3   325  TRP325     -0.1241
     95  CA       -31.3200   -5.6740   -9.3520 C.3   325  TRP325      0.1605
     96  C        -31.6680   -4.1990   -9.3720 C.2   325  TRP325      0.2264
     97  O        -32.8260   -3.8390   -9.5600 O.2   325  TRP325     -0.2867
     98  CB       -30.9560   -6.1390  -10.7780 C.3   325  TRP325      0.0550
     99  CG       -30.2010   -7.4430  -10.8330 C.ar  325  TRP325      0.0003
    100  CD1      -29.9510   -8.3040   -9.8000 C.ar  325  TRP325      0.0946
    101  CD2      -29.5220   -7.9790  -11.9720 C.ar  325  TRP325      0.0152
    102  NE1      -29.1480   -9.3360  -10.2250 N.ar  325  TRP325     -0.2442
    103  CE2      -28.8450   -9.1440  -11.5460 C.ar  325  TRP325      0.0810
    104  CE3      -29.3920   -7.5700  -13.3130 C.ar  325  TRP325      0.0012
    105  CZ2      -28.0660   -9.9140  -12.4210 C.ar  325  TRP325      0.0191
    106  CZ3      -28.6220   -8.3400  -14.1730 C.ar  325  TRP325      0.0001
    107  CH2      -27.9840   -9.5030  -13.7230 C.ar  325  TRP325      0.0015
    108  N        -29.7450   -0.7850  -11.1700 N.3   327  ASN327     -0.1240
    109  CA       -28.6490   -0.3120  -12.0190 C.3   327  ASN327      0.1653
    110  C        -28.7750    1.1830  -12.1610 C.2   327  ASN327      0.2266
    111  O        -29.8090    1.6800  -12.6180 O.2   327  ASN327     -0.2867
    112  CB       -28.6980   -1.0310  -13.3860 C.3   327  ASN327      0.1155
    113  CG       -28.4500   -2.4940  -13.2060 C.2   327  ASN327      0.2627
    114  OD1      -27.3230   -2.9140  -12.9970 O.2   327  ASN327     -0.2716
    115  ND2      -29.4940   -3.2990  -13.2080 N.am  327  ASN327     -0.0877
    116  N        -22.6940   -9.2680   -6.6010 N.3   357  PRO357     -0.2116
    117  CA       -21.7350   -8.2480   -7.1060 C.3   357  PRO357      0.1372
    118  C        -22.2790   -6.8180   -7.1470 C.2   357  PRO357      0.2244
    119  O        -23.4680   -6.5820   -7.4060 O.2   357  PRO357     -0.2868
    120  CB       -21.3990   -8.7140   -8.5280 C.3   357  PRO357      0.0268
    121  CG       -21.9330  -10.1060   -8.6460 C.3   357  PRO357      0.0207
    122  CD       -22.8920  -10.3740   -7.5620 C.3   357  PRO357      0.0892
    123  N        -21.0530   -3.6880   -9.3110 N.3   359  LEU359     -0.1245
    124  CA       -20.1060   -3.1780  -10.2950 C.3   359  LEU359      0.1561
    125  C        -20.0720   -1.6830  -10.1900 C.2   359  LEU359      0.2260
    126  O        -21.0840   -1.0360   -9.8830 O.2   359  LEU359     -0.2867
    127  CB       -20.5050   -3.5600  -11.7390 C.3   359  LEU359      0.0270
    128  CG       -20.8730   -5.0310  -12.0150 C.3   359  LEU359      0.0019
    129  CD1      -21.1560   -5.2230  -13.5270 C.3   359  LEU359      0.0001
    130  CD2      -19.7540   -5.9990  -11.5480 C.3   359  LEU359      0.0001
    131  N        -18.0610    1.4370  -12.5550 N.3   361  TYR361     -0.1241
    132  CA       -17.0870    1.8870  -13.5510 C.3   361  TYR361      0.1605
    133  C        -17.5910    3.0920  -14.3300 C.2   361  TYR361      0.2264
    134  O        -18.7790    3.1860  -14.5710 O.2   361  TYR361     -0.2867
    135  CB       -16.6460    0.7690  -14.5160 C.3   361  TYR361      0.0534
    136  CG       -17.7390    0.1760  -15.3740 C.ar  361  TYR361     -0.0201
    137  CD1      -18.0440    0.7180  -16.6190 C.ar  361  TYR361     -0.0009
    138  CD2      -18.4070   -0.9830  -14.9820 C.ar  361  TYR361     -0.0009
    139  CE1      -18.9990    0.1330  -17.4510 C.ar  361  TYR361      0.0417
    140  CE2      -19.3660   -1.5770  -15.8000 C.ar  361  TYR361      0.0417
    141  CZ       -19.6720   -1.0060  -17.0280 C.ar  361  TYR361      0.1957
    142  OH       -20.6040   -1.5950  -17.8600 O.3   361  TYR361     -0.2866
    143  N        -21.5540    3.5970  -14.1530 N.3   384  LEU384     -0.1245
    144  CA       -22.5710    2.5990  -13.8970 C.3   384  LEU384      0.1561
    145  C        -22.2770    2.1160  -12.4570 C.2   384  LEU384      0.2260
    146  O        -21.1220    1.8240  -12.1190 O.2   384  LEU384     -0.2867
    147  CB       -22.4760    1.3680  -14.8090 C.3   384  LEU384      0.0270
    148  CG       -23.3510    0.1530  -14.3640 C.3   384  LEU384      0.0019
    149  CD1      -24.8710    0.4120  -14.6020 C.3   384  LEU384      0.0001
    150  CD2      -22.9250   -1.1370  -15.0720 C.3   384  LEU384      0.0001
    151  N        -23.9100   -0.9570  -10.4640 N.3   386  ALA386     -0.1245
    152  CA       -24.8260   -2.0860  -10.6770 C.3   386  ALA386      0.1562
    153  C        -24.9130   -2.9800   -9.4650 C.2   386  ALA386      0.2260
    154  O        -23.9390   -3.6710   -9.1450 O.2   386  ALA386     -0.2867
    155  CB       -24.3790   -2.8930  -11.8820 C.3   386  ALA386      0.0290
    156  N        -26.1280   -6.1230   -8.3680 N.3   388  LEU388     -0.1245
    157  CA       -26.5630   -7.3560   -9.0170 C.3   388  LEU388      0.1561
    158  C        -26.9120   -8.3930   -7.9940 C.2   388  LEU388      0.2260
    159  O        -26.2950   -9.4470   -7.9080 O.2   388  LEU388     -0.2867
    160  CB       -25.5280   -7.8760  -10.0400 C.3   388  LEU388      0.0270
    161  CG       -25.0340   -6.8430  -11.0580 C.3   388  LEU388      0.0019
    162  CD1      -23.8950   -7.3880  -11.8460 C.3   388  LEU388      0.0001
    163  CD2      -26.1820   -6.2900  -11.9040 C.3   388  LEU388      0.0001
    164  N        -30.7690    2.8120  -15.1080 N.3   423  TYR423     -0.1227
    165  CA       -30.5410    2.1050  -16.3570 C.3   423  TYR423      0.1736
    166  C        -31.4980    0.9040  -16.2020 C.2   423  TYR423      0.2595
    167  O        -31.6250    0.3840  -15.0830 O.2   423  TYR423     -0.2718
    168  CB       -29.0830    1.6260  -16.4690 C.3   423  TYR423      0.0548
    169  CG       -28.8060    0.7650  -17.6920 C.ar  423  TYR423     -0.0200
    170  CD1      -29.1990    1.1720  -18.9670 C.ar  423  TYR423     -0.0009
    171  CD2      -28.0790   -0.4180  -17.5830 C.ar  423  TYR423     -0.0009
    172  CE1      -28.9310    0.3840  -20.0940 C.ar  423  TYR423      0.0417
    173  CE2      -27.8090   -1.2090  -18.6950 C.ar  423  TYR423      0.0417
    174  CZ       -28.2450   -0.8140  -19.9460 C.ar  423  TYR423      0.1957
    175  OH       -27.9180   -1.5840  -21.0390 O.3   423  TYR423     -0.2866
    176  N        -32.1640    0.4680  -17.3000 N.am  424  LEU424     -0.1980
    177  CA       -33.1990   -0.6100  -17.2740 C.3   424  LEU424      0.1596
    178  C        -34.3000   -0.1390  -16.2640 C.2   424  LEU424      0.2287
    179  O        -34.5810   -0.8340  -15.2790 O.2   424  LEU424     -0.2864
    180  CB       -32.5990   -1.9760  -16.8350 C.3   424  LEU424      0.0297
    181  CG       -31.2720   -2.4250  -17.4980 C.3   424  LEU424      0.0022
    182  CD1      -30.7950   -3.7360  -16.9040 C.3   424  LEU424      0.0001
    183  CD2      -31.4160   -2.5710  -19.0140 C.3   424  LEU424      0.0001
@<TRIPOS>BOND
     1    23    22    2
     2    32    33    1
     3    22    21    1
     4    33    34    1
     5    33    36    1
     6    38    36    1
     7    34    35    2
     8   175   174    1
     9    36    37    1
    10    21    20    1
    11    21    24    1
    12    12    13    1
    13    20    14   am
    14   172   174   ar
    15   172   170   ar
    16   174   173   ar
    17    14    13    1
    18    14    15    2
    19    58    57    1
    20    49    50    1
    21    27    29   ar
    22    27    25   ar
    23    29    30   ar
    24    13    16    1
    25    37    39    1
    26    25    24    1
    27    25    26   ar
    28    30    31    1
    29    30    28   ar
    30    26    28   ar
    31   183   181    1
    32   170   169   ar
    33   173   171   ar
    34    57    59    1
    35    57    56    2
    36    50    53    1
    37    50    51    1
    38    18    17   ar
    39    16    17    1
    40    53    54    1
    41   142   141    1
    42    54    55    1
    43    60    51   am
    44    60    61    1
    45    47    46   ar
    46   169   171   ar
    47   169   168    1
    48    55    56    1
    49    17    19   ar
    50    51    52    2
    51   181   182    1
    52   181   180    1
    53   139   141   ar
    54   139   137   ar
    55   176   177    1
    56   176   166   am
    57   177   180    1
    58   177   178    1
    59    62    61    1
    60    62    63    2
    61    64    61    1
    62    64    66    1
    63    64    65    1
    64   141   140   ar
    65    46    45    1
    66    46    48   ar
    67    45    44    1
    68   137   136   ar
    69   168   165    1
    70   165   166    1
    71   165   164    1
    72   178   179    2
    73   166   167    2
    74    40    41    1
    75   140   138   ar
    76     1     2    1
    77    91    89   ar
    78    91    93   ar
    79   136   138   ar
    80   136   135    1
    81    44    41    1
    82     5     2    1
    83     5     6    1
    84    88    89   ar
    85    88    86   ar
    86    41    42    1
    87    67    68    1
    88   150   148    1
    89    89    87   ar
    90    93    92   ar
    91   147   148    1
    92   147   144    1
    93     2     3    1
    94   149   148    1
    95     6     7   ar
    96     6     8   ar
    97     7     9   ar
    98   134   133    2
    99   135   132    1
   100   133   132    1
   101    86    85   ar
   102   106   107   ar
   103   106   104   ar
   104   143   144    1
   105     9    11   ar
   106     8    10   ar
   107   144   145    1
   108   107   105   ar
   109    68    69    1
   110    68    71    1
   111    42    43    2
   112    87    85   ar
   113    87    90   ar
   114    69    70    2
   115    92    90   ar
   116   132   131    1
   117   129   128    1
   118   112   113    1
   119   112   109    1
   120     3     4    2
   121   104   101   ar
   122    11    10   ar
   123    85    84    1
   124   115   113   am
   125   113   114    2
   126   111   110    2
   127   145   146    2
   128   105   103   ar
   129   110   109    1
   130    84    81    1
   131   109   108    1
   132   128   127    1
   133   128   130    1
   134   101   103   ar
   135   101    99   ar
   136   163   161    1
   137   155   152    1
   138   162   161    1
   139   127   124    1
   140   103   102   ar
   141   161   160    1
   142    72    73    1
   143    83    82    2
   144    82    81    1
   145    99    98    1
   146    99   100   ar
   147    81    80    1
   148    98    95    1
   149   152   151    1
   150   152   153    1
   151    76    73    1
   152    76    77    1
   153    78    77    1
   154    74    73    1
   155    74    75    2
   156   124   125    1
   157   124   123    1
   158   102   100   ar
   159   125   126    2
   160   160   157    1
   161    77    79    1
   162    97    96    2
   163   153   154    2
   164    96    95    1
   165    95    94    1
   166   157   156    1
   167   157   158    1
   168   121   120    1
   169   121   122    1
   170   120   117    1
   171   158   159    2
   172   122   116    1
   173   119   118    2
   174   118   117    1
   175   117   116    1
