@<TRIPOS>MOLECULE
tmp/4o95A03.pdb
 91 84 0 0 0
SMALL
GASTEIGER

@<TRIPOS>ATOM
      1  N        -27.7500    1.9140  -11.7190 N.3   328  LEU328     -0.1245
      2  CA       -27.8050    3.3700  -11.7710 C.3   328  LEU328      0.1561
      3  C        -26.6830    3.9560  -12.5880 C.2   328  LEU328      0.2260
      4  O        -25.5810    3.4320  -12.5770 O.2   328  LEU328     -0.2867
      5  CB       -27.7060    3.9290  -10.3160 C.3   328  LEU328      0.0270
      6  CG       -28.9110    3.6740   -9.4300 C.3   328  LEU328      0.0019
      7  CD1      -28.5890    4.0440   -7.9650 C.3   328  LEU328      0.0001
      8  CD2      -30.1230    4.4780   -9.8990 C.3   328  LEU328      0.0001
      9  N        -34.7570    0.8600   -2.4480 N.3   407  GLN407     -0.1245
     10  CA       -35.5210    2.0740   -2.1300 C.3   407  GLN407      0.1566
     11  C        -34.6920    3.0980   -1.3500 C.2   407  GLN407      0.2260
     12  O        -34.7440    4.2880   -1.6830 O.2   407  GLN407     -0.2867
     13  CB       -36.8340    1.7480   -1.3920 C.3   407  GLN407      0.0367
     14  CG       -37.8850    2.8800   -1.4530 C.3   407  GLN407      0.0905
     15  CD       -38.1930    3.3400   -2.8720 C.2   407  GLN407      0.2608
     16  OE1      -38.7170    2.5880   -3.7040 O.2   407  GLN407     -0.2717
     17  NE2      -37.8130    4.5680   -3.1960 N.am  407  GLN407     -0.0878
     18  N        -32.2770    4.8290   -3.6830 N.3   410  LEU410     -0.1245
     19  CA       -33.0160    5.7590   -4.5510 C.3   410  LEU410      0.1561
     20  C        -33.4100    6.9950   -3.7570 C.2   410  LEU410      0.2260
     21  O        -33.2080    8.1010   -4.2510 O.2   410  LEU410     -0.2867
     22  CB       -34.2470    5.0950   -5.1740 C.3   410  LEU410      0.0270
     23  CG       -33.9720    3.9380   -6.1430 C.3   410  LEU410      0.0019
     24  CD1      -35.2520    3.2360   -6.5020 C.3   410  LEU410      0.0001
     25  CD2      -33.2590    4.4240   -7.4290 C.3   410  LEU410      0.0001
     26  N        -30.2980    9.2170   -3.2120 N.3   413  CYS413     -0.1221
     27  CA       -29.9670    9.9880   -4.4070 C.3   413  CYS413      0.1808
     28  C        -30.8960   11.1730   -4.5620 C.2   413  CYS413      0.2601
     29  O        -30.4070   12.2900   -4.7480 O.2   413  CYS413     -0.2717
     30  CB       -29.9590    9.1070   -5.6480 C.3   413  CYS413      0.0970
     31  SG       -28.5970    7.9140   -5.6790 S.3   413  CYS413     -0.0800
     32  N        -32.2250   10.9480   -4.4230 N.am  414  ALA414     -0.1979
     33  CA       -33.2220   12.0220   -4.5470 C.3   414  ALA414      0.1597
     34  C        -33.0620   13.0830   -3.4600 C.2   414  ALA414      0.2287
     35  O        -33.0840   14.2750   -3.7640 O.2   414  ALA414     -0.2864
     36  CB       -34.6350   11.4500   -4.5360 C.3   414  ALA414      0.0319
     37  N        -28.7050   11.0460  -10.3740 N.3   420  ALA420     -0.1231
     38  CA       -28.5420    9.6950  -10.9190 C.3   420  ALA420      0.1694
     39  C        -29.7460    9.3250  -11.7980 C.2   420  ALA420      0.2592
     40  O        -30.8320    9.8960  -11.6490 O.2   420  ALA420     -0.2718
     41  CB       -28.3840    8.6780   -9.7850 C.3   420  ALA420      0.0304
     42  N        -29.5450    8.3980  -12.7360 N.am  421  LYS421     -0.1966
     43  CA       -30.6200    7.9270  -13.6120 C.3   421  LYS421      0.1728
     44  C        -30.6170    6.4270  -13.5670 C.2   421  LYS421      0.2616
     45  O        -29.5540    5.8330  -13.6430 O.2   421  LYS421     -0.2715
     46  CB       -30.4250    8.4140  -15.0760 C.3   421  LYS421      0.0311
     47  CG       -30.4780    9.9350  -15.2310 C.3   421  LYS421      0.0038
     48  CD       -31.8670   10.5320  -14.9060 C.3   421  LYS421      0.0206
     49  CE       -31.9400   11.9980  -15.2600 C.3   421  LYS421      0.1093
     50  NZ       -33.3270   12.5190  -15.1260 N.3   421  LYS421     -0.1314
     51  N        -31.7790    5.8000  -13.4640 N.am  422  GLN422     -0.1977
     52  CA       -31.8140    4.3350  -13.5450 C.3   422  GLN422      0.1601
     53  C        -31.5570    3.8860  -14.9710 C.2   422  GLN422      0.2287
     54  O        -32.0960    4.4700  -15.9190 O.2   422  GLN422     -0.2864
     55  CB       -33.2040    3.7980  -13.1780 C.3   422  GLN422      0.0394
     56  CG       -33.4960    3.7730  -11.6600 C.3   422  GLN422      0.0908
     57  CD       -34.8360    3.1440  -11.3430 C.2   422  GLN422      0.2608
     58  OE1      -35.6120    3.6590  -10.5360 O.2   422  GLN422     -0.2717
     59  NE2      -35.1110    1.9860  -11.8920 N.am  422  GLN422     -0.0878
     60  N        -37.4350    0.7820  -13.9380 N.3   426  GLY426     -0.1210
     61  CA       -38.6360    0.0860  -13.5040 C.3   426  GLY426      0.1956
     62  C        -39.5470    1.0190  -12.7260 C.2   426  GLY426      0.2611
     63  O        -40.1870    0.5970  -11.7670 O.2   426  GLY426     -0.2717
     64  N        -39.6590    2.2870  -13.1930 N.am  427  HIS427     -0.1975
     65  CA       -40.4740    3.3600  -12.6000 C.3   427  HIS427      0.1656
     66  C        -41.9740    3.0600  -12.4880 C.2   427  HIS427      0.2291
     67  O        -42.5260    3.1910  -11.4030 O.2   427  HIS427     -0.2864
     68  CB       -40.2430    4.6940  -13.3360 C.3   427  HIS427      0.0771
     69  CG       -38.8550    5.2290  -13.1820 C.ar  427  HIS427      0.0820
     70  ND1      -38.3350    5.5440  -11.9390 N.ar  427  HIS427     -0.2267
     71  CD2      -37.9300    5.5060  -14.1220 C.ar  427  HIS427      0.1154
     72  CE1      -37.1100    5.9870  -12.1630 C.ar  427  HIS427      0.1986
     73  NE2      -36.8210    5.9790  -13.4620 N.ar  427  HIS427     -0.2212
     74  N        -42.9380    9.9350  -12.2030 N.3   432  GLU432     -0.1245
     75  CA       -41.5770    9.4050  -12.0890 C.3   432  GLU432      0.1567
     76  C        -40.9430    9.2240  -13.4740 C.2   432  GLU432      0.2260
     77  O        -39.7580    9.5240  -13.6310 O.2   432  GLU432     -0.2867
     78  CB       -41.5490    8.1050  -11.2820 C.3   432  GLU432      0.0388
     79  CG       -41.7510    8.3530   -9.7940 C.3   432  GLU432      0.1160
     80  CD       -42.1310    7.1560   -8.9460 C.2   432  GLU432      0.3649
     81  OE1      -42.4380    6.0830   -9.5150 O.co2 432  GLU432     -0.2457
     82  OE2      -42.1470    7.3040   -7.7020 O.co2 432  GLU432     -0.2457
     83  N        -39.9080   12.7630  -14.6660 N.3   435  GLU435     -0.1245
     84  CA       -38.6970   13.1430  -13.9390 C.3   435  GLU435      0.1567
     85  C        -37.4850   12.3520  -14.4590 C.2   435  GLU435      0.2260
     86  O        -36.3980   12.9200  -14.5570 O.2   435  GLU435     -0.2867
     87  CB       -38.9150   12.9520  -12.4150 C.3   435  GLU435      0.0388
     88  CG       -37.6810   13.0820  -11.5240 C.3   435  GLU435      0.1160
     89  CD       -37.0240   14.4490  -11.4270 C.2   435  GLU435      0.3649
     90  OE1      -37.7530   15.4670  -11.3770 O.co2 435  GLU435     -0.2457
     91  OE2      -35.7740   14.4950  -11.3470 O.co2 435  GLU435     -0.2457
@<TRIPOS>BOND
     1    54    53    2
     2    49    50    1
     3    49    48    1
     4    47    46    1
     5    47    48    1
     6    46    43    1
     7    53    52    1
     8    83    84    1
     9    86    85    2
    10    85    84    1
    11    71    73   ar
    12    71    69   ar
    13    84    87    1
    14    60    61    1
    15    45    44    2
    16    77    76    2
    17    43    44    1
    18    43    42    1
    19    44    51   am
    20    52    51    1
    21    52    55    1
    22    61    62    1
    23    76    75    1
    24    73    72   ar
    25    68    69    1
    26    68    65    1
    27    64    62   am
    28    64    65    1
    29    69    70   ar
    30    55    56    1
    31    42    39   am
    32    62    63    2
    33    65    66    1
    34     3     4    2
    35     3     2    1
    36    66    67    2
    37    87    88    1
    38    74    75    1
    39    72    70   ar
    40    75    78    1
    41    59    57   am
    42    39    40    2
    43    39    38    1
    44     2     1    1
    45     2     5    1
    46    56    57    1
    47    88    89    1
    48    89    90   ar
    49    89    91   ar
    50    57    58    2
    51    78    79    1
    52    38    37    1
    53    38    41    1
    54     5     6    1
    55     8     6    1
    56    79    80    1
    57    81    80   ar
    58     6     7    1
    59    80    82   ar
    60    25    23    1
    61    24    23    1
    62    23    22    1
    63    31    30    1
    64    30    27    1
    65    22    19    1
    66    29    28    2
    67    28    32   am
    68    28    27    1
    69    19    20    1
    70    19    18    1
    71    33    36    1
    72    33    32    1
    73    33    34    1
    74    27    26    1
    75    21    20    2
    76    35    34    2
    77    16    15    2
    78    17    15   am
    79    15    14    1
    80     9    10    1
    81    10    13    1
    82    10    11    1
    83    12    11    2
    84    14    13    1
