@<TRIPOS>MOLECULE
tmp/4o97A01.pdb
 219 220 0 0 0
SMALL
GASTEIGER

@<TRIPOS>ATOM
      1  N         24.2110    8.5200   18.2730 N.3    42  HIS42      -0.1241
      2  CA        23.8390    7.2700   18.9370 C.3    42  HIS42       0.1621
      3  C         22.9820    6.3020   18.1300 C.2    42  HIS42       0.2264
      4  O         23.0420    5.0980   18.3660 O.2    42  HIS42      -0.2867
      5  CB        23.2410    7.5320   20.3160 C.3    42  HIS42       0.0745
      6  CG        21.8020    7.8930   20.2950 C.ar   42  HIS42       0.0817
      7  ND1       21.3760    9.1440   20.4830 N.ar   42  HIS42      -0.2268
      8  CD2       20.6670    7.1140   20.1410 C.ar   42  HIS42       0.1154
      9  CE1       20.0250    9.1600   20.4520 C.ar   42  HIS42       0.1986
     10  NE2       19.6050    7.9300   20.2260 N.ar   42  HIS42      -0.2212
     11  N         25.2490    3.4040   16.0750 N.3    45  ILE45      -0.1231
     12  CA        26.0860    2.3640   16.7680 C.3    45  ILE45       0.1692
     13  C         25.7750    0.8840   16.5480 C.2    45  ILE45       0.2592
     14  O         24.7160    0.4650   16.7130 O.2    45  ILE45      -0.2718
     15  CB        26.2320    2.7710   18.2900 C.3    45  ILE45       0.0266
     16  CG1       26.5140    4.2370   18.5570 C.3    45  ILE45       0.0019
     17  CG2       27.2020    1.9380   18.9420 C.3    45  ILE45       0.0020
     18  CD1       27.8310    4.7710   17.9320 C.3    45  ILE45       0.0001
     19  N         26.7230   -0.0420   16.1490 N.am   46  ASP46      -0.1960
     20  CA        26.4180   -1.4710   15.9900 C.3    46  ASP46       0.1840
     21  C         25.9480   -2.0760   17.3010 C.2    46  ASP46       0.2622
     22  O         26.5640   -1.8580   18.3490 O.2    46  ASP46      -0.2715
     23  CB        27.6260   -2.2010   15.4360 C.3    46  ASP46       0.1450
     24  CG        28.0700   -1.6490   14.0930 C.2    46  ASP46       0.3671
     25  OD1       27.3350   -0.8560   13.4690 O.co2  46  ASP46      -0.2456
     26  OD2       29.1700   -2.0060   13.6680 O.co2  46  ASP46      -0.2456
     27  N         24.9240   -3.0470   17.0270 N.am   47  ASP47      -0.1971
     28  CA        24.9430   -3.9050   18.2100 C.3    47  ASP47       0.1707
     29  C         25.1980   -5.3130   17.7620 C.2    47  ASP47       0.2293
     30  O         25.5090   -5.5450   16.6150 O.2    47  ASP47      -0.2864
     31  CB        23.6500   -3.8440   18.9820 C.3    47  ASP47       0.1391
     32  CG        22.4540   -4.4180   18.2050 C.2    47  ASP47       0.3195
     33  OD1       22.6450   -5.2600   17.3020 O.3    47  ASP47      -0.4460
     34  OD2       21.2940   -3.9880   18.5030 O.2    47  ASP47      -0.2500
     35  N         23.5490   -6.6250   14.5060 N.3    50  PHE50      -0.1202
     36  CA        23.1890   -5.2100   14.2930 C.3    50  PHE50       0.1998
     37  C         24.3890   -4.4040   13.7740 C.2    50  PHE50       0.2302
     38  O         25.4760   -4.4770   14.3710 O.2    50  PHE50      -0.2866
     39  CB        22.6410   -4.5640   15.5960 C.3    50  PHE50       0.2118
     40  CG        22.2680   -3.1180   15.3340 C.2    50  PHE50      -0.0074
     41  CD1       21.0600   -2.8070   14.7690 C.3    50  PHE50       0.0268
     42  CD2       23.1650   -2.0850   15.5950 C.2    50  PHE50      -0.0315
     43  CE1       20.7390   -1.4860   14.4770 C.3    50  PHE50       0.0362
     44  CE2       22.8690   -0.7610   15.2980 C.3    50  PHE50       0.0217
     45  CZ        21.6330   -0.4390   14.7360 C.3    50  PHE50       0.0074
     46  N         23.9090   -1.0540   12.7060 N.3    52  TYR52      -0.1245
     47  CA        23.3520    0.3270   12.7370 C.3    52  TYR52       0.1565
     48  C         24.3800    1.3260   12.2620 C.2    52  TYR52       0.2260
     49  O         24.0580    2.4100   11.7570 O.2    52  TYR52      -0.2867
     50  CB        22.9530    0.6900   14.1340 C.3    52  TYR52       0.0317
     51  CG        21.8030   -0.1640   14.5680 C.3    52  TYR52       0.0277
     52  CD1       20.5280    0.1470   14.1300 C.2    52  TYR52      -0.0282
     53  CD2       22.0010   -1.3240   15.3360 C.3    52  TYR52       0.0074
     54  CE1       19.4420   -0.6230   14.5190 C.2    52  TYR52      -0.0012
     55  CE2       20.9310   -2.1340   15.7260 C.3    52  TYR52       0.0362
     56  CZ        19.6440   -1.7570   15.2810 C.3    52  TYR52       0.1452
     57  OH        18.5160   -2.4260   15.6000 O.3    52  TYR52      -0.2212
     58  N         28.7040    6.7740   26.6070 N.3    92  PHE92      -0.1227
     59  CA        28.2310    6.4930   27.9080 C.3    92  PHE92       0.1736
     60  C         27.4730    7.7290   28.2960 C.2    92  PHE92       0.2596
     61  O         26.4130    7.6200   28.8220 O.2    92  PHE92      -0.2718
     62  CB        29.4420    6.2740   28.7960 C.3    92  PHE92       0.0547
     63  CG        29.1230    5.8490   30.1860 C.ar   92  PHE92      -0.0202
     64  CD1       29.3540    6.7260   31.2530 C.ar   92  PHE92      -0.0042
     65  CD2       28.6200    4.5550   30.4380 C.ar   92  PHE92      -0.0042
     66  CE1       29.0640    6.3320   32.5420 C.ar   92  PHE92      -0.0003
     67  CE2       28.3590    4.1530   31.7360 C.ar   92  PHE92      -0.0003
     68  CZ        28.5660    5.0480   32.7840 C.ar   92  PHE92      -0.0000
     69  N         27.9740    8.9120   27.9340 N.am   93  THR93      -0.1939
     70  CA        27.3060   10.1700   28.3450 C.3    93  THR93       0.2028
     71  C         26.3200   10.7790   27.2940 C.2    93  THR93       0.2642
     72  O         25.4030   11.5820   27.6210 O.2    93  THR93      -0.2714
     73  CB        28.3650   11.2150   28.7490 C.3    93  THR93       0.1808
     74  OG1       29.2950   11.4400   27.6640 O.3    93  THR93      -0.2208
     75  CG2       29.1240   10.6960   29.9660 C.3    93  THR93       0.0379
     76  N         26.5010   10.3420   26.0630 N.am   94  PHE94      -0.1973
     77  CA        25.9020   10.9470   24.8610 C.3    94  PHE94       0.1639
     78  C         26.4660   12.3510   24.6040 C.2    94  PHE94       0.2290
     79  O         25.8710   13.1180   23.9000 O.2    94  PHE94      -0.2864
     80  CB        24.3860   10.8450   24.8420 C.3    94  PHE94       0.0560
     81  CG        23.8760    9.4750   24.4410 C.ar   94  PHE94      -0.0200
     82  CD1       24.7300    8.3630   24.4090 C.ar   94  PHE94      -0.0042
     83  CD2       22.5100    9.2900   24.1320 C.ar   94  PHE94      -0.0042
     84  CE1       24.2350    7.1260   24.0670 C.ar   94  PHE94      -0.0003
     85  CE2       22.0200    8.0420   23.7840 C.ar   94  PHE94      -0.0003
     86  CZ        22.8930    6.9660   23.7470 C.ar   94  PHE94      -0.0000
     87  N          5.8540    7.4720   27.6350 N.3   141  TYR141     -0.1241
     88  CA         6.9200    6.6110   28.1620 C.3   141  TYR141      0.1605
     89  C          6.4340    5.1580   28.2440 C.2   141  TYR141      0.2264
     90  O          5.3180    4.8860   28.6990 O.2   141  TYR141     -0.2867
     91  CB         7.4610    7.0780   29.5210 C.3   141  TYR141      0.0534
     92  CG         8.5970    6.1820   29.9600 C.ar  141  TYR141     -0.0201
     93  CD1        9.7870    6.1630   29.2440 C.ar  141  TYR141     -0.0009
     94  CD2        8.4510    5.2890   31.0310 C.ar  141  TYR141     -0.0009
     95  CE1       10.8180    5.3140   29.5930 C.ar  141  TYR141      0.0417
     96  CE2        9.4930    4.4320   31.3990 C.ar  141  TYR141      0.0417
     97  CZ        10.6810    4.4590   30.6750 C.ar  141  TYR141      0.1957
     98  OH        11.7400    3.6380   30.9900 O.3   141  TYR141     -0.2866
     99  N         19.7940   17.1020   36.4580 N.3   166  LEU166     -0.1245
    100  CA        20.3280   15.8080   35.9470 C.3   166  LEU166      0.1561
    101  C         21.8320   15.7430   36.2590 C.2   166  LEU166      0.2260
    102  O         22.6400   15.9080   35.3660 O.2   166  LEU166     -0.2867
    103  CB        20.0590   15.6900   34.4320 C.3   166  LEU166      0.0270
    104  CG        18.6080   15.5200   33.9490 C.3   166  LEU166      0.0019
    105  CD1       18.4150   15.9520   32.5010 C.3   166  LEU166      0.0001
    106  CD2       18.1450   14.0760   34.1600 C.3   166  LEU166      0.0001
    107  N         25.5830   14.7470   34.4250 N.3   169  GLN169     -0.1245
    108  CA        25.1990   14.2550   33.1420 C.3   169  GLN169      0.1566
    109  C         25.1060   15.2700   32.0230 C.2   169  GLN169      0.2260
    110  O         25.0340   14.9140   30.9340 O.2   169  GLN169     -0.2867
    111  CB        23.9380   13.4400   33.2210 C.3   169  GLN169      0.0367
    112  CG        23.9490   12.3530   34.1610 C.3   169  GLN169      0.0905
    113  CD        22.6140   12.1830   34.8170 C.2   169  GLN169      0.2608
    114  OE1       21.9010   11.2420   34.5450 O.2   169  GLN169     -0.2717
    115  NE2       22.2880   13.0850   35.6890 N.am  169  GLN169     -0.0878
    116  N          7.2160   16.4440   25.7720 N.3   185  ASP185     -0.1225
    117  CA         8.5870   15.9340   25.7070 C.3   185  ASP185      0.1805
    118  C          8.7310   15.1390   24.4410 C.2   185  ASP185      0.2598
    119  O          7.7300   14.6910   23.8530 O.2   185  ASP185     -0.2718
    120  CB         8.8740   15.0620   26.9460 C.3   185  ASP185      0.1424
    121  CG        10.3710   14.9670   27.3310 C.2   185  ASP185      0.3668
    122  OD1       11.2810   15.4450   26.6090 O.co2 185  ASP185     -0.2456
    123  OD2       10.6450   14.3400   28.3970 O.co2 185  ASP185     -0.2456
    124  N          9.9720   15.0310   23.9740 N.am  186  SER186     -0.1938
    125  CA        10.3560   13.9820   23.0230 C.3   186  SER186      0.2055
    126  C         10.4520   12.6060   23.7270 C.2   186  SER186      0.2643
    127  O         10.4360   12.5230   24.9650 O.2   186  SER186     -0.2714
    128  CB        11.7180   14.3370   22.3780 C.3   186  SER186      0.2130
    129  OG        12.7790   14.3640   23.3290 O.3   186  SER186     -0.2179
    130  N         10.5900   11.5290   22.9660 N.am  187  CYS187     -0.1953
    131  CA        10.6630   10.2190   23.5980 C.3   187  CYS187      0.1843
    132  C         11.3570    9.2460   22.6180 C.2   187  CYS187      0.2625
    133  O         11.7170    9.6550   21.4970 O.2   187  CYS187     -0.2714
    134  CB         9.2260    9.7670   24.0120 C.3   187  CYS187      0.0997
    135  SG         9.1230    8.4960   25.2840 S.3   187  CYS187     -0.0797
    136  N         11.5810    7.9980   23.0480 N.am  188  GLN188     -0.1977
    137  CA        12.1470    6.9670   22.1780 C.3   188  GLN188      0.1601
    138  C         11.5910    6.9970   20.7420 C.2   188  GLN188      0.2287
    139  O         10.3640    7.0440   20.5310 O.2   188  GLN188     -0.2864
    140  CB        11.8950    5.5990   22.7910 C.3   188  GLN188      0.0394
    141  CG        12.5140    4.4860   21.9750 C.3   188  GLN188      0.0908
    142  CD        12.4790    3.1350   22.6770 C.2   188  GLN188      0.2608
    143  OE1       12.2410    2.1130   22.0480 O.2   188  GLN188     -0.2717
    144  NE2       12.6810    3.1350   23.9800 N.am  188  GLN188     -0.0878
    145  N         14.6810   10.4600   18.6520 N.3   191  SER191     -0.1217
    146  CA        16.1190   10.5540   18.5460 C.3   191  SER191      0.1889
    147  C         16.5600   10.8930   17.1690 C.2   191  SER191      0.2288
    148  O         16.1780   10.2120   16.2100 O.2   191  SER191     -0.2866
    149  CB        16.7550    9.1960   18.9110 C.3   191  SER191      0.2089
    150  OG        16.2370    8.8810   20.1900 O.3   191  SER191     -0.2183
    151  N         17.4130   15.8350   19.0120 N.3   210  VAL210     -0.1231
    152  CA        16.8820   14.9340   20.0320 C.3   210  VAL210      0.1692
    153  C         17.9250   13.8670   20.4630 C.2   210  VAL210      0.2593
    154  O         18.4200   13.0710   19.6360 O.2   210  VAL210     -0.2718
    155  CB        15.6260   14.1750   19.5470 C.3   210  VAL210      0.0266
    156  CG1       15.0760   13.3140   20.6950 C.3   210  VAL210      0.0020
    157  CG2       14.5420   15.1090   18.9780 C.3   210  VAL210      0.0020
    158  N         18.2580   13.8330   21.7480 N.am  211  SER211     -0.1938
    159  CA        19.3900   12.9890   22.1930 C.3   211  SER211      0.2055
    160  C         19.0120   11.9130   23.2170 C.2   211  SER211      0.2643
    161  O         19.0200   10.7570   22.8940 O.2   211  SER211     -0.2714
    162  CB        20.6120   13.8470   22.6260 C.3   211  SER211      0.2130
    163  OG        21.6960   13.0130   22.9760 O.3   211  SER211     -0.2179
    164  N         18.6190   12.3230   24.4230 N.am  212  TRP212     -0.1959
    165  CA        18.1960   11.3950   25.4640 C.3   212  TRP212      0.1771
    166  C         17.3250   12.1140   26.4740 C.2   212  TRP212      0.2620
    167  O         17.0570   13.3400   26.3570 O.2   212  TRP212     -0.2715
    168  CB        19.4160   10.7440   26.1490 C.3   212  TRP212      0.0590
    169  CG        20.3060   11.7510   26.8570 C.ar  212  TRP212      0.0006
    170  CD1       21.3260   12.5290   26.3160 C.ar  212  TRP212      0.0946
    171  CD2       20.2830   12.1090   28.2830 C.ar  212  TRP212      0.0152
    172  NE1       21.9140   13.3140   27.2830 N.ar  212  TRP212     -0.2442
    173  CE2       21.3280   13.1190   28.4730 C.ar  212  TRP212      0.0810
    174  CE3       19.5310   11.7070   29.3820 C.ar  212  TRP212      0.0012
    175  CZ2       21.5660   13.7000   29.7050 C.ar  212  TRP212      0.0191
    176  CZ3       19.8070   12.2900   30.6290 C.ar  212  TRP212      0.0001
    177  CH2       20.8020   13.2530   30.7900 C.ar  212  TRP212      0.0015
    178  N         16.8510   11.3510   27.4600 N.am  213  GLY213     -0.1940
    179  CA        16.0510   11.8920   28.5680 C.3   213  GLY213      0.2014
    180  C         15.8680   10.8200   29.6200 C.2   213  GLY213      0.2639
    181  O         16.0070    9.6220   29.3240 O.2   213  GLY213     -0.2714
    182  N         15.3950   11.1390   30.8640 N.am  214  ASP214     -0.1957
    183  CA        15.1160   10.0790   31.8330 C.3   214  ASP214      0.1840
    184  C         13.6140    9.7880   31.7170 C.2   214  ASP214      0.2623
    185  O         12.7530   10.5800   32.1580 O.2   214  ASP214     -0.2715
    186  CB        15.4750   10.4950   33.2550 C.3   214  ASP214      0.1450
    187  CG        15.0720    9.4310   34.3020 C.2   214  ASP214      0.3671
    188  OD1       14.5270    8.3580   33.9370 O.co2 214  ASP214     -0.2456
    189  OD2       15.3260    9.6520   35.5060 O.co2 214  ASP214     -0.2456
    190  N         12.9690    8.5730   31.0990 N.am  215  GLY215     -0.1940
    191  CA        11.5370    8.4590   30.7620 C.3   215  GLY215      0.2014
    192  C         11.1720    9.5830   29.7970 C.2   215  GLY215      0.2639
    193  O         12.0550   10.1210   29.0670 O.2   215  GLY215     -0.2714
    194  N          9.9890    9.9500   29.8100 N.am  216  CYS216     -0.1967
    195  CA         9.5280   11.0140   28.9400 C.3   216  CYS216      0.1712
    196  C          8.3720   11.7760   29.5640 C.2   216  CYS216      0.2296
    197  O          7.4820   11.1810   30.1500 O.2   216  CYS216     -0.2864
    198  CB         9.0810   10.4040   27.6120 C.3   216  CYS216      0.0983
    199  SG        10.2340    9.2060   26.8350 S.3   216  CYS216     -0.0798
    200  N         12.2840   16.1620   34.6580 N.3   221  LYS221     -0.1245
    201  CA        13.1190   15.4400   33.7040 C.3   221  LYS221      0.1561
    202  C         12.9430   15.9120   32.2460 C.2   221  LYS221      0.2260
    203  O         12.5070   15.1520   31.3950 O.2   221  LYS221     -0.2867
    204  CB        12.8680   13.9420   33.8520 C.3   221  LYS221      0.0271
    205  CG        13.4130   13.4200   35.1830 C.3   221  LYS221      0.0035
    206  CD        12.8360   12.0390   35.4670 C.3   221  LYS221      0.0206
    207  CE        13.0530   11.6450   36.9230 C.3   221  LYS221      0.1093
    208  NZ        14.3940   12.1450   37.3870 N.3   221  LYS221     -0.1314
    209  N         13.6990   16.8050   28.3160 N.3   223  GLY223     -0.1210
    210  CA        14.4420   16.0440   27.3410 C.3   223  GLY223      0.1956
    211  C         15.7310   16.7900   27.0500 C.2   223  GLY223      0.2611
    212  O         15.8010   18.0390   27.1840 O.2   223  GLY223     -0.2717
    213  N         16.7680   16.0270   26.6910 N.am  224  VAL224     -0.1979
    214  CA        18.1270   16.6110   26.4980 C.3   224  VAL224      0.1595
    215  C         18.4970   16.5230   25.0290 C.2   224  VAL224      0.2287
    216  O         18.2540   15.4960   24.3750 O.2   224  VAL224     -0.2864
    217  CB        19.1680   15.9150   27.3680 C.3   224  VAL224      0.0276
    218  CG1       20.5570   16.5020   27.0790 C.3   224  VAL224      0.0022
    219  CG2       18.7940   16.0390   28.8390 C.3   224  VAL224      0.0022
@<TRIPOS>BOND
     1    49    48    2
     2    48    47    1
     3    46    47    1
     4    47    50    1
     5    25    24   ar
     6    26    24   ar
     7    37    36    1
     8    37    38    2
     9    24    23    1
    10    52    54    2
    11    52    51    1
    12    50    51    1
    13    36    35    1
    14    36    39    1
    15    43    45    1
    16    43    41    1
    17    43    56    1
    18    43    55    1
    19    54    56    1
    20    45    44    1
    21    45    53    1
    22    41    40    1
    23    41    55    1
    24    56    57    1
    25    56    55    1
    26    44    53    1
    27    44    42    1
    28    40    42    2
    29    40    39    1
    30    53    55    1
    31    23    20    1
    32    39    33    1
    33    20    19    1
    34    20    21    1
    35    11    12    1
    36    19    13   am
    37   148   147    2
    38    13    14    2
    39    13    12    1
    40    30    29    2
    41    12    15    1
    42    27    21   am
    43    27    28    1
    44   147   146    1
    45    21    22    2
    46    33    32    1
    47    29    28    1
    48    18    16    1
    49     3     4    2
    50     3     2    1
    51    32    34    2
    52    32    31    1
    53    28    31    1
    54     1     2    1
    55    15    16    1
    56    15    17    1
    57   146   145    1
    58   146   149    1
    59   149   150    1
    60     2     5    1
    61   157   155    1
    62   151   152    1
    63   155   152    1
    64   155   156    1
    65   154   153    2
    66   152   153    1
    67     8    10   ar
    68     8     6   ar
    69    10     9   ar
    70     6     5    1
    71     6     7   ar
    72     9     7   ar
    73   153   158   am
    74   139   138    2
    75   138   137    1
    76   133   132    2
    77   158   159    1
    78   141   142    1
    79   141   140    1
    80   143   142    2
    81   137   140    1
    82   137   136    1
    83   159   162    1
    84   159   160    1
    85   128   125    1
    86   128   129    1
    87   132   136   am
    88   132   131    1
    89   162   163    1
    90   142   144   am
    91   161   160    2
    92   130   131    1
    93   130   126   am
    94   125   126    1
    95   125   124    1
    96   160   164   am
    97   131   134    1
    98   126   127    2
    99    86    85   ar
   100    86    84   ar
   101    85    83   ar
   102   119   118    2
   103    79    78    2
   104   124   118   am
   105   134   135    1
   106    84    82   ar
   107    83    81   ar
   108   216   215    2
   109    82    81   ar
   110   164   165    1
   111   118   117    1
   112    81    80    1
   113    78    77    1
   114    80    77    1
   115    77    76    1
   116   215   214    1
   117   135   199    1
   118   165   168    1
   119   165   166    1
   120   117   116    1
   121   117   120    1
   122    76    71   am
   123   168   169    1
   124   170   169   ar
   125   170   172   ar
   126   167   166    2
   127   166   178   am
   128   214   213    1
   129   214   217    1
   130    58    59    1
   131   122   121   ar
   132   213   211   am
   133   199   198    1
   134   169   171   ar
   135   120   121    1
   136   211   212    2
   137   211   210    1
   138   218   217    1
   139   172   173   ar
   140    71    72    2
   141    71    70    1
   142   121   123   ar
   143   210   209    1
   144   217   219    1
   145   178   179    1
   146   198   195    1
   147    87    88    1
   148    74    73    1
   149    59    60    1
   150    59    62    1
   151    69    60   am
   152    69    70    1
   153    88    89    1
   154    88    91    1
   155    89    90    2
   156   171   173   ar
   157   171   174   ar
   158    60    61    2
   159    70    73    1
   160   173   175   ar
   161   179   180    1
   162    73    75    1
   163    62    63    1
   164   195   196    1
   165   195   194    1
   166   193   192    2
   167    93    95   ar
   168    93    92   ar
   169   181   180    2
   170   174   176   ar
   171    91    92    1
   172   196   197    2
   173    95    97   ar
   174   180   182   am
   175   175   177   ar
   176   192   194   am
   177   192   191    1
   178    92    94   ar
   179    63    65   ar
   180    63    64   ar
   181    65    67   ar
   182   176   177   ar
   183    97    98    1
   184    97    96   ar
   185   191   190    1
   186   182   183    1
   187   110   109    2
   188    94    96   ar
   189   190   184   am
   190    64    66   ar
   191   203   202    2
   192   184   183    1
   193   184   185    2
   194    67    68   ar
   195   183   186    1
   196   109   108    1
   197   202   201    1
   198   105   104    1
   199    66    68   ar
   200   108   111    1
   201   108   107    1
   202   111   112    1
   203   186   187    1
   204   201   204    1
   205   201   200    1
   206   204   205    1
   207   188   187   ar
   208   104   106    1
   209   104   103    1
   210   112   113    1
   211   187   189   ar
   212   103   100    1
   213   114   113    2
   214   113   115   am
   215   205   206    1
   216   102   101    2
   217   206   207    1
   218   100   101    1
   219   100    99    1
   220   207   208    1
