@<TRIPOS>MOLECULE
tmp/4o9cC00.pdb
 196 183 0 0 0
SMALL
GASTEIGER

@<TRIPOS>ATOM
      1  N        -37.6660   35.7100   25.0910 N.3    17  PHE17      -0.1241
      2  CA       -37.9660   34.9080   23.9100 C.3    17  PHE17       0.1605
      3  C        -37.0720   35.3780   22.7760 C.2    17  PHE17       0.2264
      4  O        -36.9700   36.5710   22.5210 O.2    17  PHE17      -0.2867
      5  CB       -39.4740   35.0470   23.5960 C.3    17  PHE17       0.0534
      6  CG       -39.9970   34.0940   22.5570 C.ar   17  PHE17      -0.0203
      7  CD1      -40.0720   32.7480   22.8060 C.ar   17  PHE17      -0.0042
      8  CD2      -40.5000   34.5780   21.3470 C.ar   17  PHE17      -0.0042
      9  CE1      -40.5860   31.8520   21.8820 C.ar   17  PHE17      -0.0003
     10  CE2      -41.0130   33.7100   20.4150 C.ar   17  PHE17      -0.0003
     11  CZ       -41.0710   32.3370   20.6900 C.ar   17  PHE17      -0.0000
     12  N        -47.0110   20.4090   33.2790 N.3    87  VAL87      -0.1231
     13  CA       -46.9700   21.7910   32.6640 C.3    87  VAL87       0.1692
     14  C        -46.2000   22.8090   33.5360 C.2    87  VAL87       0.2592
     15  O        -45.0170   22.4740   33.9450 O.2    87  VAL87      -0.2718
     16  CB       -48.3610   22.2710   32.1770 C.3    87  VAL87       0.0266
     17  CG1      -48.1490   23.2180   30.9800 C.3    87  VAL87       0.0020
     18  CG2      -49.2450   21.0790   31.7960 C.3    87  VAL87       0.0020
     19  N        -46.8090   23.9360   33.9520 N.am   88  SER88      -0.1952
     20  CA       -46.0200   24.9000   34.7990 C.3    88  SER88       0.1924
     21  C        -45.7140   24.4010   36.2120 C.2    88  SER88       0.2314
     22  O        -44.9060   24.9890   36.9400 O.2    88  SER88      -0.2863
     23  CB       -46.6570   26.2470   34.8770 C.3    88  SER88       0.2116
     24  OG       -46.5940   26.8710   33.6190 O.3    88  SER88      -0.2180
     25  N        -38.2030   27.7390   25.6130 N.3   118  MET118     -0.1245
     26  CA       -39.3560   27.9750   24.7930 C.3   118  MET118      0.1570
     27  C        -38.9650   28.5170   23.3930 C.2   118  MET118      0.2261
     28  O        -39.5940   28.1540   22.3520 O.2   118  MET118     -0.2867
     29  CB       -40.3340   28.8340   25.5540 C.3   118  MET118      0.0387
     30  CG       -40.8210   28.2350   26.8460 C.3   118  MET118      0.0595
     31  SD       -42.0120   29.2320   27.7730 S.3   118  MET118     -0.1393
     32  CE       -43.5850   28.9500   26.9090 C.3   118  MET118      0.0692
     33  N        -47.5610   23.4830   25.2510 N.3   147  GLY147     -0.1210
     34  CA       -47.2470   24.3110   26.3990 C.3   147  GLY147      0.1956
     35  C        -48.3800   25.2310   26.8660 C.2   147  GLY147      0.2611
     36  O        -48.5150   25.5170   28.0660 O.2   147  GLY147     -0.2717
     37  N        -49.1900   25.7240   25.9290 N.am  148  LEU148     -0.1979
     38  CA       -50.0000   26.9030   26.1950 C.3   148  LEU148      0.1596
     39  C        -51.4800   26.7880   25.8190 C.2   148  LEU148      0.2287
     40  O        -52.1860   27.8060   25.8460 O.2   148  LEU148     -0.2864
     41  CB       -49.3800   28.1220   25.4650 C.3   148  LEU148      0.0297
     42  CG       -47.9150   28.4540   25.7780 C.3   148  LEU148      0.0022
     43  CD1      -47.3590   29.5440   24.8410 C.3   148  LEU148      0.0001
     44  CD2      -47.8030   28.8450   27.2460 C.3   148  LEU148      0.0001
     45  N        -56.3850   29.2320   24.1750 N.3   156  HIS156     -0.1226
     46  CA       -55.1480   29.5710   24.8680 C.3   156  HIS156      0.1752
     47  C        -55.2700   29.6950   26.3920 C.2   156  HIS156      0.2595
     48  O        -56.3320   30.0720   26.9180 O.2   156  HIS156     -0.2718
     49  CB       -54.6590   30.8760   24.2880 C.3   156  HIS156      0.0759
     50  CG       -53.2080   31.1400   24.4540 C.ar  156  HIS156      0.0818
     51  ND1      -52.6660   31.6090   25.6290 N.ar  156  HIS156     -0.2268
     52  CD2      -52.1940   31.1110   23.5600 C.ar  156  HIS156      0.1154
     53  CE1      -51.3760   31.8130   25.4710 C.ar  156  HIS156      0.1986
     54  NE2      -51.0570   31.4960   24.2250 N.ar  156  HIS156     -0.2212
     55  N        -54.1580   29.4860   27.1020 N.am  157  MET157     -0.1979
     56  CA       -54.1040   29.8330   28.5420 C.3   157  MET157      0.1605
     57  C        -54.6630   31.2560   28.8890 C.2   157  MET157      0.2287
     58  O        -55.3340   31.4300   29.9400 O.2   157  MET157     -0.2864
     59  CB       -52.6710   29.6770   29.1080 C.3   157  MET157      0.0413
     60  CG       -52.1390   28.2410   29.2750 C.3   157  MET157      0.0598
     61  SD       -53.1780   27.0750   30.1640 S.3   157  MET157     -0.1393
     62  CE       -54.2690   26.3310   28.9420 C.3   157  MET157      0.0692
     63  N        -38.4950   44.7240   32.7660 N.3   221  ARG221     -0.1245
     64  CA       -38.5450   46.0750   32.1650 C.3   221  ARG221      0.1563
     65  C        -38.3310   47.1590   33.2370 C.2   221  ARG221      0.2260
     66  O        -39.1470   47.3770   34.1360 O.2   221  ARG221     -0.2867
     67  CB       -39.8010   46.2950   31.3280 C.3   221  ARG221      0.0307
     68  CG       -39.6950   47.5570   30.4450 C.3   221  ARG221      0.0489
     69  CD       -40.7490   47.6270   29.3500 C.3   221  ARG221      0.2205
     70  NE       -42.1610   47.5820   29.8240 N.pl3 221  ARG221     -0.0865
     71  CZ       -42.8600   48.6400   30.2370 C.cat 221  ARG221      0.5346
     72  NH1      -44.1160   48.5160   30.6060 N.pl3 221  ARG221      0.1354
     73  NH2      -42.2890   49.8410   30.3090 N.pl3 221  ARG221      0.1354
     74  N        -47.4290   53.1160   30.2610 N.3   228  SER228     -0.1217
     75  CA       -46.9000   52.2210   29.2460 C.3   228  SER228      0.1889
     76  C        -47.7640   50.9520   29.0520 C.2   228  SER228      0.2288
     77  O        -47.5480   50.2060   28.1290 O.2   228  SER228     -0.2866
     78  CB       -45.4450   51.8360   29.5980 C.3   228  SER228      0.2089
     79  OG       -45.4040   50.9520   30.7230 O.3   228  SER228     -0.2183
     80  N        -52.5520   49.5030   26.0230 N.3   232  LEU232     -0.1245
     81  CA       -52.3750   48.3650   25.1340 C.3   232  LEU232      0.1561
     82  C        -53.7080   47.6720   24.8290 C.2   232  LEU232      0.2260
     83  O        -54.6550   47.7420   25.6100 O.2   232  LEU232     -0.2867
     84  CB       -51.4410   47.3350   25.8320 C.3   232  LEU232      0.0270
     85  CG       -49.9260   47.3400   25.6400 C.3   232  LEU232      0.0019
     86  CD1      -49.3840   48.6740   25.2020 C.3   232  LEU232      0.0001
     87  CD2      -49.1980   46.7440   26.8580 C.3   232  LEU232      0.0001
     88  N        -54.7400   40.8340   24.4020 N.3   235  ALA235     -0.1231
     89  CA       -53.9250   39.9460   23.5490 C.3   235  ALA235      0.1694
     90  C        -54.6830   38.7560   23.0270 C.2   235  ALA235      0.2592
     91  O        -54.2580   38.1550   22.0690 O.2   235  ALA235     -0.2718
     92  CB       -52.7000   39.4520   24.2960 C.3   235  ALA235      0.0304
     93  N        -55.7360   38.3530   23.7220 N.am  236  PHE236     -0.1976
     94  CA       -56.4010   37.1100   23.4790 C.3   236  PHE236      0.1639
     95  C        -57.8360   37.2420   23.1410 C.2   236  PHE236      0.2290
     96  O        -58.3460   36.3490   22.5000 O.2   236  PHE236     -0.2864
     97  CB       -56.3350   36.2110   24.7260 C.3   236  PHE236      0.0560
     98  CG       -54.9490   35.9150   25.1170 C.ar  236  PHE236     -0.0200
     99  CD1      -54.2240   35.0220   24.3600 C.ar  236  PHE236     -0.0042
    100  CD2      -54.3150   36.6410   26.1380 C.ar  236  PHE236     -0.0042
    101  CE1      -52.9060   34.7950   24.6510 C.ar  236  PHE236     -0.0003
    102  CE2      -53.0070   36.3810   26.4600 C.ar  236  PHE236     -0.0003
    103  CZ       -52.3050   35.4610   25.7060 C.ar  236  PHE236     -0.0000
    104  N        -50.2730   41.7700   26.6490 N.3   244  ALA244     -0.1231
    105  CA       -48.8660   41.3310   26.7120 C.3   244  ALA244      0.1694
    106  C        -48.1490   41.8690   27.9410 C.2   244  ALA244      0.2591
    107  O        -47.1930   41.2560   28.4390 O.2   244  ALA244     -0.2718
    108  CB       -48.0990   41.7840   25.4660 C.3   244  ALA244      0.0304
    109  N        -48.6190   42.9990   28.4590 N.am  245  ALA245     -0.1980
    110  CA       -47.9720   43.6290   29.5980 C.3   245  ALA245      0.1597
    111  C        -48.4510   43.1260   30.9430 C.2   245  ALA245      0.2287
    112  O        -47.7110   43.1820   31.9130 O.2   245  ALA245     -0.2864
    113  CB       -48.1410   45.1540   29.5200 C.3   245  ALA245      0.0319
    114  N        -49.5690   39.8340   31.4060 N.3   247  ALA247     -0.1231
    115  CA       -49.2760   38.4070   31.3750 C.3   247  ALA247      0.1694
    116  C        -47.7680   38.2540   31.4050 C.2   247  ALA247      0.2593
    117  O        -47.0440   39.1360   30.9720 O.2   247  ALA247     -0.2718
    118  CB       -49.7740   37.7920   30.0700 C.3   247  ALA247      0.0304
    119  N        -47.2980   37.0830   31.8030 N.am  248  SER248     -0.1938
    120  CA       -45.8920   36.8050   31.7190 C.3   248  SER248      0.2055
    121  C        -45.4560   36.5880   30.2810 C.2   248  SER248      0.2644
    122  O        -46.2780   36.5960   29.3820 O.2   248  SER248     -0.2714
    123  CB       -45.5210   35.5910   32.5720 C.3   248  SER248      0.2130
    124  OG       -46.4190   34.4770   32.3270 O.3   248  SER248     -0.2179
    125  N        -44.1730   36.3470   30.0670 N.am  249  GLY249     -0.1939
    126  CA       -43.6650   36.0880   28.7410 C.3   249  GLY249      0.2014
    127  C        -43.4910   34.6380   28.3470 C.2   249  GLY249      0.2638
    128  O        -43.9490   33.7440   29.0310 O.2   249  GLY249     -0.2714
    129  N        -42.8470   34.4480   27.2110 N.am  250  LEU250     -0.1977
    130  CA       -42.3430   33.1660   26.7680 C.3   250  LEU250      0.1596
    131  C        -40.8560   33.2570   27.0000 C.2   250  LEU250      0.2287
    132  O        -40.2210   34.2070   26.5350 O.2   250  LEU250     -0.2864
    133  CB       -42.6260   32.9940   25.2680 C.3   250  LEU250      0.0297
    134  CG       -44.0530   33.4080   24.9040 C.3   250  LEU250      0.0022
    135  CD1      -44.1450   33.5240   23.3880 C.3   250  LEU250      0.0001
    136  CD2      -45.0500   32.3880   25.4720 C.3   250  LEU250      0.0001
    137  N        -58.0220   27.3750   35.3030 N.3   289  MET289     -0.1245
    138  CA       -56.7630   26.7870   35.7550 C.3   289  MET289      0.1570
    139  C        -55.8970   27.6950   36.6150 C.2   289  MET289      0.2261
    140  O        -55.1720   27.1990   37.4750 O.2   289  MET289     -0.2867
    141  CB       -55.9490   26.2480   34.5630 C.3   289  MET289      0.0387
    142  CG       -55.2360   27.3150   33.6950 C.3   289  MET289      0.0595
    143  SD       -53.5730   27.7520   34.2920 S.3   289  MET289     -0.1393
    144  CE       -53.2490   29.3410   33.4960 C.3   289  MET289      0.0692
    145  N        -46.7110   32.2170   41.4580 N.3   317  ASN317     -0.1240
    146  CA       -46.2640   32.4750   40.0960 C.3   317  ASN317      0.1653
    147  C        -47.3220   33.3210   39.4200 C.2   317  ASN317      0.2266
    148  O        -48.5140   33.2130   39.7110 O.2   317  ASN317     -0.2867
    149  CB       -45.9780   31.1800   39.3390 C.3   317  ASN317      0.1155
    150  CG       -45.2500   31.3980   38.0570 C.2   317  ASN317      0.2627
    151  OD1      -44.2390   32.1180   37.9960 O.2   317  ASN317     -0.2716
    152  ND2      -45.7760   30.7750   36.9780 N.am  317  ASN317     -0.0877
    153  N        -48.4540   33.8630   36.1450 N.3   319  ALA319     -0.1231
    154  CA       -48.5640   33.5600   34.7160 C.3   319  ALA319      0.1694
    155  C        -49.4300   34.6550   34.0700 C.2   319  ALA319      0.2592
    156  O        -49.0870   35.1710   33.0070 O.2   319  ALA319     -0.2718
    157  CB       -49.2010   32.2260   34.5580 C.3   319  ALA319      0.0304
    158  N        -50.4700   35.0610   34.7950 N.am  320  PHE320     -0.1976
    159  CA       -51.3020   36.1920   34.4170 C.3   320  PHE320      0.1639
    160  C        -51.7070   37.0140   35.6300 C.2   320  PHE320      0.2290
    161  O        -52.1520   36.4820   36.6100 O.2   320  PHE320     -0.2864
    162  CB       -52.5670   35.7520   33.6910 C.3   320  PHE320      0.0560
    163  CG       -52.2940   34.8670   32.4980 C.ar  320  PHE320     -0.0200
    164  CD1      -52.1560   33.5160   32.6620 C.ar  320  PHE320     -0.0042
    165  CD2      -52.2160   35.4210   31.2340 C.ar  320  PHE320     -0.0042
    166  CE1      -51.9090   32.6980   31.5770 C.ar  320  PHE320     -0.0003
    167  CE2      -51.9680   34.6240   30.1360 C.ar  320  PHE320     -0.0003
    168  CZ       -51.7870   33.2670   30.3140 C.ar  320  PHE320     -0.0000
    169  N        -41.4160   33.4360   32.3990 N.3   349  HIS349     -0.1241
    170  CA       -42.0680   32.2080   32.7390 C.3   349  HIS349      0.1621
    171  C        -41.6160   31.0280   31.8290 C.2   349  HIS349      0.2264
    172  O        -42.3900   30.5420   30.9530 O.2   349  HIS349     -0.2867
    173  CB       -43.5680   32.4540   32.6050 C.3   349  HIS349      0.0745
    174  CG       -44.3860   31.3270   33.1010 C.ar  349  HIS349      0.0817
    175  ND1      -43.8770   30.3630   33.9250 N.ar  349  HIS349     -0.2268
    176  CD2      -45.6750   30.9880   32.8830 C.ar  349  HIS349      0.1154
    177  CE1      -44.8020   29.4590   34.1800 C.ar  349  HIS349      0.1986
    178  NE2      -45.9040   29.8200   33.5730 N.ar  349  HIS349     -0.2212
    179  N        -41.8180   27.6710   31.2100 N.3   351  ILE351     -0.1245
    180  CA       -42.8780   26.9410   31.9030 C.3   351  ILE351      0.1561
    181  C        -42.3930   25.7650   32.7800 C.2   351  ILE351      0.2260
    182  O        -42.7760   25.6870   33.9220 O.2   351  ILE351     -0.2867
    183  CB       -44.0240   26.5060   30.9630 C.3   351  ILE351      0.0252
    184  CG1      -43.5290   25.7510   29.7640 C.3   351  ILE351      0.0019
    185  CG2      -44.7840   27.7660   30.5100 C.3   351  ILE351      0.0019
    186  CD1      -44.6060   25.4600   28.7060 C.3   351  ILE351      0.0001
    187  N        -50.0730   27.8540   39.2790 N.3   379  CYS379     -0.1235
    188  CA       -51.1630   27.2800   38.5150 C.3   379  CYS379      0.1677
    189  C        -50.6320   26.4350   37.3860 C.2   379  CYS379      0.2270
    190  O        -49.4910   26.5910   36.9980 O.2   379  CYS379     -0.2867
    191  CB       -52.0780   28.3670   37.9700 C.3   379  CYS379      0.0956
    192  SG       -51.3100   29.5150   36.8480 S.3   379  CYS379     -0.0801
    193  N        -51.7080   24.5050   33.5930 N.3   381  GLY381     -0.1225
    194  CA       -52.6220   24.3360   32.4450 C.3   381  GLY381      0.1811
    195  C        -53.3260   23.0030   32.4970 C.2   381  GLY381      0.2280
    196  O        -52.7220   22.0100   32.8210 O.2   381  GLY381     -0.2866
@<TRIPOS>BOND
     1    10    11   ar
     2    10     8   ar
     3    11     9   ar
     4     8     6   ar
     5     9     7   ar
     6    91    90    2
     7    28    27    2
     8    96    95    2
     9     4     3    2
    10     6     7   ar
    11     6     5    1
    12     3     2    1
    13    90    89    1
    14    90    93   am
    15    95    94    1
    16   135   134    1
    17    27    26    1
    18    94    93    1
    19    94    97    1
    20    89    92    1
    21    89    88    1
    22    52    54   ar
    23    52    50   ar
    24     5     2    1
    25     2     1    1
    26    45    46    1
    27    54    53   ar
    28    49    50    1
    29    49    46    1
    30    99   101   ar
    31    99    98   ar
    32    50    51   ar
    33   101   103   ar
    34    97    98    1
    35    26    29    1
    36    26    25    1
    37    82    81    1
    38    82    83    2
    39    43    42    1
    40    46    47    1
    41   134   133    1
    42   134   136    1
    43    98   100   ar
    44    81    84    1
    45    81    80    1
    46    86    85    1
    47    33    34    1
    48   133   130    1
    49    41    42    1
    50    41    38    1
    51   108   105    1
    52    53    51   ar
    53    29    30    1
    54    85    84    1
    55    85    87    1
    56   103   102   ar
    57    42    44    1
    58    39    40    2
    59    39    38    1
    60    37    38    1
    61    37    35   am
    62   100   102   ar
    63    47    48    2
    64    47    55   am
    65    34    35    1
    66   132   131    2
    67   104   105    1
    68   105   106    1
    69   130   131    1
    70   130   129    1
    71    30    31    1
    72    35    36    2
    73    32    31    1
    74    55    56    1
    75   129   127   am
    76   106   107    2
    77   106   109   am
    78    77    76    2
    79   127   126    1
    80   127   128    2
    81   109   110    1
    82    56    57    1
    83    56    59    1
    84   186   184    1
    85   126   125    1
    86    57    58    2
    87    62    61    1
    88    76    75    1
    89    59    60    1
    90    75    78    1
    91    75    74    1
    92    60    61    1
    93    69    70    1
    94    69    68    1
    95   122   121    2
    96   113   110    1
    97   110   111    1
    98    78    79    1
    99   184   183    1
   100    70    71    2
   101   125   121   am
   102   118   115    1
   103   167   168   ar
   104   167   165   ar
   105    71    73    1
   106    71    72    1
   107   121   120    1
   108   168   166   ar
   109    68    67    1
   110   185   183    1
   111   111   112    2
   112   172   171    2
   113   183   180    1
   114   117   116    2
   115    17    16    1
   116   179   180    1
   117   165   163   ar
   118    67    64    1
   119   115   116    1
   120   115   114    1
   121   116   119   am
   122   166   164   ar
   123   120   119    1
   124   120   123    1
   125    18    16    1
   126   171   170    1
   127   180   181    1
   128    64    63    1
   129    64    65    1
   130    16    13    1
   131   124   123    1
   132   169   170    1
   133   194   195    1
   134   194   193    1
   135   195   196    2
   136   163   164   ar
   137   163   162    1
   138   173   170    1
   139   173   174    1
   140    13    12    1
   141    13    14    1
   142   181   182    2
   143   176   174   ar
   144   176   178   ar
   145   156   155    2
   146   174   175   ar
   147    65    66    2
   148   144   143    1
   149    14    15    2
   150    14    19   am
   151   178   177   ar
   152    24    23    1
   153   162   159    1
   154   142   143    1
   155   142   141    1
   156   175   177   ar
   157    19    20    1
   158   155   154    1
   159   155   158   am
   160   159   158    1
   161   159   160    1
   162   157   154    1
   163   141   138    1
   164   154   153    1
   165    20    23    1
   166    20    21    1
   167   137   138    1
   168   160   161    2
   169   138   139    1
   170    21    22    2
   171   139   140    2
   172   192   191    1
   173   152   150   am
   174   190   189    2
   175   189   188    1
   176   191   188    1
   177   151   150    2
   178   150   149    1
   179   188   187    1
   180   149   146    1
   181   147   148    2
   182   147   146    1
   183   146   145    1
