@<TRIPOS>MOLECULE
tmp/4o9gA00.pdb
 167 154 0 0 0
SMALL
GASTEIGER

@<TRIPOS>ATOM
      1  N          0.7780  -31.8090   18.9120 N.3    35  ARG35      -0.1245
      2  CA         1.3810  -30.7110   18.1920 C.3    35  ARG35       0.1563
      3  C          0.9080  -29.3690   18.7490 C.2    35  ARG35       0.2260
      4  O         -0.2540  -29.2220   19.0950 O.2    35  ARG35      -0.2867
      5  CB         1.0430  -30.8110   16.7130 C.3    35  ARG35       0.0307
      6  CG         1.2110  -29.4950   15.9680 C.3    35  ARG35       0.0489
      7  CD         0.9680  -29.6550   14.4740 C.3    35  ARG35       0.2205
      8  NE        -0.3860  -30.1400   14.2190 N.pl3  35  ARG35      -0.0865
      9  CZ        -1.3180  -29.4610   13.5580 C.cat  35  ARG35       0.5346
     10  NH1       -2.5080  -29.9980   13.3880 N.pl3  35  ARG35       0.1354
     11  NH2       -1.0750  -28.2420   13.0780 N.pl3  35  ARG35       0.1354
     12  N          1.3440  -25.0190   17.8320 N.3    37  TYR37      -0.1241
     13  CA         1.9420  -23.9870   17.0230 C.3    37  TYR37       0.1605
     14  C          1.5520  -22.6430   17.5830 C.2    37  TYR37       0.2264
     15  O          0.6460  -22.5350   18.4270 O.2    37  TYR37      -0.2867
     16  CB         1.5890  -24.1730   15.5130 C.3    37  TYR37       0.0534
     17  CG         0.1190  -24.1560   15.1740 C.ar   37  TYR37      -0.0201
     18  CD1       -0.5260  -22.9800   14.8000 C.ar   37  TYR37      -0.0009
     19  CD2       -0.6200  -25.3120   15.2060 C.ar   37  TYR37      -0.0009
     20  CE1       -1.8930  -22.9640   14.5110 C.ar   37  TYR37       0.0417
     21  CE2       -1.9680  -25.3110   14.9130 C.ar   37  TYR37       0.0417
     22  CZ        -2.6060  -24.1440   14.5690 C.ar   37  TYR37       0.1957
     23  OH        -3.9550  -24.1890   14.2820 O.3    37  TYR37      -0.2866
     24  N          1.4800  -18.1840   16.5840 N.3    39  ILE39      -0.1245
     25  CA         1.4550  -17.2060   15.5210 C.3    39  ILE39       0.1561
     26  C          1.8060  -15.8910   16.1920 C.2    39  ILE39       0.2260
     27  O          1.2950  -15.6040   17.2730 O.2    39  ILE39      -0.2867
     28  CB         0.0560  -17.1470   14.9030 C.3    39  ILE39       0.0252
     29  CG1       -0.1520  -18.3540   13.9970 C.3    39  ILE39       0.0019
     30  CG2       -0.1570  -15.8700   14.0800 C.3    39  ILE39       0.0019
     31  CD1       -1.6120  -18.6970   13.7990 C.3    39  ILE39       0.0001
     32  N         -5.8840  -14.1300    9.0300 N.3    48  ARG48      -0.1231
     33  CA        -5.3980  -15.4930    8.8100 C.3    48  ARG48       0.1694
     34  C         -6.5410  -16.4910    8.9310 C.2    48  ARG48       0.2592
     35  O         -7.6730  -16.0990    9.1640 O.2    48  ARG48      -0.2718
     36  CB        -4.2920  -15.8410    9.8180 C.3    48  ARG48       0.0321
     37  CG        -3.1020  -14.9070    9.7080 C.3    48  ARG48       0.0489
     38  CD        -1.9750  -15.2900   10.6450 C.3    48  ARG48       0.2205
     39  NE        -1.4810  -16.6480   10.3690 N.pl3  48  ARG48      -0.0865
     40  CZ        -0.2550  -16.9330    9.9460 C.cat  48  ARG48       0.5346
     41  NH1        0.0970  -18.2000    9.7280 N.pl3  48  ARG48       0.1354
     42  NH2        0.6320  -15.9640    9.7690 N.pl3  48  ARG48       0.1354
     43  N         -6.2190  -17.7760    8.7940 N.am   49  GLY49      -0.1957
     44  CA        -7.2050  -18.8450    8.6660 C.3    49  GLY49       0.1869
     45  C         -7.7770  -19.0550    7.2720 C.2    49  GLY49       0.2309
     46  O         -7.0550  -19.3670    6.3180 O.2    49  GLY49      -0.2863
     47  N        -10.2600  -21.5060    6.7700 N.3    51  ASN51      -0.1240
     48  CA       -10.2040  -22.9420    6.6920 C.3    51  ASN51       0.1653
     49  C        -11.0300  -23.6030    7.7430 C.2    51  ASN51       0.2266
     50  O        -11.4480  -22.9780    8.7260 O.2    51  ASN51      -0.2867
     51  CB        -8.7520  -23.4270    6.8150 C.3    51  ASN51       0.1155
     52  CG        -8.3100  -23.5840    8.2490 C.2    51  ASN51       0.2627
     53  OD1       -8.4290  -24.6720    8.8410 O.2    51  ASN51      -0.2716
     54  ND2       -7.7980  -22.5180    8.8200 N.am   51  ASN51      -0.0877
     55  N        -11.5240  -28.0560    9.1520 N.3    53  HIS53      -0.1241
     56  CA       -10.8240  -29.3190    9.2400 C.3    53  HIS53       0.1621
     57  C        -11.8500  -30.4180    9.2430 C.2    53  HIS53       0.2264
     58  O        -12.9730  -30.2220    9.7050 O.2    53  HIS53      -0.2867
     59  CB       -10.0220  -29.3700   10.5370 C.3    53  HIS53       0.0745
     60  CG        -8.8340  -28.4600   10.5640 C.ar   53  HIS53       0.0817
     61  ND1       -7.6110  -28.8310   10.0490 N.ar   53  HIS53      -0.2268
     62  CD2       -8.6770  -27.2020   11.0440 C.ar   53  HIS53       0.1154
     63  CE1       -6.7490  -27.8400   10.2090 C.ar   53  HIS53       0.1986
     64  NE2       -7.3690  -26.8350   10.8030 N.ar   53  HIS53      -0.2212
     65  N         -9.7620  -32.6560   12.8260 N.3    56  LEU56      -0.1245
     66  CA        -8.8210  -32.1310   13.7830 C.3    56  LEU56       0.1561
     67  C         -9.5580  -31.4380   14.9170 C.2    56  LEU56       0.2260
     68  O        -10.5620  -30.7620   14.6730 O.2    56  LEU56      -0.2867
     69  CB        -7.8700  -31.1800   13.0940 C.3    56  LEU56       0.0270
     70  CG        -6.7740  -30.5570   13.9620 C.3    56  LEU56       0.0019
     71  CD1       -5.8460  -31.6090   14.5150 C.3    56  LEU56       0.0001
     72  CD2       -6.0210  -29.5070   13.1740 C.3    56  LEU56       0.0001
     73  N         -8.7810  -28.5990   18.0330 N.3    58  GLN58      -0.1245
     74  CA        -7.7850  -27.6510   18.5050 C.3    58  GLN58       0.1566
     75  C         -8.3330  -26.7210   19.5800 C.2    58  GLN58       0.2260
     76  O         -9.5540  -26.5080   19.7010 O.2    58  GLN58      -0.2867
     77  CB        -7.2750  -26.7920   17.3560 C.3    58  GLN58       0.0367
     78  CG        -6.7040  -27.5540   16.1780 C.3    58  GLN58       0.0905
     79  CD        -6.3760  -26.6360   15.0060 C.2    58  GLN58       0.2608
     80  OE1       -7.2780  -26.1820   14.2800 O.2    58  GLN58      -0.2717
     81  NE2       -5.0940  -26.3810   14.8030 N.am   58  GLN58      -0.0878
     82  N         -7.4200  -22.8180   20.7960 N.3    60  LEU60      -0.1245
     83  CA        -6.7040  -21.5630   20.5990 C.3    60  LEU60       0.1561
     84  C         -6.6720  -20.7350   21.8540 C.2    60  LEU60       0.2260
     85  O         -7.6940  -20.5750   22.5410 O.2    60  LEU60      -0.2867
     86  CB        -7.3730  -20.7170   19.5160 C.3    60  LEU60       0.0270
     87  CG        -7.2430  -21.1740   18.0700 C.3    60  LEU60       0.0019
     88  CD1       -7.8240  -22.5620   17.8510 C.3    60  LEU60       0.0001
     89  CD2       -7.9440  -20.1780   17.1640 C.3    60  LEU60       0.0001
     90  N        -12.9090  -21.0880   10.3270 N.3    97  ARG97      -0.1245
     91  CA       -12.3800  -20.0220   11.1680 C.3    97  ARG97       0.1563
     92  C        -11.4100  -19.0580   10.4740 C.2    97  ARG97       0.2260
     93  O        -10.6820  -19.4200    9.5410 O.2    97  ARG97      -0.2867
     94  CB       -11.7770  -20.5800   12.4630 C.3    97  ARG97       0.0307
     95  CG       -10.2900  -20.9060   12.4090 C.3    97  ARG97       0.0489
     96  CD        -9.9830  -22.0510   11.4600 C.3    97  ARG97       0.2205
     97  NE       -10.8680  -23.1970   11.6220 N.pl3  97  ARG97      -0.0865
     98  CZ       -10.7260  -24.1410   12.5430 C.cat  97  ARG97       0.5346
     99  NH1       -9.7330  -24.0760   13.4200 N.pl3  97  ARG97       0.1354
    100  NH2      -11.5820  -25.1500   12.5920 N.pl3  97  ARG97       0.1354
    101  N         -8.9130  -15.4730   11.7450 N.3    99  MET99      -0.1245
    102  CA        -8.3530  -14.7370   12.8640 C.3    99  MET99       0.1570
    103  C         -7.9270  -13.3610   12.3670 C.2    99  MET99       0.2261
    104  O         -7.3500  -13.2510   11.2970 O.2    99  MET99      -0.2867
    105  CB        -7.1390  -15.4590   13.4100 C.3    99  MET99       0.0387
    106  CG        -7.4100  -16.9250   13.7360 C.3    99  MET99       0.0595
    107  SD        -6.9610  -17.9830   12.3490 S.3    99  MET99      -0.1393
    108  CE        -5.2110  -18.1130   12.6280 C.3    99  MET99       0.0692
    109  N         -0.6450  -15.9770   19.6050 N.3   108  LEU108     -0.1245
    110  CA        -1.7440  -16.9290   19.5390 C.3   108  LEU108      0.1561
    111  C         -1.1830  -18.3420   19.5200 C.2   108  LEU108      0.2260
    112  O         -0.5160  -18.7320   18.5750 O.2   108  LEU108     -0.2867
    113  CB        -2.5570  -16.6850   18.2850 C.3   108  LEU108      0.0270
    114  CG        -3.6590  -17.6830   18.0180 C.3   108  LEU108      0.0019
    115  CD1       -4.6880  -17.6790   19.1300 C.3   108  LEU108      0.0001
    116  CD2       -4.2850  -17.4080   16.6780 C.3   108  LEU108      0.0001
    117  N         -1.9030  -22.4630   19.6630 N.3   110  VAL110     -0.1245
    118  CA        -2.8790  -23.4930   19.3720 C.3   110  VAL110      0.1561
    119  C         -2.3010  -24.8430   19.7940 C.2   110  VAL110      0.2260
    120  O         -1.1420  -25.1830   19.4770 O.2   110  VAL110     -0.2867
    121  CB        -3.1960  -23.5320   17.8630 C.3   110  VAL110      0.0252
    122  CG1       -4.2740  -24.5510   17.5560 C.3   110  VAL110      0.0019
    123  CG2       -3.5720  -22.1240   17.3900 C.3   110  VAL110      0.0019
    124  N          0.4480  -32.2110   11.9630 N.3   116  TYR116     -0.1241
    125  CA         0.0790  -31.4320   10.7830 C.3   116  TYR116      0.1605
    126  C         -0.1840  -32.3520    9.6000 C.2   116  TYR116      0.2264
    127  O          0.6490  -33.1630    9.2560 O.2   116  TYR116     -0.2867
    128  CB         1.2050  -30.4710   10.4360 C.3   116  TYR116      0.0534
    129  CG         1.0260  -29.7340    9.1310 C.ar  116  TYR116     -0.0201
    130  CD1        0.0950  -28.7030    9.0060 C.ar  116  TYR116     -0.0009
    131  CD2        1.8040  -30.0460    8.0350 C.ar  116  TYR116     -0.0009
    132  CE1       -0.0620  -28.0260    7.8170 C.ar  116  TYR116      0.0417
    133  CE2        1.6540  -29.3710    6.8450 C.ar  116  TYR116      0.0417
    134  CZ         0.7170  -28.3650    6.7380 C.ar  116  TYR116      0.1957
    135  OH         0.5890  -27.6990    5.5420 O.3   116  TYR116     -0.2866
    136  N         -2.0070  -31.8650    5.7660 N.3   118  GLU118     -0.1245
    137  CA        -2.6590  -30.9300    4.8720 C.3   118  GLU118      0.1567
    138  C         -3.9410  -31.5570    4.3120 C.2   118  GLU118      0.2260
    139  O         -4.8910  -30.8450    4.0310 O.2   118  GLU118     -0.2867
    140  CB        -1.6610  -30.4990    3.7900 C.3   118  GLU118      0.0388
    141  CG        -2.0650  -29.3270    2.9150 C.3   118  GLU118      0.1160
    142  CD        -2.5740  -28.1030    3.6680 C.2   118  GLU118      0.3649
    143  OE1       -3.7400  -27.7410    3.4170 O.co2 118  GLU118     -0.2457
    144  OE2       -1.8290  -27.4880    4.4720 O.co2 118  GLU118     -0.2457
    145  N         -7.1340  -30.4880    6.1480 N.3   121  TYR121     -0.1241
    146  CA        -7.6390  -29.1350    5.9870 C.3   121  TYR121      0.1605
    147  C         -8.7680  -29.0910    4.9720 C.2   121  TYR121      0.2264
    148  O         -8.8170  -29.8930    4.0450 O.2   121  TYR121     -0.2867
    149  CB        -6.5550  -28.2110    5.4910 C.3   121  TYR121      0.0534
    150  CG        -5.5910  -27.7630    6.5410 C.ar  121  TYR121     -0.0201
    151  CD1       -4.6620  -28.6410    7.0710 C.ar  121  TYR121     -0.0009
    152  CD2       -5.5610  -26.4480    6.9650 C.ar  121  TYR121     -0.0009
    153  CE1       -3.7540  -28.2230    8.0200 C.ar  121  TYR121      0.0417
    154  CE2       -4.6470  -26.0200    7.9050 C.ar  121  TYR121      0.0417
    155  CZ        -3.7470  -26.9160    8.4360 C.ar  121  TYR121      0.1957
    156  OH        -2.8210  -26.5150    9.3740 O.3   121  TYR121     -0.2866
    157  N         -9.6780  -25.9740    2.7410 N.3   123  ARG123     -0.1245
    158  CA        -9.3490  -24.5860    2.4220 C.3   123  ARG123      0.1563
    159  C        -10.3250  -23.9470    1.3890 C.2   123  ARG123      0.2260
    160  O        -10.3740  -22.7250    1.2260 O.2   123  ARG123     -0.2867
    161  CB        -7.9070  -24.5050    1.9310 C.3   123  ARG123      0.0307
    162  CG        -6.8720  -24.7910    3.0200 C.3   123  ARG123      0.0489
    163  CD        -5.4530  -24.6870    2.5010 C.3   123  ARG123      0.2205
    164  NE        -4.4320  -25.1010    3.4820 N.pl3 123  ARG123     -0.0865
    165  CZ        -4.0860  -24.3970    4.5570 C.cat 123  ARG123      0.5346
    166  NH1       -4.6790  -23.2470    4.8280 N.pl3 123  ARG123      0.1354
    167  NH2       -3.1400  -24.8480    5.3660 N.pl3 123  ARG123      0.1354
@<TRIPOS>BOND
     1   160   159    2
     2   159   158    1
     3   161   158    1
     4   161   162    1
     5   158   157    1
     6   163   162    1
     7   163   164    1
     8   141   142    1
     9   141   140    1
    10   143   142   ar
    11   164   165    2
    12   142   144   ar
    13   140   137    1
    14   139   138    2
    15   148   147    2
    16   138   137    1
    17   165   166    1
    18   165   167    1
    19   137   136    1
    20   147   146    1
    21   149   146    1
    22   149   150    1
    23   135   134    1
    24   146   145    1
    25    46    45    2
    26   150   152   ar
    27   150   151   ar
    28    48    47    1
    29    48    51    1
    30    48    49    1
    31   134   133   ar
    32   134   132   ar
    33    51    52    1
    34   133   131   ar
    35   152   154   ar
    36   151   153   ar
    37    45    44    1
    38    49    50    2
    39   132   130   ar
    40   154   155   ar
    41   153   155   ar
    42   131   129   ar
    43    52    54   am
    44    52    53    2
    45   155   156    1
    46    44    43    1
    47    43    34   am
    48    33    34    1
    49    33    32    1
    50    33    36    1
    51    34    35    2
    52   130   129   ar
    53   129   128    1
    54    55    56    1
    55    56    57    1
    56    56    59    1
    57    57    58    2
    58   127   126    2
    59    93    92    2
    60   126   125    1
    61    37    36    1
    62    37    38    1
    63    41    40    1
    64    42    40    1
    65    40    39    2
    66    61    63   ar
    67    61    60   ar
    68    63    64   ar
    69    90    91    1
    70    39    38    1
    71   128   125    1
    72    92    91    1
    73    59    60    1
    74    60    62   ar
    75   125   124    1
    76    64    62   ar
    77    91    94    1
    78   104   103    2
    79    96    97    1
    80    96    95    1
    81    97    98    2
    82   101   102    1
    83   107   108    1
    84   107   106    1
    85   103   102    1
    86    95    94    1
    87    98   100    1
    88    98    99    1
    89    65    66    1
    90   102   105    1
    91    11     9    1
    92    69    66    1
    93    69    70    1
    94    72    70    1
    95    10     9    1
    96   105   106    1
    97     9     8    2
    98    66    67    1
    99    31    29    1
   100    70    71    1
   101    29    28    1
   102    30    28    1
   103     8     7    1
   104    80    79    2
   105    23    22    1
   106     7     6    1
   107    20    22   ar
   108    20    18   ar
   109    22    21   ar
   110    68    67    2
   111    18    17   ar
   112    81    79   am
   113    28    25    1
   114    21    19   ar
   115    79    78    1
   116    17    19   ar
   117    17    16    1
   118    16    13    1
   119    25    26    1
   120    25    24    1
   121     6     5    1
   122    78    77    1
   123    26    27    2
   124   116   114    1
   125     5     2    1
   126    13    14    1
   127    13    12    1
   128    89    87    1
   129    77    74    1
   130   123   121    1
   131   122   121    1
   132    14    15    2
   133    88    87    1
   134   121   118    1
   135   114   113    1
   136   114   115    1
   137    73    74    1
   138    87    86    1
   139     2     3    1
   140     2     1    1
   141   113   110    1
   142    74    75    1
   143   112   111    2
   144     3     4    2
   145   118   117    1
   146   118   119    1
   147   120   119    2
   148    86    83    1
   149   111   110    1
   150   110   109    1
   151    75    76    2
   152    83    82    1
   153    83    84    1
   154    84    85    2
