@<TRIPOS>MOLECULE
tmp/4o9kA00.pdb
 138 133 0 0 0
SMALL
GASTEIGER

@<TRIPOS>ATOM
      1  N         32.9220   -0.9130   -3.1790 N.3    51  VAL51      -0.1245
      2  CA        31.6610   -1.3380   -2.5300 C.3    51  VAL51       0.1561
      3  C         30.4820   -0.5940   -3.1600 C.2    51  VAL51       0.2260
      4  O         30.6760    0.4060   -3.8640 O.2    51  VAL51      -0.2867
      5  CB        31.6760   -1.0630   -1.0070 C.3    51  VAL51       0.0252
      6  CG1       32.8080   -1.8190   -0.3160 C.3    51  VAL51       0.0019
      7  CG2       31.7160    0.4180   -0.7020 C.3    51  VAL51       0.0019
      8  N         26.5330    0.3860   -1.6450 N.3    53  THR53      -0.1203
      9  CA        25.5990    0.3520   -0.5390 C.3    53  THR53       0.1994
     10  C         24.1880    0.7400   -0.9380 C.2    53  THR53       0.2618
     11  O         23.9300    1.2610   -2.0170 O.2    53  THR53      -0.2717
     12  CB        26.0390    1.3040    0.5690 C.3    53  THR53       0.1784
     13  OG1       25.8650    2.6480    0.1280 O.3    53  THR53      -0.2211
     14  CG2       27.5110    1.0680    0.9500 C.3    53  THR53       0.0376
     15  N         23.2510    0.4690   -0.0470 N.am   54  ASP54      -0.1959
     16  CA        21.9180    0.9480   -0.2120 C.3    54  ASP54       0.1840
     17  C         21.8840    2.4710   -0.3920 C.2    54  ASP54       0.2623
     18  O         21.1100    2.9800   -1.2210 O.2    54  ASP54      -0.2715
     19  CB        21.0590    0.5230    0.9790 C.3    54  ASP54       0.1450
     20  CG        20.7730   -0.9800    1.0260 C.2    54  ASP54       0.3671
     21  OD1       20.9460   -1.6770   -0.0100 O.co2  54  ASP54      -0.2456
     22  OD2       20.3450   -1.4710    2.1050 O.co2  54  ASP54      -0.2456
     23  N         22.6730    3.2240    0.3820 N.am   55  GLY55      -0.1940
     24  CA        22.7470    4.6670    0.1340 C.3    55  GLY55       0.2014
     25  C         23.2350    5.0250   -1.2790 C.2    55  GLY55       0.2638
     26  O         22.7660    6.0110   -1.8720 O.2    55  GLY55      -0.2714
     27  N         24.2140    4.2540   -1.7950 N.am   56  ASP56      -0.1971
     28  CA        24.6470    4.4210   -3.1590 C.3    56  ASP56       0.1709
     29  C         23.5310    4.2110   -4.2120 C.2    56  ASP56       0.2293
     30  O         23.4800    4.9020   -5.2560 O.2    56  ASP56      -0.2864
     31  CB        25.8260    3.5090   -3.4940 C.3    56  ASP56       0.1436
     32  CG        27.0940    3.8380   -2.6950 C.2    56  ASP56       0.3671
     33  OD1       27.3830    5.0440   -2.4200 O.co2  56  ASP56      -0.2456
     34  OD2       27.8150    2.8560   -2.3830 O.co2  56  ASP56      -0.2456
     35  N         20.3300    4.8330   -3.5980 N.3    58  ARG58      -0.1231
     36  CA        19.5020    6.0530   -3.5660 C.3    58  ARG58       0.1694
     37  C         20.1280    7.1290   -4.4350 C.2    58  ARG58       0.2591
     38  O         19.4370    7.7890   -5.2030 O.2    58  ARG58      -0.2718
     39  CB        19.2900    6.6030   -2.1150 C.3    58  ARG58       0.0321
     40  CG        18.8210    8.0530   -2.0770 C.3    58  ARG58       0.0489
     41  CD        18.3440    8.4640   -0.6670 C.3    58  ARG58       0.2205
     42  NE        19.2340    7.9110    0.3230 N.pl3  58  ARG58      -0.0865
     43  CZ        20.4390    8.3930    0.6080 C.cat  58  ARG58       0.5346
     44  NH1       20.8950    9.4980    0.0570 N.pl3  58  ARG58       0.1354
     45  NH2       21.1850    7.7680    1.4920 N.pl3  58  ARG58       0.1354
     46  N         21.4260    7.3490   -4.2590 N.am   59  ARG59      -0.1980
     47  CA        22.0550    8.3860   -4.9980 C.3    59  ARG59       0.1597
     48  C         21.9870    8.1150   -6.4830 C.2    59  ARG59       0.2287
     49  O         21.8360    9.0240   -7.2890 O.2    59  ARG59      -0.2864
     50  CB        23.4940    8.6440   -4.5170 C.3    59  ARG59       0.0334
     51  CG        23.5460    9.3580   -3.1470 C.3    59  ARG59       0.0492
     52  CD        24.9980    9.5210   -2.6610 C.3    59  ARG59       0.2205
     53  NE        25.5200    8.2840   -2.1630 N.pl3  59  ARG59      -0.0865
     54  CZ        25.3590    7.8420   -0.9050 C.cat  59  ARG59       0.5346
     55  NH1       25.8850    6.6800   -0.5180 N.pl3  59  ARG59       0.1354
     56  NH2       24.7030    8.5790   -0.0050 N.pl3  59  ARG59       0.1354
     57  N         31.5510    2.6250   -5.3430 N.3    76  THR76      -0.1218
     58  CA        32.5830    3.4390   -4.6960 C.3    76  THR76       0.1862
     59  C         33.8780    2.7120   -4.7620 C.2    76  THR76       0.2287
     60  O         34.0790    1.7180   -4.0680 O.2    76  THR76      -0.2866
     61  CB        32.2170    3.6870   -3.2260 C.3    76  THR76       0.1770
     62  OG1       30.9770    4.3880   -3.1920 O.3    76  THR76      -0.2211
     63  CG2       33.3020    4.5280   -2.5000 C.3    76  THR76       0.0375
     64  N         37.0030    4.1060   -3.9100 N.3    78  SER78      -0.1202
     65  CA        37.9600    4.3880   -2.8200 C.3    78  SER78       0.2020
     66  C         37.2870    4.0620   -1.5060 C.2    78  SER78       0.2619
     67  O         36.8800    4.9500   -0.7380 O.2    78  SER78      -0.2717
     68  CB        38.4500    5.8130   -2.8800 C.3    78  SER78       0.2103
     69  OG        39.2490    5.8790   -4.0400 O.3    78  SER78      -0.2182
     70  N         37.0580    2.7680   -1.3290 N.am   79  CYS79      -0.1955
     71  CA        36.2320    2.3240   -0.2290 C.3    79  CYS79       0.1843
     72  C         37.1070    2.1420    1.0450 C.2    79  CYS79       0.2625
     73  O         38.3480    2.0340    0.9930 O.2    79  CYS79      -0.2714
     74  CB        35.4420    1.0810   -0.6270 C.3    79  CYS79       0.0997
     75  SG        36.5070   -0.3740   -0.9290 S.3    79  CYS79      -0.0797
     76  N         36.4380    2.1080    2.1830 N.am   80  VAL80      -0.1977
     77  CA        37.0990    1.9040    3.4550 C.3    80  VAL80       0.1596
     78  C         37.1490    0.4230    3.7750 C.2    80  VAL80       0.2287
     79  O         36.1460   -0.2360    3.6180 O.2    80  VAL80      -0.2864
     80  CB        36.3520    2.6580    4.5530 C.3    80  VAL80       0.0276
     81  CG1       37.0510    2.4570    5.8690 C.3    80  VAL80       0.0022
     82  CG2       36.2890    4.1450    4.1960 C.3    80  VAL80       0.0022
     83  N         33.8890    7.9950    9.5530 N.3    97  LYS97      -0.1231
     84  CA        33.7500    7.9680    8.0810 C.3    97  LYS97       0.1693
     85  C         32.2820    8.0520    7.6220 C.2    97  LYS97       0.2592
     86  O         32.0210    8.1690    6.4080 O.2    97  LYS97      -0.2718
     87  CB        34.3540    6.6930    7.5260 C.3    97  LYS97       0.0285
     88  CG        35.8610    6.5500    7.5270 C.3    97  LYS97       0.0035
     89  CD        36.5240    7.3350    6.4350 C.3    97  LYS97       0.0206
     90  CE        38.0590    7.4480    6.6580 C.3    97  LYS97       0.1093
     91  NZ        38.7230    6.2880    7.3420 N.3    97  LYS97      -0.1314
     92  N         31.3340    7.9890    8.5600 N.am   98  ARG98      -0.1966
     93  CA        29.9140    8.0570    8.2860 C.3    98  ARG98       0.1729
     94  C         29.4490    6.8970    7.3860 C.2    98  ARG98       0.2616
     95  O         28.7260    7.0760    6.4100 O.2    98  ARG98      -0.2715
     96  CB        29.5450    9.4410    7.7140 C.3    98  ARG98       0.0348
     97  CG        29.9350   10.5840    8.6820 C.3    98  ARG98       0.0492
     98  CD        29.5380   11.9870    8.1940 C.3    98  ARG98       0.2205
     99  NE        30.3100   12.4380    7.0390 N.pl3  98  ARG98      -0.0865
    100  CZ        29.8090   12.5860    5.8140 C.cat  98  ARG98       0.5346
    101  NH1       28.5440   12.3280    5.5910 N.pl3  98  ARG98       0.1354
    102  NH2       30.5730   12.9470    4.7980 N.pl3  98  ARG98       0.1354
    103  N         29.8450    5.6820    7.7620 N.am   99  ILE99      -0.1963
    104  CA        29.4930    4.4980    6.9880 C.3    99  ILE99       0.1727
    105  C         28.9080    3.4650    7.9380 C.2    99  ILE99       0.2616
    106  O         28.9460    3.6500    9.1550 O.2    99  ILE99      -0.2715
    107  CB        30.7290    3.8880    6.2430 C.3    99  ILE99       0.0290
    108  CG1       31.8490    3.5560    7.2270 C.3    99  ILE99       0.0022
    109  CG2       31.2290    4.8660    5.1780 C.3    99  ILE99       0.0023
    110  CD1       33.0610    2.9100    6.6230 C.3    99  ILE99       0.0001
    111  N         28.4190    2.3740    7.3470 N.am  100  ASN100     -0.1958
    112  CA        27.6580    1.3650    8.0520 C.3   100  ASN100      0.1819
    113  C         28.1670   -0.0640    7.9530 C.2   100  ASN100      0.2621
    114  O         27.6290   -0.9610    8.6190 O.2   100  ASN100     -0.2715
    115  CB        26.2290    1.4400    7.5510 C.3   100  ASN100      0.1195
    116  CG        25.6350    2.7830    7.8320 C.2   100  ASN100      0.2630
    117  OD1       25.4360    3.1280    9.0030 O.2   100  ASN100     -0.2716
    118  ND2       25.4790    3.6350    6.7680 N.am  100  ASN100     -0.0877
    119  N         29.1830   -0.2880    7.1300 N.am  101  ALA101     -0.1963
    120  CA        29.7010   -1.6270    6.9930 C.3   101  ALA101      0.1728
    121  C         31.1200   -1.5640    6.4550 C.2   101  ALA101      0.2616
    122  O         31.5490   -0.5390    5.8620 O.2   101  ALA101     -0.2715
    123  CB        28.8500   -2.4620    6.0580 C.3   101  ALA101      0.0334
    124  N         31.8540   -2.6310    6.7320 N.am  102  LEU102     -0.1964
    125  CA        33.2740   -2.6760    6.3880 C.3   102  LEU102      0.1713
    126  C         33.6040   -4.0020    5.7670 C.2   102  LEU102      0.2458
    127  O         33.4060   -5.0440    6.3810 O.2   102  LEU102     -0.2730
    128  CB        34.1230   -2.4690    7.6380 C.3   102  LEU102      0.0310
    129  CG        34.0980   -1.0710    8.2220 C.3   102  LEU102      0.0022
    130  CD1       34.7520   -1.1300    9.6040 C.3   102  LEU102      0.0001
    131  CD2       34.8790   -0.1070    7.3690 C.3   102  LEU102      0.0001
    132  N         34.1690   -3.9810    4.5590 N.am  103  PRO103     -0.2727
    133  CA        34.8790   -5.1690    4.0940 C.3   103  PRO103      0.1402
    134  C         36.1380   -5.3640    4.9330 C.2   103  PRO103      0.2269
    135  O         36.8400   -4.3880    5.2700 O.2   103  PRO103     -0.2865
    136  CB        35.2150   -4.8470    2.6360 C.3   103  PRO103      0.0296
    137  CG        34.8110   -3.4290    2.4270 C.3   103  PRO103      0.0237
    138  CD        34.3110   -2.8350    3.6780 C.3   103  PRO103      0.0939
@<TRIPOS>BOND
     1    49    48    2
     2    48    47    1
     3    57    58    1
     4    30    29    2
     5    38    37    2
     6    47    50    1
     7    47    46    1
     8    59    58    1
     9    59    60    2
    10    58    61    1
    11    50    51    1
    12    37    46   am
    13    37    36    1
    14    29    28    1
    15    69    68    1
    16    64    65    1
    17     4     3    2
    18    35    36    1
    19    36    39    1
    20    31    28    1
    21    31    32    1
    22    61    62    1
    23    61    63    1
    24     1     2    1
    25     3     2    1
    26    28    27    1
    27    51    52    1
    28    68    65    1
    29    65    66    1
    30    32    33   ar
    31    32    34   ar
    32    52    53    1
    33     2     5    1
    34    53    54    2
    35    39    40    1
    36    40    41    1
    37    11    10    2
    38    26    25    2
    39    27    25   am
    40     8     9    1
    41    66    70   am
    42    66    67    2
    43    70    71    1
    44    25    24    1
    45    18    17    2
    46     5     7    1
    47     5     6    1
    48    10     9    1
    49    10    15   am
    50    75    74    1
    51    54    55    1
    52    54    56    1
    53    41    42    1
    54    74    71    1
    55     9    12    1
    56    17    16    1
    57    17    23   am
    58    71    72    1
    59    16    15    1
    60    16    19    1
    61    21    20   ar
    62    44    43    1
    63    13    12    1
    64    24    23    1
    65    42    43    2
    66    12    14    1
    67    43    45    1
    68    19    20    1
    69    73    72    2
    70    20    22   ar
    71    72    76   am
    72    76    77    1
    73   137   136    1
    74   137   138    1
    75   136   133    1
    76    77    78    1
    77    77    80    1
    78    79    78    2
    79   138   132    1
    80   133   132    1
    81   133   134    1
    82    82    80    1
    83    80    81    1
    84   132   126   am
    85   102   100    1
    86   134   135    2
    87   109   107    1
    88   101   100    1
    89   126   127    2
    90   126   125    1
    91   100    99    2
    92   122   121    2
    93   123   120    1
    94   107   104    1
    95   107   108    1
    96   125   124    1
    97   125   128    1
    98    86    85    2
    99    95    94    2
   100    89    90    1
   101    89    88    1
   102   121   124   am
   103   121   120    1
   104   110   108    1
   105    90    91    1
   106   118   116   am
   107   104   103    1
   108   104   105    1
   109   120   119    1
   110    99    98    1
   111   119   113   am
   112   111   105   am
   113   111   112    1
   114   131   129    1
   115    94   103   am
   116    94    93    1
   117    87    88    1
   118    87    84    1
   119   115   116    1
   120   115   112    1
   121    85    84    1
   122    85    92   am
   123   128   129    1
   124    96    93    1
   125    96    97    1
   126   116   117    2
   127   105   106    2
   128   113   112    1
   129   113   114    2
   130    84    83    1
   131    98    97    1
   132   129   130    1
   133    93    92    1
