@<TRIPOS>MOLECULE
tmp/4o9sB00.pdb
 213 203 0 0 0
SMALL
GASTEIGER

@<TRIPOS>ATOM
      1  N        -10.8550    8.9540  -13.9970 N.3    35  LEU35      -0.1231
      2  CA       -10.5840   10.3690  -13.7450 C.3    35  LEU35       0.1693
      3  C        -11.8530   11.1270  -13.3580 C.2    35  LEU35       0.2592
      4  O        -12.9230   10.8820  -13.9150 O.2    35  LEU35      -0.2718
      5  CB        -9.9570   11.0100  -14.9880 C.3    35  LEU35       0.0284
      6  CG        -9.4180   12.4370  -14.8490 C.3    35  LEU35       0.0019
      7  CD1       -8.2010   12.4690  -13.9370 C.3    35  LEU35       0.0001
      8  CD2       -9.0790   13.0200  -16.2130 C.3    35  LEU35       0.0001
      9  N        -11.7200   12.0490  -12.4050 N.am   36  PHE36      -0.1962
     10  CA       -12.8530   12.8350  -11.9110 C.3    36  PHE36       0.1771
     11  C        -12.3700   14.1350  -11.2580 C.2    36  PHE36       0.2619
     12  O        -11.1780   14.2950  -10.9920 O.2    36  PHE36      -0.2715
     13  CB       -13.6700   12.0020  -10.9140 C.3    36  PHE36       0.0574
     14  CG       -15.0710   12.5060  -10.7000 C.ar   36  PHE36      -0.0200
     15  CD1      -16.0070   12.4480  -11.7240 C.ar   36  PHE36      -0.0042
     16  CD2      -15.4570   13.0340   -9.4740 C.ar   36  PHE36      -0.0042
     17  CE1      -17.2990   12.9110  -11.5320 C.ar   36  PHE36      -0.0003
     18  CE2      -16.7470   13.4970   -9.2760 C.ar   36  PHE36      -0.0003
     19  CZ       -17.6700   13.4360  -10.3060 C.ar   36  PHE36      -0.0000
     20  N        -13.2970   15.0630  -11.0180 N.am   37  LEU37      -0.1977
     21  CA       -12.9840   16.3340  -10.3550 C.3    37  LEU37       0.1596
     22  C        -12.4250   16.0970   -8.9520 C.2    37  LEU37       0.2287
     23  O        -12.8300   15.1550   -8.2700 O.2    37  LEU37      -0.2864
     24  CB       -14.2320   17.2210  -10.2710 C.3    37  LEU37       0.0297
     25  CG       -14.8420   17.7060  -11.5900 C.3    37  LEU37       0.0022
     26  CD1      -16.2050   18.3340  -11.3450 C.3    37  LEU37       0.0001
     27  CD2      -13.9180   18.6870  -12.2960 C.3    37  LEU37       0.0001
     28  N        -14.9700   22.6130   -6.5210 N.3    41  ILE41      -0.1245
     29  CA       -16.0570   22.2900   -7.4410 C.3    41  ILE41       0.1561
     30  C        -17.2760   23.1690   -7.1640 C.2    41  ILE41       0.2260
     31  O        -17.9930   22.9580   -6.1850 O.2    41  ILE41      -0.2867
     32  CB       -16.4440   20.7980   -7.3440 C.3    41  ILE41       0.0252
     33  CG1      -15.2430   19.9160   -7.7070 C.3    41  ILE41       0.0019
     34  CG2      -17.6260   20.4850   -8.2560 C.3    41  ILE41       0.0019
     35  CD1      -15.3850   18.4670   -7.2920 C.3    41  ILE41       0.0001
     36  N        -20.8650   24.8850   -8.8790 N.3    43  ALA43      -0.1245
     37  CA       -21.8700   24.7190   -9.9290 C.3    43  ALA43       0.1562
     38  C        -22.8230   25.9110   -9.9470 C.2    43  ALA43       0.2260
     39  O        -23.2720   26.3680   -8.8960 O.2    43  ALA43      -0.2867
     40  CB       -22.6440   23.4290   -9.7150 C.3    43  ALA43       0.0290
     41  N        -26.3440   26.8340  -11.6100 N.3    45  PHE45      -0.1241
     42  CA       -27.5330   26.3920  -12.3420 C.3    45  PHE45       0.1605
     43  C        -28.3750   27.5770  -12.8080 C.2    45  PHE45       0.2264
     44  O        -28.4590   28.5980  -12.1230 O.2    45  PHE45      -0.2867
     45  CB       -28.3860   25.4590  -11.4750 C.3    45  PHE45       0.0534
     46  CG       -27.8220   24.0720  -11.3420 C.ar   45  PHE45      -0.0203
     47  CD1      -26.7700   23.8160  -10.4720 C.ar   45  PHE45      -0.0042
     48  CD2      -28.3450   23.0210  -12.0840 C.ar   45  PHE45      -0.0042
     49  CE1      -26.2490   22.5380  -10.3470 C.ar   45  PHE45      -0.0003
     50  CE2      -27.8290   21.7410  -11.9630 C.ar   45  PHE45      -0.0003
     51  CZ       -26.7790   21.4990  -11.0930 C.ar   45  PHE45      -0.0000
     52  N        -26.5470   24.4690  -16.7640 N.3    55  ALA55      -0.1231
     53  CA       -25.5740   24.8150  -15.7290 C.3    55  ALA55       0.1694
     54  C        -24.1420   24.8370  -16.2460 C.2    55  ALA55       0.2593
     55  O        -23.8360   24.2750  -17.3000 O.2    55  ALA55      -0.2718
     56  CB       -25.6870   23.8480  -14.5580 C.3    55  ALA55       0.0304
     57  N        -23.2770   25.5070  -15.4870 N.am   56  THR56      -0.1939
     58  CA       -21.8370   25.4840  -15.7130 C.3    56  THR56       0.2028
     59  C        -21.1620   24.8990  -14.4770 C.2    56  THR56       0.2642
     60  O        -21.6500   25.0730  -13.3600 O.2    56  THR56      -0.2714
     61  CB       -21.2750   26.8940  -15.9760 C.3    56  THR56       0.1808
     62  OG1      -21.4960   27.7270  -14.8300 O.3    56  THR56      -0.2208
     63  CG2      -21.9390   27.5220  -17.1920 C.3    56  THR56       0.0379
     64  N        -20.0460   24.2040  -14.6850 N.am   57  ALA57      -0.1977
     65  CA       -19.3150   23.5590  -13.5960 C.3    57  ALA57       0.1597
     66  C        -17.8190   23.8310  -13.7190 C.2    57  ALA57       0.2287
     67  O        -17.2340   23.6440  -14.7870 O.2    57  ALA57      -0.2864
     68  CB       -19.5830   22.0620  -13.5960 C.3    57  ALA57       0.0319
     69  N         -8.8150   19.3800  -11.4470 N.3    61  VAL61      -0.1245
     70  CA        -8.7130   17.9670  -11.8110 C.3    61  VAL61       0.1561
     71  C         -7.2420   17.5650  -11.9640 C.2    61  VAL61       0.2260
     72  O         -6.4740   18.2290  -12.6620 O.2    61  VAL61      -0.2867
     73  CB        -9.5220   17.6450  -13.0950 C.3    61  VAL61       0.0252
     74  CG1       -9.2670   18.6730  -14.1880 C.3    61  VAL61       0.0019
     75  CG2       -9.2280   16.2340  -13.5930 C.3    61  VAL61       0.0019
     76  N        -10.8700   22.6930  -14.8720 N.3    71  ALA71      -0.1245
     77  CA       -11.8630   22.3190  -15.8720 C.3    71  ALA71       0.1562
     78  C        -13.0270   23.3000  -15.8400 C.2    71  ALA71       0.2260
     79  O        -13.6190   23.5270  -14.7870 O.2    71  ALA71      -0.2867
     80  CB       -12.3610   20.9040  -15.6200 C.3    71  ALA71       0.0290
     81  N        -16.5870   23.7780  -17.5900 N.3    73  MET73      -0.1230
     82  CA       -17.5410   23.0000  -18.3790 C.3    73  MET73       0.1702
     83  C        -18.9470   23.5890  -18.3780 C.2    73  MET73       0.2592
     84  O        -19.3370   24.3050  -17.4560 O.2    73  MET73      -0.2718
     85  CB       -17.5880   21.5610  -17.8640 C.3    73  MET73       0.0401
     86  CG       -16.2420   20.8570  -17.9050 C.3    73  MET73       0.0596
     87  SD       -16.3770   19.0750  -17.6870 S.3    73  MET73      -0.1393
     88  CE       -14.6590   18.5860  -17.8220 C.3    73  MET73       0.0692
     89  N        -19.6940   23.2690  -19.4330 N.am   74  VAL74      -0.1966
     90  CA       -21.0810   23.6950  -19.6000 C.3    74  VAL74       0.1727
     91  C        -21.9140   22.4670  -19.9530 C.2    74  VAL74       0.2616
     92  O        -21.4070   21.5300  -20.5730 O.2    74  VAL74      -0.2715
     93  CB       -21.2170   24.7420  -20.7290 C.3    74  VAL74       0.0290
     94  CG1      -22.6540   25.2410  -20.8390 C.3    74  VAL74       0.0023
     95  CG2      -20.2630   25.9060  -20.4980 C.3    74  VAL74       0.0023
     96  N        -23.1850   22.4690  -19.5570 N.am   75  GLY75      -0.1955
     97  CA       -24.0780   21.3530  -19.8580 C.3    75  GLY75       0.1869
     98  C        -25.5530   21.7070  -19.8610 C.2    75  GLY75       0.2309
     99  O        -25.9750   22.6720  -19.2220 O.2    75  GLY75      -0.2863
    100  N        -29.6530   20.0280  -19.5260 N.3    77  PHE77      -0.1241
    101  CA       -30.4060   18.9500  -18.8840 C.3    77  PHE77       0.1605
    102  C        -31.7130   18.6830  -19.6240 C.2    77  PHE77       0.2264
    103  O        -32.5470   19.5790  -19.7600 O.2    77  PHE77      -0.2867
    104  CB       -30.7050   19.3100  -17.4280 C.3    77  PHE77       0.0534
    105  CG       -29.4760   19.5630  -16.6020 C.ar   77  PHE77      -0.0203
    106  CD1      -28.8220   18.5170  -15.9670 C.ar   77  PHE77      -0.0042
    107  CD2      -28.9710   20.8480  -16.4630 C.ar   77  PHE77      -0.0042
    108  CE1      -27.6870   18.7490  -15.2070 C.ar   77  PHE77      -0.0003
    109  CE2      -27.8380   21.0870  -15.7040 C.ar   77  PHE77      -0.0003
    110  CZ       -27.1940   20.0360  -15.0750 C.ar   77  PHE77      -0.0000
    111  N        -28.1510   14.7150  -18.2510 N.3    88  MET88      -0.1245
    112  CA       -27.1570   15.7740  -18.4050 C.3    88  MET88       0.1570
    113  C        -26.2300   15.4650  -19.5740 C.2    88  MET88       0.2261
    114  O        -25.6540   14.3820  -19.6440 O.2    88  MET88      -0.2867
    115  CB       -26.3340   15.9340  -17.1250 C.3    88  MET88       0.0387
    116  CG       -25.3420   17.0890  -17.1640 C.3    88  MET88       0.0595
    117  SD       -24.4460   17.3170  -15.6170 S.3    88  MET88      -0.1393
    118  CE       -23.4480   15.8300  -15.5690 C.3    88  MET88       0.0692
    119  N        -22.8930   17.2440  -21.3150 N.3    90  TYR90      -0.1241
    120  CA       -21.9010   18.2670  -20.9720 C.3    90  TYR90       0.1605
    121  C        -20.7020   18.2940  -21.9190 C.2    90  TYR90       0.2264
    122  O        -20.4790   17.3650  -22.6970 O.2    90  TYR90      -0.2867
    123  CB       -21.4140   18.0680  -19.5310 C.3    90  TYR90       0.0534
    124  CG       -20.6760   16.7660  -19.2960 C.ar   90  TYR90      -0.0201
    125  CD1      -21.3640   15.6010  -18.9730 C.ar   90  TYR90      -0.0009
    126  CD2      -19.2880   16.7020  -19.3930 C.ar   90  TYR90      -0.0009
    127  CE1      -20.6930   14.4080  -18.7570 C.ar   90  TYR90       0.0417
    128  CE2      -18.6080   15.5150  -19.1800 C.ar   90  TYR90       0.0417
    129  CZ       -19.3140   14.3710  -18.8620 C.ar   90  TYR90       0.1957
    130  OH       -18.6430   13.1900  -18.6490 O.3    90  TYR90      -0.2866
    131  N        -10.8340   20.2930  -21.3030 N.3    96  PHE96      -0.1241
    132  CA       -11.4850   19.0590  -21.7530 C.3    96  PHE96       0.1605
    133  C        -11.9470   19.1820  -23.2070 C.2    96  PHE96       0.2264
    134  O        -12.5880   20.1650  -23.5800 O.2    96  PHE96      -0.2867
    135  CB       -12.6670   18.7290  -20.8330 C.3    96  PHE96       0.0534
    136  CG       -13.2780   17.3720  -21.0720 C.ar   96  PHE96      -0.0203
    137  CD1      -12.4930   16.2260  -21.0630 C.ar   96  PHE96      -0.0042
    138  CD2      -14.6470   17.2380  -21.2750 C.ar   96  PHE96      -0.0042
    139  CE1      -13.0560   14.9770  -21.2730 C.ar   96  PHE96      -0.0003
    140  CE2      -15.2150   15.9910  -21.4800 C.ar   96  PHE96      -0.0003
    141  CZ       -14.4190   14.8600  -21.4810 C.ar   96  PHE96      -0.0000
    142  N        -24.3660   12.0440  -18.6460 N.3   102  ASP102     -0.1239
    143  CA       -24.6510   11.2970  -17.4210 C.3   102  ASP102      0.1674
    144  C        -26.0920   11.5240  -16.9840 C.2   102  ASP102      0.2266
    145  O        -26.7200   12.5110  -17.3720 O.2   102  ASP102     -0.2867
    146  CB       -23.7290   11.7550  -16.2840 C.3   102  ASP102      0.1410
    147  CG       -22.2760   11.3840  -16.5110 C.2   102  ASP102      0.3668
    148  OD1      -22.0030   10.2470  -16.9470 O.co2 102  ASP102     -0.2456
    149  OD2      -21.3990   12.2260  -16.2260 O.co2 102  ASP102     -0.2456
    150  N        -28.5620   12.7490  -14.1240 N.3   104  HIS104     -0.1241
    151  CA       -28.4320   13.7830  -13.1000 C.3   104  HIS104      0.1621
    152  C        -29.6720   13.7990  -12.2130 C.2   104  HIS104      0.2264
    153  O        -30.7050   14.3650  -12.5770 O.2   104  HIS104     -0.2867
    154  CB       -28.2070   15.1510  -13.7450 C.3   104  HIS104      0.0745
    155  CG       -27.8430   16.2260  -12.7690 C.ar  104  HIS104      0.0817
    156  ND1      -26.5410   16.4860  -12.4010 N.ar  104  HIS104     -0.2268
    157  CD2      -28.6110   17.1100  -12.0890 C.ar  104  HIS104      0.1154
    158  CE1      -26.5220   17.4840  -11.5350 C.ar  104  HIS104      0.1986
    159  NE2      -27.7650   17.8800  -11.3280 N.ar  104  HIS104     -0.2212
    160  N        -26.8900   15.4010   -4.7730 N.3   117  GLN117     -0.1245
    161  CA       -26.9190   14.9610   -6.1670 C.3   117  GLN117      0.1566
    162  C        -26.4290   13.5170   -6.2710 C.2   117  GLN117      0.2260
    163  O        -25.5890   13.0850   -5.4830 O.2   117  GLN117     -0.2867
    164  CB       -26.0520   15.8940   -7.0210 C.3   117  GLN117      0.0367
    165  CG       -25.9990   15.5570   -8.5090 C.3   117  GLN117      0.0905
    166  CD       -24.8780   14.5990   -8.8850 C.2   117  GLN117      0.2608
    167  OE1      -24.0100   14.2790   -8.0700 O.2   117  GLN117     -0.2717
    168  NE2      -24.8920   14.1380  -10.1310 N.am  117  GLN117     -0.0878
    169  N        -23.5770    5.5260  -13.3930 N.3   121  ARG121     -0.1245
    170  CA       -23.0700    5.3890  -14.7600 C.3   121  ARG121      0.1563
    171  C        -23.1920    3.9670  -15.3120 C.2   121  ARG121      0.2260
    172  O        -23.1580    3.7740  -16.5270 O.2   121  ARG121     -0.2867
    173  CB       -21.6060    5.8390  -14.8330 C.3   121  ARG121      0.0307
    174  CG       -21.4270    7.3470  -14.7890 C.3   121  ARG121      0.0489
    175  CD       -19.9580    7.7440  -14.7920 C.3   121  ARG121      0.2205
    176  NE       -19.7820    9.1580  -15.1170 N.pl3 121  ARG121     -0.0865
    177  CZ       -18.6240    9.8160  -15.0750 C.cat 121  ARG121      0.5346
    178  NH1      -17.5010    9.2020  -14.7110 N.pl3 121  ARG121      0.1354
    179  NH2      -18.5890   11.1040  -15.3970 N.pl3 121  ARG121      0.1354
    180  N        -21.3080    8.3410   -8.8470 N.3   133  TYR133     -0.1241
    181  CA       -20.7410    9.5180   -8.1940 C.3   133  TYR133      0.1605
    182  C        -21.8600   10.3850   -7.6210 C.2   133  TYR133      0.2264
    183  O        -22.9840   10.3790   -8.1280 O.2   133  TYR133     -0.2867
    184  CB       -19.8410   10.3140   -9.1490 C.3   133  TYR133      0.0534
    185  CG       -20.5530   11.0150  -10.2880 C.ar  133  TYR133     -0.0201
    186  CD1      -21.0180   12.3200  -10.1480 C.ar  133  TYR133     -0.0009
    187  CD2      -20.7360   10.3820  -11.5140 C.ar  133  TYR133     -0.0009
    188  CE1      -21.6600   12.9690  -11.1910 C.ar  133  TYR133      0.0417
    189  CE2      -21.3770   11.0220  -12.5620 C.ar  133  TYR133      0.0417
    190  CZ       -21.8360   12.3150  -12.3970 C.ar  133  TYR133      0.1957
    191  OH       -22.4740   12.9510  -13.4360 O.3   133  TYR133     -0.2866
    192  N        -22.5670   14.2700   -5.2740 N.3   135  PHE135     -0.1241
    193  CA       -22.0870   15.5170   -4.6820 C.3   135  PHE135      0.1605
    194  C        -23.0070   15.9840   -3.5590 C.2   135  PHE135      0.2264
    195  O        -24.2320   15.9180   -3.6810 O.2   135  PHE135     -0.2867
    196  CB       -21.9990   16.6150   -5.7440 C.3   135  PHE135      0.0534
    197  CG       -20.8390   16.4610   -6.6850 C.ar  135  PHE135     -0.0203
    198  CD1      -19.5480   16.7500   -6.2640 C.ar  135  PHE135     -0.0042
    199  CD2      -21.0350   16.0380   -7.9930 C.ar  135  PHE135     -0.0042
    200  CE1      -18.4750   16.6140   -7.1280 C.ar  135  PHE135     -0.0003
    201  CE2      -19.9660   15.9010   -8.8610 C.ar  135  PHE135     -0.0003
    202  CZ       -18.6840   16.1890   -8.4290 C.ar  135  PHE135     -0.0000
    203  N        -23.9830   19.2710   -2.1990 N.3   137  PHE137     -0.1241
    204  CA       -23.9330   20.6970   -2.5160 C.3   137  PHE137      0.1605
    205  C        -24.4000   21.5500   -1.3400 C.2   137  PHE137      0.2264
    206  O        -25.1350   21.0820   -0.4680 O.2   137  PHE137     -0.2867
    207  CB       -24.7860   21.0090   -3.7500 C.3   137  PHE137      0.0534
    208  CG       -24.1910   20.5200   -5.0410 C.ar  137  PHE137     -0.0203
    209  CD1      -23.0320   21.0950   -5.5460 C.ar  137  PHE137     -0.0042
    210  CD2      -24.7970   19.4990   -5.7630 C.ar  137  PHE137     -0.0042
    211  CE1      -22.4820   20.6540   -6.7380 C.ar  137  PHE137     -0.0003
    212  CE2      -24.2520   19.0540   -6.9560 C.ar  137  PHE137     -0.0003
    213  CZ       -23.0930   19.6330   -7.4450 C.ar  137  PHE137     -0.0000
@<TRIPOS>BOND
     1   134   133    2
     2   133   132    1
     3   122   121    2
     4   121   120    1
     5   132   131    1
     6   132   135    1
     7   141   140   ar
     8   141   139   ar
     9   140   138   ar
    10   119   120    1
    11   138   136   ar
    12   139   137   ar
    13   136   137   ar
    14   136   135    1
    15   120   123    1
    16    94    93    1
    17    93    95    1
    18    93    90    1
    19    92    91    2
    20    91    90    1
    21    91    96   am
    22    98    97    1
    23    98    99    2
    24    97    96    1
    25   103   102    2
    26   114   113    2
    27   102   101    1
    28    90    89    1
    29   113   112    1
    30   123   124    1
    31   100   101    1
    32    89    83   am
    33   126   124   ar
    34   126   128   ar
    35   124   125   ar
    36   128   129   ar
    37   125   127   ar
    38   101   104    1
    39   129   127   ar
    40   129   130    1
    41   142   143    1
    42   112   111    1
    43   112   115    1
    44    82    83    1
    45    82    85    1
    46    82    81    1
    47    83    84    2
    48    86    85    1
    49    86    87    1
    50    88    87    1
    51   104   105    1
    52   143   144    1
    53   143   146    1
    54   145   144    2
    55    55    54    2
    56    63    61    1
    57   116   115    1
    58   116   117    1
    59   148   147   ar
    60    52    53    1
    61   105   107   ar
    62   105   106   ar
    63   172   171    2
    64   147   146    1
    65   147   149   ar
    66   107   109   ar
    67    54    53    1
    68    54    57   am
    69     8     6    1
    70    61    58    1
    71    61    62    1
    72   106   108   ar
    73    77    78    1
    74    77    80    1
    75    77    76    1
    76    78    79    2
    77    53    56    1
    78    58    57    1
    79    58    59    1
    80   109   110   ar
    81   117   118    1
    82   179   177    1
    83   171   170    1
    84   108   110   ar
    85   176   177    2
    86   176   175    1
    87   177   178    1
    88     5     6    1
    89     5     2    1
    90     6     7    1
    91   173   174    1
    92   173   170    1
    93   175   174    1
    94    67    66    2
    95   170   169    1
    96    64    59   am
    97    64    65    1
    98    59    60    2
    99    74    73    1
   100   150   151    1
   101     1     2    1
   102     4     3    2
   103   154   151    1
   104   154   155    1
   105     2     3    1
   106    66    65    1
   107    68    65    1
   108    75    73    1
   109   191   190    1
   110     3     9   am
   111   151   152    1
   112    73    70    1
   113    43    42    1
   114    43    44    2
   115   155   156   ar
   116   155   157   ar
   117    72    71    2
   118   153   152    2
   119   189   190   ar
   120   189   187   ar
   121     9    10    1
   122   156   158   ar
   123   190   188   ar
   124    42    41    1
   125    42    45    1
   126    27    25    1
   127   157   159   ar
   128    48    50   ar
   129    48    46   ar
   130    71    70    1
   131    50    51   ar
   132    10    11    1
   133    10    13    1
   134    70    69    1
   135    15    17   ar
   136    15    14   ar
   137    25    26    1
   138    25    24    1
   139   158   159   ar
   140    17    19   ar
   141   187   185   ar
   142    45    46    1
   143    46    47   ar
   144    11    20   am
   145    11    12    2
   146   188   186   ar
   147    51    49   ar
   148    20    21    1
   149    13    14    1
   150    14    16   ar
   151    47    49   ar
   152    21    24    1
   153    21    22    1
   154    19    18   ar
   155   185   186   ar
   156   185   184    1
   157   168   166   am
   158    38    37    1
   159    38    39    2
   160    37    40    1
   161    37    36    1
   162    16    18   ar
   163   184   181    1
   164    22    23    2
   165   166   165    1
   166   166   167    2
   167   201   202   ar
   168   201   199   ar
   169   180   181    1
   170   165   164    1
   171   202   200   ar
   172    34    32    1
   173   181   182    1
   174   183   182    2
   175   199   197   ar
   176    33    32    1
   177    33    35    1
   178   213   212   ar
   179   213   211   ar
   180    29    32    1
   181    29    30    1
   182    29    28    1
   183    30    31    2
   184   200   198   ar
   185   164   161    1
   186   212   210   ar
   187   211   209   ar
   188   197   198   ar
   189   197   196    1
   190   162   161    1
   191   162   163    2
   192   161   160    1
   193   210   208   ar
   194   196   193    1
   195   209   208   ar
   196   192   193    1
   197   208   207    1
   198   193   194    1
   199   207   204    1
   200   195   194    2
   201   204   203    1
   202   204   205    1
   203   205   206    2
