@<TRIPOS>MOLECULE
tmp/4o9vA00.pdb
 124 125 0 0 0
SMALL
GASTEIGER

@<TRIPOS>ATOM
      1  N          3.0480   18.3080    5.4180 N.3    10  GLY10      -0.1210
      2  CA         4.1190   19.2260    4.9440 C.3    10  GLY10       0.1956
      3  C          4.5120   20.3810    5.8860 C.2    10  GLY10       0.2612
      4  O          5.1640   21.3870    5.4650 O.2    10  GLY10      -0.2717
      5  N          4.0740   20.3010    7.1300 N.am   11  GLU11      -0.1965
      6  CA         4.2550   21.4290    8.1000 C.3    11  GLU11       0.1733
      7  C          5.7280   21.4610    8.5070 C.2    11  GLU11       0.2616
      8  O          6.2460   22.5220    8.7950 O.2    11  GLU11      -0.2715
      9  CB         3.3800   21.2700    9.3310 C.3    11  GLU11       0.0429
     10  CG         3.4500   22.4650   10.2940 C.3    11  GLU11       0.1163
     11  CD         2.5270   22.3070   11.5170 C.2    11  GLU11       0.3649
     12  OE1        2.0020   21.2100   11.7920 O.co2  11  GLU11      -0.2457
     13  OE2        2.2970   23.2990   12.2380 O.co2  11  GLU11      -0.2457
     14  N          6.3880   20.3110    8.5420 N.am   12  TRP12      -0.1960
     15  CA         7.8410   20.2540    8.8520 C.3    12  TRP12       0.1756
     16  C          8.6090   19.5630    7.7220 C.2    12  TRP12       0.2462
     17  O          9.0420   18.4290    7.8830 O.2    12  TRP12      -0.2730
     18  CB         7.9710   19.4700   10.1800 C.3    12  TRP12       0.0590
     19  CG         6.9480   19.9600   11.1980 C.ar   12  TRP12       0.0006
     20  CD1        5.6720   19.4620   11.4540 C.ar   12  TRP12       0.0946
     21  CD2        7.0790   21.1580   12.0340 C.ar   12  TRP12       0.0152
     22  NE1        5.0240   20.2400   12.4180 N.ar   12  TRP12      -0.2442
     23  CE2        5.8390   21.2700   12.8080 C.ar   12  TRP12       0.0810
     24  CE3        8.0930   22.1070   12.2380 C.ar   12  TRP12       0.0012
     25  CZ2        5.6430   22.3100   13.7510 C.ar   12  TRP12       0.0191
     26  CZ3        7.8660   23.1370   13.1570 C.ar   12  TRP12       0.0001
     27  CH2        6.6790   23.2260   13.8990 C.ar   12  TRP12       0.0015
     28  N          8.8270   20.2680    6.5710 N.am   13  PRO13      -0.2716
     29  CA         9.3500   19.6090    5.3910 C.3    13  PRO13       0.1536
     30  C         10.8650   19.2320    5.4670 C.2    13  PRO13       0.2598
     31  O         11.3900   18.5470    4.5660 O.2    13  PRO13      -0.2715
     32  CB         8.9840   20.5890    4.2400 C.3    13  PRO13       0.0310
     33  CG         9.0490   21.9650    4.9090 C.3    13  PRO13       0.0237
     34  CD         8.4600   21.6830    6.3140 C.3    13  PRO13       0.0939
     35  N         11.5090   19.6210    6.5720 N.am   14  TRP14      -0.1974
     36  CA        12.8740   19.1830    6.8940 C.3    14  TRP14       0.1640
     37  C         12.9240   17.9720    7.7800 C.2    14  TRP14       0.2290
     38  O         14.0150   17.4110    7.9650 O.2    14  TRP14      -0.2864
     39  CB        13.6500   20.3080    7.6220 C.3    14  TRP14       0.0576
     40  CG        12.7690   21.0800    8.5750 C.ar   14  TRP14       0.0006
     41  CD1       12.4600   20.7830    9.8990 C.ar   14  TRP14       0.0946
     42  CD2       11.9920   22.2800    8.2490 C.ar   14  TRP14       0.0152
     43  NE1       11.5710   21.7200   10.4110 N.ar   14  TRP14      -0.2442
     44  CE2       11.2500   22.6350    9.4510 C.ar   14  TRP14       0.0810
     45  CE3       11.8650   23.0790    7.1040 C.ar   14  TRP14       0.0012
     46  CZ2       10.4370   23.7790    9.5090 C.ar   14  TRP14       0.0191
     47  CZ3       11.0150   24.1920    7.1680 C.ar   14  TRP14       0.0001
     48  CH2       10.3450   24.5390    8.3530 C.ar   14  TRP14       0.0015
     49  N          7.2470   21.1930   -2.1790 N.3   111  SER111     -0.1217
     50  CA         6.5510   21.8670   -1.0730 C.3   111  SER111      0.1889
     51  C          6.6310   20.9750    0.2000 C.2   111  SER111      0.2288
     52  O          6.4410   21.4450    1.3010 O.2   111  SER111     -0.2866
     53  CB         5.1200   22.1230   -1.4220 C.3   111  SER111      0.2089
     54  OG         4.5470   20.8470   -1.6570 O.3   111  SER111     -0.2183
     55  N         12.0780   20.2730    2.1260 N.3   114  ARG114     -0.1231
     56  CA        12.7950   21.5830    2.1800 C.3   114  ARG114      0.1679
     57  C         13.7580   21.6630    3.3700 C.2   114  ARG114      0.2434
     58  O         13.4570   21.1290    4.4400 O.2   114  ARG114     -0.2733
     59  CB        11.7780   22.7030    2.2880 C.3   114  ARG114      0.0321
     60  CG        12.3900   24.0580    2.6300 C.3   114  ARG114      0.0489
     61  CD        11.2080   24.9690    2.9200 C.3   114  ARG114      0.2205
     62  NE        11.4830   26.4040    3.0210 N.pl3 114  ARG114     -0.0865
     63  CZ        11.3590   27.2810    2.0160 C.cat 114  ARG114      0.5346
     64  NH1       11.0470   26.8670    0.7860 N.pl3 114  ARG114      0.1354
     65  NH2       11.6010   28.5750    2.2360 N.pl3 114  ARG114      0.1354
     66  N         14.9480   22.2820    3.1950 N.am  115  PRO115     -0.2718
     67  CA        15.8860   22.2670    4.3090 C.3   115  PRO115      0.1535
     68  C         15.5060   23.2460    5.4130 C.2   115  PRO115      0.2598
     69  O         14.8630   24.2980    5.2020 O.2   115  PRO115     -0.2715
     70  CB        17.1870   22.7370    3.6380 C.3   115  PRO115      0.0310
     71  CG        16.7070   23.7140    2.6400 C.3   115  PRO115      0.0237
     72  CD        15.5840   22.9020    2.0260 C.3   115  PRO115      0.0939
     73  N         15.8950   22.8690    6.6150 N.am  116  ILE116     -0.1964
     74  CA        15.7920   23.7290    7.7800 C.3   116  ILE116      0.1727
     75  C         16.9610   24.7180    7.7460 C.2   116  ILE116      0.2616
     76  O         18.0270   24.3710    7.2350 O.2   116  ILE116     -0.2715
     77  CB        15.7950   22.7920    9.0020 C.3   116  ILE116      0.0290
     78  CG1       15.2550   23.4220   10.2710 C.3   116  ILE116      0.0022
     79  CG2       17.1430   22.0900    9.2720 C.3   116  ILE116      0.0023
     80  CD1       15.6950   24.7460   10.5240 C.3   116  ILE116      0.0001
     81  N         16.8200   25.9240    8.3030 N.am  117  CYS117     -0.1968
     82  CA        18.0010   26.8020    8.3050 C.3   117  CYS117      0.1712
     83  C         18.9430   26.4250    9.4180 C.2   117  CYS117      0.2296
     84  O         18.5010   26.0150   10.5190 O.2   117  CYS117     -0.2864
     85  CB        17.6380   28.3010    8.4460 C.3   117  CYS117      0.0983
     86  SG        16.4300   28.8850    7.2580 S.3   117  CYS117     -0.0798
     87  N         11.2290   29.1430   15.5550 N.3   198  VAL198     -0.1245
     88  CA        10.7170   30.2410   14.6550 C.3   198  VAL198      0.1561
     89  C         11.5310   31.4730   14.9750 C.2   198  VAL198      0.2260
     90  O         11.5570   31.9560   16.1070 O.2   198  VAL198     -0.2867
     91  CB         9.2020   30.5530   14.8870 C.3   198  VAL198      0.0252
     92  CG1        8.7890   31.7210   13.9740 C.3   198  VAL198      0.0019
     93  CG2        8.3380   29.3130   14.5670 C.3   198  VAL198      0.0019
     94  N         12.1170   36.5270   11.2500 N.3   201  ASP201     -0.1225
     95  CA        11.3100   36.7710   10.0420 C.3   201  ASP201      0.1805
     96  C         10.4170   35.5590    9.8290 C.2   201  ASP201      0.2598
     97  O          9.9150   35.3710    8.7440 O.2   201  ASP201     -0.2718
     98  CB        12.2500   37.0630    8.8790 C.3   201  ASP201      0.1424
     99  CG        13.1090   35.8850    8.5230 C.2   201  ASP201      0.3668
    100  OD1       13.7840   35.9700    7.5060 O.co2 201  ASP201     -0.2456
    101  OD2       13.1070   34.8840    9.2640 O.co2 201  ASP201     -0.2456
    102  N         10.2450   34.7360   10.8920 N.am  202  GLY202     -0.1942
    103  CA         9.3990   33.5580   10.8120 C.3   202  GLY202      0.2014
    104  C         10.0210   32.3060   10.1590 C.2   202  GLY202      0.2639
    105  O          9.3610   31.2680   10.0730 O.2   202  GLY202     -0.2714
    106  N         11.2500   32.4120    9.6550 N.am  203  ARG203     -0.1963
    107  CA        11.9280   31.2430    9.0850 C.3   203  ARG203      0.1729
    108  C         12.3610   30.3570   10.2430 C.2   203  ARG203      0.2616
    109  O         12.6380   30.8500   11.3400 O.2   203  ARG203     -0.2715
    110  CB        13.1540   31.6580    8.2480 C.3   203  ARG203      0.0348
    111  CG        12.8100   32.3070    6.9130 C.3   203  ARG203      0.0492
    112  CD        13.8680   33.4000    6.7220 C.3   203  ARG203      0.2205
    113  NE        14.9470   32.7520    6.1250 N.pl3 203  ARG203     -0.0865
    114  CZ        16.2210   32.7350    6.4590 C.cat 203  ARG203      0.5346
    115  NH1       16.8150   33.4980    7.3720 N.pl3 203  ARG203      0.1354
    116  NH2       16.9410   31.9750    5.7060 N.pl3 203  ARG203      0.1354
    117  N         12.3310   29.0470   10.0170 N.am  204  ILE204     -0.1977
    118  CA        12.6630   28.0660   11.0650 C.3   204  ILE204      0.1596
    119  C         14.1250   27.6650   11.0110 C.2   204  ILE204      0.2287
    120  O         14.6810   27.3010    9.9280 O.2   204  ILE204     -0.2864
    121  CB        11.6830   26.8740   11.0690 C.3   204  ILE204      0.0276
    122  CG1       10.3400   27.4390   11.6350 C.3   204  ILE204      0.0022
    123  CG2       12.2500   25.7330   11.9350 C.3   204  ILE204      0.0022
    124  CD1        9.1270   26.7240   11.1180 C.3   204  ILE204      0.0001
@<TRIPOS>BOND
     1    49    50    1
     2    54    53    1
     3    53    50    1
     4    50    51    1
     5    51    52    2
     6    64    63    1
     7    63    65    1
     8    63    62    2
     9    72    71    1
    10    72    66    1
    11    55    56    1
    12    56    59    1
    13    56    57    1
    14    59    60    1
    15    60    61    1
    16    71    70    1
    17    61    62    1
    18    66    57   am
    19    66    67    1
    20    57    58    2
    21    70    67    1
    22    32    33    1
    23    32    29    1
    24    67    68    1
    25    31    30    2
    26    33    34    1
    27     2     1    1
    28     2     3    1
    29    69    68    2
    30    29    30    1
    31    29    28    1
    32    68    73   am
    33     4     3    2
    34    30    35   am
    35   116   114    1
    36     3     5   am
    37   113   114    2
    38   113   112    1
    39    34    28    1
    40   114   115    1
    41    28    16   am
    42    35    36    1
    43    73    74    1
    44   112   111    1
    45    36    39    1
    46    36    37    1
    47   111   110    1
    48    45    47   ar
    49    45    42   ar
    50     5     6    1
    51    47    48   ar
    52    76    75    2
    53    86    85    1
    54   100    99   ar
    55    39    40    1
    56    16    17    2
    57    16    15    1
    58    75    74    1
    59    75    81   am
    60    37    38    2
    61    74    77    1
    62     6     7    1
    63     6     9    1
    64   110   107    1
    65    42    40   ar
    66    42    44   ar
    67    81    82    1
    68    82    85    1
    69    82    83    1
    70    48    46   ar
    71     7    14   am
    72     7     8    2
    73    99    98    1
    74    99   101   ar
    75    14    15    1
    76    40    41   ar
    77    97    96    2
    78    15    18    1
    79    98    95    1
    80    77    79    1
    81    77    78    1
    82   107   106    1
    83   107   108    1
    84     9    10    1
    85    83    84    2
    86    44    46   ar
    87    44    43   ar
    88   106   104   am
    89    96    95    1
    90    96   102   am
    91    41    43   ar
    92   120   119    2
    93   117   108   am
    94   117   118    1
    95    95    94    1
    96   105   104    2
    97   104   103    1
    98    18    19    1
    99   108   109    2
   100    78    80    1
   101    10    11    1
   102   103   102    1
   103   119   118    1
   104   118   121    1
   105   121   122    1
   106   121   123    1
   107   124   122    1
   108    19    20   ar
   109    19    21   ar
   110    20    22   ar
   111    11    12   ar
   112    11    13   ar
   113    21    24   ar
   114    21    23   ar
   115    24    26   ar
   116    22    23   ar
   117    23    25   ar
   118    26    27   ar
   119    25    27   ar
   120    92    91    1
   121    93    91    1
   122    88    91    1
   123    88    89    1
   124    88    87    1
   125    89    90    2
