@<TRIPOS>MOLECULE
tmp/4o9vA01.pdb
 214 212 0 0 0
SMALL
GASTEIGER

@<TRIPOS>ATOM
      1  N         23.8340    8.5500   18.4760 N.3    42  HIS42      -0.1226
      2  CA        23.3950    7.3590   19.2340 C.3    42  HIS42       0.1752
      3  C         22.5290    6.3980   18.4220 C.2    42  HIS42       0.2596
      4  O         22.3720    5.2300   18.8020 O.2    42  HIS42      -0.2718
      5  CB        22.7390    7.7130   20.5950 C.3    42  HIS42       0.0759
      6  CG        21.2990    8.1360   20.5200 C.ar   42  HIS42       0.0818
      7  ND1       20.9220    9.4430   20.5840 N.ar   42  HIS42      -0.2268
      8  CD2       20.1190    7.3890   20.4350 C.ar   42  HIS42       0.1154
      9  CE1       19.5820    9.5270   20.4420 C.ar   42  HIS42       0.1986
     10  NE2       19.0840    8.2720   20.4150 N.ar   42  HIS42      -0.2212
     11  N         21.9910    6.8650   17.3010 N.am   43  CYS43      -0.1970
     12  CA        21.1600    6.0080   16.4170 C.3    43  CYS43       0.1712
     13  C         22.0140    5.0360   15.5970 C.2    43  CYS43       0.2296
     14  O         21.4830    4.0500   15.1260 O.2    43  CYS43      -0.2864
     15  CB        20.3320    6.8480   15.4090 C.3    43  CYS43       0.0983
     16  SG        19.1650    7.9590   16.1990 S.3    43  CYS43      -0.0798
     17  N         24.9270    3.0900   16.2450 N.3    45  ILE45      -0.1231
     18  CA        25.8940    2.2240   16.9620 C.3    45  ILE45       0.1692
     19  C         25.6750    0.7410   16.6580 C.2    45  ILE45       0.2592
     20  O         24.5660    0.2490   16.9100 O.2    45  ILE45      -0.2718
     21  CB        25.7500    2.3540   18.5100 C.3    45  ILE45       0.0266
     22  CG1       25.7320    3.8180   18.9640 C.3    45  ILE45       0.0019
     23  CG2       26.7810    1.4950   19.2500 C.3    45  ILE45       0.0020
     24  CD1       26.4410    4.8350   18.0800 C.3    45  ILE45       0.0001
     25  N         26.6690    0.0430   16.2490 N.am   46  ASP46      -0.1960
     26  CA        26.4150   -1.3820   15.9920 C.3    46  ASP46       0.1840
     27  C         25.8780   -2.0710   17.2340 C.2    46  ASP46       0.2622
     28  O         26.4190   -1.8970   18.3310 O.2    46  ASP46      -0.2715
     29  CB        27.6770   -2.0500   15.4800 C.3    46  ASP46       0.1450
     30  CG        28.0270   -1.6190   14.0670 C.2    46  ASP46       0.3671
     31  OD1       27.1780   -1.0330   13.3640 O.co2  46  ASP46      -0.2456
     32  OD2       29.1660   -1.8610   13.6660 O.co2  46  ASP46      -0.2456
     33  N         24.9240   -3.0470   17.0270 N.am   47  ASP47      -0.1971
     34  CA        24.9430   -3.9050   18.2100 C.3    47  ASP47       0.1709
     35  C         25.1980   -5.3130   17.7620 C.2    47  ASP47       0.2293
     36  O         25.5090   -5.5450   16.6150 O.2    47  ASP47      -0.2864
     37  CB        23.6500   -3.8440   18.9820 C.3    47  ASP47       0.1436
     38  CG        22.4540   -4.4180   18.2050 C.2    47  ASP47       0.3671
     39  OD1       22.6450   -5.2600   17.3020 O.co2  47  ASP47      -0.2456
     40  OD2       21.2940   -3.9880   18.5030 O.co2  47  ASP47      -0.2456
     41  N         23.9690   -1.0170   12.9130 N.3    52  TYR52      -0.1241
     42  CA        23.3520    0.3270   12.7370 C.3    52  TYR52       0.1605
     43  C         24.3800    1.3260   12.2620 C.2    52  TYR52       0.2264
     44  O         24.0580    2.4100   11.7570 O.2    52  TYR52      -0.2867
     45  CB        22.7910    0.8110   14.0390 C.3    52  TYR52       0.0534
     46  CG        21.6400   -0.0550   14.4450 C.ar   52  TYR52      -0.0201
     47  CD1       20.4070    0.1380   13.8490 C.ar   52  TYR52      -0.0009
     48  CD2       21.8060   -1.1160   15.3510 C.ar   52  TYR52      -0.0009
     49  CE1       19.3200   -0.6450   14.2080 C.ar   52  TYR52       0.0417
     50  CE2       20.7370   -1.9390   15.7170 C.ar   52  TYR52       0.0417
     51  CZ        19.4890   -1.6810   15.1060 C.ar   52  TYR52       0.1957
     52  OH        18.3640   -2.3740   15.3810 O.3    52  TYR52      -0.2866
     53  N         29.4370    7.3070   23.9300 N.3    91  ASP91      -0.1225
     54  CA        28.4530    6.2310   24.2440 C.3    91  ASP91       0.1805
     55  C         27.7140    6.3490   25.5920 C.2    91  ASP91       0.2598
     56  O         26.5140    5.9310   25.7590 O.2    91  ASP91      -0.2718
     57  CB        29.3320    4.9260   24.4460 C.3    91  ASP91       0.1424
     58  CG        28.9350    3.7940   23.5680 C.2    91  ASP91       0.3668
     59  OD1       29.3100    2.6420   23.8550 O.co2  91  ASP91      -0.2456
     60  OD2       28.2510    4.0200   22.5610 O.co2  91  ASP91      -0.2456
     61  N         28.4930    6.7310   26.6040 N.am   92  PHE92      -0.1962
     62  CA        28.1040    6.5960   28.0030 C.3    92  PHE92       0.1771
     63  C         27.3980    7.8450   28.4930 C.2    92  PHE92       0.2620
     64  O         26.3720    7.7650   29.1170 O.2    92  PHE92      -0.2715
     65  CB        29.3310    6.4100   28.8900 C.3    92  PHE92       0.0574
     66  CG        28.9990    6.0120   30.3260 C.ar   92  PHE92      -0.0200
     67  CD1       29.1810    6.9010   31.3830 C.ar   92  PHE92      -0.0042
     68  CD2       28.5430    4.6970   30.6260 C.ar   92  PHE92      -0.0042
     69  CE1       28.9360    6.4890   32.7090 C.ar   92  PHE92      -0.0003
     70  CE2       28.2800    4.3030   31.9400 C.ar   92  PHE92      -0.0003
     71  CZ        28.4750    5.2210   32.9950 C.ar   92  PHE92      -0.0000
     72  N         27.9640    9.0050   28.1960 N.am   93  THR93      -0.1937
     73  CA        27.3640   10.2640   28.6230 C.3    93  THR93       0.2028
     74  C         26.4690   10.8820   27.5280 C.2    93  THR93       0.2642
     75  O         25.6590   11.7880   27.8310 O.2    93  THR93      -0.2714
     76  CB        28.4730   11.2890   28.9430 C.3    93  THR93       0.1808
     77  OG1       29.2670   11.4840   27.7690 O.3    93  THR93      -0.2208
     78  CG2       29.3980   10.7760   30.0390 C.3    93  THR93       0.0379
     79  N         26.5660   10.3880   26.2940 N.am   94  PHE94      -0.1973
     80  CA        25.9070   11.0450   25.1720 C.3    94  PHE94       0.1639
     81  C         26.4240   12.4780   24.9130 C.2    94  PHE94       0.2290
     82  O         25.7980   13.2640   24.2100 O.2    94  PHE94      -0.2864
     83  CB        24.3700   11.0150   25.2910 C.3    94  PHE94       0.0560
     84  CG        23.7270    9.7470   24.7730 C.ar   94  PHE94      -0.0200
     85  CD1       24.3510    8.4960   24.8970 C.ar   94  PHE94      -0.0042
     86  CD2       22.4200    9.7880   24.2680 C.ar   94  PHE94      -0.0042
     87  CE1       23.6820    7.3370   24.4860 C.ar   94  PHE94      -0.0003
     88  CE2       21.7830    8.6460   23.8510 C.ar   94  PHE94      -0.0003
     89  CZ        22.4010    7.4330   23.9670 C.ar   94  PHE94      -0.0000
     90  N         25.3830   14.7310   34.6710 N.3   169  GLN169     -0.1245
     91  CA        25.0140   14.2780   33.3530 C.3   169  GLN169      0.1566
     92  C         24.9300   15.3170   32.2410 C.2   169  GLN169      0.2260
     93  O         24.8080   14.9170   31.1060 O.2   169  GLN169     -0.2867
     94  CB        23.6860   13.5400   33.3950 C.3   169  GLN169      0.0367
     95  CG        23.7400   12.2950   34.2880 C.3   169  GLN169      0.0905
     96  CD        22.3980   11.6450   34.3550 C.2   169  GLN169      0.2608
     97  OE1       22.0400   10.8920   33.4630 O.2   169  GLN169     -0.2717
     98  NE2       21.6610   11.8950   35.4230 N.am  169  GLN169     -0.0878
     99  N          7.1520   16.4550   25.6860 N.3   185  ASP185     -0.1225
    100  CA         8.5390   15.9760   25.6610 C.3   185  ASP185      0.1805
    101  C          8.7240   15.1290   24.4330 C.2   185  ASP185      0.2598
    102  O          7.7350   14.6060   23.8570 O.2   185  ASP185     -0.2718
    103  CB         8.8450   15.1250   26.9030 C.3   185  ASP185      0.1424
    104  CG        10.3670   14.9710   27.2100 C.2   185  ASP185      0.3668
    105  OD1       11.2010   15.5450   26.4900 O.co2 185  ASP185     -0.2456
    106  OD2       10.7040   14.2370   28.1720 O.co2 185  ASP185     -0.2456
    107  N          9.9680   14.9270   24.0420 N.am  186  SER186     -0.1938
    108  CA        10.2060   13.9110   23.0550 C.3   186  SER186      0.2055
    109  C         10.3290   12.5930   23.7650 C.2   186  SER186      0.2643
    110  O         10.3420   12.5400   25.0240 O.2   186  SER186     -0.2714
    111  CB        11.4740   14.1700   22.1850 C.3   186  SER186      0.2130
    112  OG        12.5410   14.6560   22.9300 O.3   186  SER186     -0.2179
    113  N         10.4660   11.5390   22.9940 N.am  187  CYS187     -0.1953
    114  CA        10.5330   10.2090   23.5960 C.3   187  CYS187      0.1843
    115  C         11.2990    9.2190   22.6560 C.2   187  CYS187      0.2625
    116  O         11.6820    9.6060   21.5660 O.2   187  CYS187     -0.2714
    117  CB         9.0450    9.8050   23.9790 C.3   187  CYS187      0.0997
    118  SG         8.9750    8.4690   25.2010 S.3   187  CYS187     -0.0797
    119  N         11.5680    7.9730   23.0740 N.am  188  GLN188     -0.1977
    120  CA        12.0860    6.9330   22.1710 C.3   188  GLN188      0.1601
    121  C         11.5140    7.0520   20.7430 C.2   188  GLN188      0.2287
    122  O         10.3070    7.1690   20.5570 O.2   188  GLN188     -0.2864
    123  CB        11.8020    5.5120   22.7310 C.3   188  GLN188      0.0394
    124  CG        12.4330    4.3970   21.8530 C.3   188  GLN188      0.0908
    125  CD        12.1280    2.9460   22.3200 C.2   188  GLN188      0.2608
    126  OE1       12.1380    1.9600   21.5160 O.2   188  GLN188     -0.2717
    127  NE2       11.8280    2.8070   23.5830 N.am  188  GLN188     -0.0878
    128  N         14.5250   10.3740   18.6550 N.3   191  SER191     -0.1217
    129  CA        15.9910   10.5280   18.6200 C.3   191  SER191      0.1889
    130  C         16.4380   11.0050   17.2200 C.2   191  SER191      0.2288
    131  O         16.0400   10.4030   16.1890 O.2   191  SER191     -0.2866
    132  CB        16.6620    9.1610   18.8120 C.3   191  SER191      0.2089
    133  OG        16.4420    8.5620   20.0840 O.3   191  SER191     -0.2183
    134  N         17.2790   15.8260   18.9840 N.3   210  VAL210     -0.1231
    135  CA        16.7410   14.9690   20.0620 C.3   210  VAL210      0.1692
    136  C         17.8070   13.9670   20.5080 C.2   210  VAL210      0.2593
    137  O         18.2970   13.1510   19.6650 O.2   210  VAL210     -0.2718
    138  CB        15.4630   14.1930   19.6330 C.3   210  VAL210      0.0266
    139  CG1       14.9120   13.3780   20.7710 C.3   210  VAL210      0.0020
    140  CG2       14.4230   15.1920   19.0880 C.3   210  VAL210      0.0020
    141  N         18.1450   14.0030   21.8020 N.am  211  SER211     -0.1938
    142  CA        19.2860   13.1560   22.2890 C.3   211  SER211      0.2055
    143  C         18.8800   12.1270   23.3760 C.2   211  SER211      0.2643
    144  O         18.8810   10.9190   23.1210 O.2   211  SER211     -0.2714
    145  CB        20.5060   14.0180   22.7450 C.3   211  SER211      0.2130
    146  OG        21.5850   13.2050   23.2660 O.3   211  SER211     -0.2179
    147  N         18.5040   12.5970   24.5540 N.am  212  TRP212     -0.1959
    148  CA        18.0660   11.6390   25.5620 C.3   212  TRP212      0.1771
    149  C         17.1780   12.2680   26.5830 C.2   212  TRP212      0.2620
    150  O         16.9690   13.4570   26.5420 O.2   212  TRP212     -0.2715
    151  CB        19.2960   10.9880   26.2100 C.3   212  TRP212      0.0590
    152  CG        20.1820   11.9610   26.9240 C.ar  212  TRP212      0.0006
    153  CD1       21.1920   12.7480   26.3730 C.ar  212  TRP212      0.0946
    154  CD2       20.1590   12.2860   28.3570 C.ar  212  TRP212      0.0152
    155  NE1       21.8410   13.4830   27.3760 N.ar  212  TRP212     -0.2442
    156  CE2       21.2420   13.2480   28.5830 C.ar  212  TRP212      0.0810
    157  CE3       19.4270   11.8200   29.4630 C.ar  212  TRP212      0.0012
    158  CZ2       21.5410   13.7230   29.8570 C.ar  212  TRP212      0.0191
    159  CZ3       19.7430   12.3300   30.7300 C.ar  212  TRP212      0.0001
    160  CH2       20.7730   13.2530   30.9110 C.ar  212  TRP212      0.0015
    161  N         16.6810   11.4860   27.5630 N.am  213  GLY213     -0.1940
    162  CA        15.9010   12.0350   28.6790 C.3   213  GLY213      0.2014
    163  C         15.7050   10.8500   29.6280 C.2   213  GLY213      0.2639
    164  O         15.9070    9.6950   29.2430 O.2   213  GLY213     -0.2714
    165  N         15.3950   11.1390   30.8640 N.am  214  ASP214     -0.1957
    166  CA        15.1160   10.0790   31.8330 C.3   214  ASP214      0.1840
    167  C         13.6140    9.7880   31.7170 C.2   214  ASP214      0.2623
    168  O         12.7530   10.5800   32.1580 O.2   214  ASP214     -0.2715
    169  CB        15.4750   10.4950   33.2550 C.3   214  ASP214      0.1450
    170  CG        15.0720    9.4310   34.3020 C.2   214  ASP214      0.3671
    171  OD1       14.5270    8.3580   33.9370 O.co2 214  ASP214     -0.2456
    172  OD2       15.3260    9.6520   35.5060 O.co2 214  ASP214     -0.2456
    173  N         12.9690    8.5730   31.0990 N.am  215  GLY215     -0.1940
    174  CA        11.5370    8.4590   30.7620 C.3   215  GLY215      0.2014
    175  C         11.1720    9.5830   29.7970 C.2   215  GLY215      0.2639
    176  O         12.0550   10.1210   29.0670 O.2   215  GLY215     -0.2714
    177  N          9.8940    9.9460   29.7820 N.am  216  CYS216     -0.1967
    178  CA         9.4350   10.9500   28.8200 C.3   216  CYS216      0.1712
    179  C          8.3310   11.7190   29.5240 C.2   216  CYS216      0.2296
    180  O          7.4450   11.0840   30.1410 O.2   216  CYS216     -0.2864
    181  CB         8.8960   10.2750   27.5600 C.3   216  CYS216      0.0983
    182  SG        10.0640    9.1490   26.7650 S.3   216  CYS216     -0.0798
    183  N         12.1420   16.1910   34.7900 N.3   221  LYS221     -0.1245
    184  CA        12.9400   15.4470   33.7870 C.3   221  LYS221      0.1561
    185  C         12.7470   15.8930   32.3050 C.2   221  LYS221      0.2260
    186  O         12.2530   15.1170   31.4800 O.2   221  LYS221     -0.2867
    187  CB        12.7140   13.9300   33.9440 C.3   221  LYS221      0.0271
    188  CG        13.0580   13.4960   35.3870 C.3   221  LYS221      0.0035
    189  CD        12.6370   12.0600   35.6650 C.3   221  LYS221      0.0206
    190  CE        13.2340   11.5100   36.9830 C.3   221  LYS221      0.1093
    191  NZ        14.4310   12.3410   37.3580 N.3   221  LYS221     -0.1314
    192  N         13.5390   16.8930   28.4010 N.3   223  GLY223     -0.1210
    193  CA        14.3200   16.2540   27.3930 C.3   223  GLY223      0.1956
    194  C         15.6400   16.9820   27.2540 C.2   223  GLY223      0.2612
    195  O         15.7170   18.1820   27.4490 O.2   223  GLY223     -0.2717
    196  N         16.6700   16.2430   26.8490 N.am  224  VAL224     -0.1965
    197  CA        18.0340   16.8240   26.6700 C.3   224  VAL224      0.1727
    198  C         18.3700   16.7510   25.2060 C.2   224  VAL224      0.2616
    199  O         18.1600   15.6780   24.5940 O.2   224  VAL224     -0.2715
    200  CB        19.0690   16.0240   27.4410 C.3   224  VAL224      0.0290
    201  CG1       20.3900   16.7460   27.3850 C.3   224  VAL224      0.0023
    202  CG2       18.6350   15.8960   28.9080 C.3   224  VAL224      0.0023
    203  N         18.8710   17.8520   24.6330 N.am  225  TYR225     -0.1974
    204  CA        19.1090   17.9550   23.1990 C.3   225  TYR225      0.1639
    205  C         20.5600   18.4110   22.9890 C.2   225  TYR225      0.2290
    206  O         21.1230   19.1810   23.7910 O.2   225  TYR225     -0.2864
    207  CB        18.1550   19.0120   22.6290 C.3   225  TYR225      0.0560
    208  CG        16.6820   18.6020   22.8050 C.ar  225  TYR225     -0.0198
    209  CD1       16.0290   18.7260   24.0290 C.ar  225  TYR225     -0.0009
    210  CD2       15.9750   18.0740   21.7440 C.ar  225  TYR225     -0.0009
    211  CE1       14.6610   18.3810   24.1510 C.ar  225  TYR225      0.0417
    212  CE2       14.6200   17.6720   21.8810 C.ar  225  TYR225      0.0417
    213  CZ        13.9790   17.8420   23.0780 C.ar  225  TYR225      0.1957
    214  OH        12.6320   17.4520   23.2050 O.3   225  TYR225     -0.2866
@<TRIPOS>BOND
     1    44    43    2
     2    43    42    1
     3    42    41    1
     4    42    45    1
     5    31    30   ar
     6    32    30   ar
     7    47    49   ar
     8    47    46   ar
     9    45    46    1
    10    30    29    1
    11    49    51   ar
    12    46    48   ar
    13    51    52    1
    14    51    50   ar
    15    14    13    2
    16    48    50   ar
    17    15    16    1
    18    15    12    1
    19    29    26    1
    20    13    12    1
    21    26    25    1
    22    26    27    1
    23   131   130    2
    24    17    18    1
    25    25    19   am
    26    12    11    1
    27    36    35    2
    28    19    20    2
    29    19    18    1
    30    18    21    1
    31    33    27   am
    32    33    34    1
    33   130   129    1
    34    27    28    2
    35    11     3   am
    36    39    38   ar
    37    35    34    1
    38    24    22    1
    39    38    40   ar
    40    38    37    1
    41    34    37    1
    42     3     4    2
    43     3     2    1
    44     1     2    1
    45    21    22    1
    46    21    23    1
    47   129   128    1
    48   129   132    1
    49   132   133    1
    50   134   135    1
    51   140   138    1
    52     2     5    1
    53   138   135    1
    54   138   139    1
    55   137   136    2
    56   135   136    1
    57    10     8   ar
    58    10     9   ar
    59     8     6   ar
    60     9     7   ar
    61   136   141   am
    62     6     7   ar
    63     6     5    1
    64   122   121    2
    65   121   120    1
    66   126   125    2
    67   116   115    2
    68   210   212   ar
    69   210   208   ar
    70   141   142    1
    71   124   125    1
    72   124   123    1
    73   212   213   ar
    74   120   123    1
    75   120   119    1
    76   111   112    1
    77   111   108    1
    78   142   145    1
    79   142   143    1
    80   125   127   am
    81    60    58   ar
    82   207   208    1
    83   207   204    1
    84   115   119   am
    85   115   114    1
    86   145   146    1
    87   208   209   ar
    88   205   204    1
    89   205   206    2
    90   113   114    1
    91   113   109   am
    92   108   109    1
    93   108   107    1
    94   213   214    1
    95   213   211   ar
    96   144   143    2
    97   204   203    1
    98   143   147   am
    99    58    59   ar
   100    58    57    1
   101   114   117    1
   102   109   110    2
   103    88    89   ar
   104    88    86   ar
   105   102   101    2
   106    53    54    1
   107    89    87   ar
   108   117   118    1
   109   209   211   ar
   110   107   101   am
   111    82    81    2
   112    54    57    1
   113    54    55    1
   114    86    84   ar
   115   101   100    1
   116    87    85   ar
   117   147   148    1
   118   199   198    2
   119   203   198   am
   120    84    85   ar
   121    84    83    1
   122    81    80    1
   123    80    83    1
   124    80    79    1
   125   118   182    1
   126   198   197    1
   127   148   151    1
   128   148   149    1
   129    55    56    2
   130    55    61   am
   131   100    99    1
   132   100   103    1
   133   151   152    1
   134    79    74   am
   135   153   152   ar
   136   153   155   ar
   137   105   104   ar
   138   150   149    2
   139   149   161   am
   140    61    62    1
   141   197   196    1
   142   197   200    1
   143   182   181    1
   144   196   194   am
   145   103   104    1
   146   152   154   ar
   147   104   106   ar
   148   194   193    1
   149   194   195    2
   150   155   156   ar
   151   201   200    1
   152   193   192    1
   153   200   202    1
   154    74    75    2
   155    74    73    1
   156   181   178    1
   157   161   162    1
   158    77    76    1
   159    62    63    1
   160    62    65    1
   161    72    63   am
   162    72    73    1
   163   154   156   ar
   164   154   157   ar
   165    63    64    2
   166   156   158   ar
   167    73    76    1
   168   162   163    1
   169   178   179    1
   170   178   177    1
   171    65    66    1
   172    76    78    1
   173   176   175    2
   174   164   163    2
   175   157   159   ar
   176   179   180    2
   177   163   165   am
   178   177   175   am
   179   175   174    1
   180   158   160   ar
   181    66    68   ar
   182    66    67   ar
   183    68    70   ar
   184   159   160   ar
   185   174   173    1
   186   165   166    1
   187   173   167   am
   188    93    92    2
   189    67    69   ar
   190   186   185    2
   191   167   166    1
   192   167   168    2
   193   166   169    1
   194    70    71   ar
   195    92    91    1
   196   185   184    1
   197    69    71   ar
   198   169   170    1
   199    91    94    1
   200    91    90    1
   201    94    95    1
   202    97    96    2
   203   184   187    1
   204   184   183    1
   205   171   170   ar
   206   187   188    1
   207    95    96    1
   208   170   172   ar
   209    96    98   am
   210   188   189    1
   211   189   190    1
   212   190   191    1
