@<TRIPOS>MOLECULE
tmp/4o9wA00.pdb
 170 169 0 0 0
SMALL
GASTEIGER

@<TRIPOS>ATOM
      1  N         -0.2120    1.9380   13.2590 N.3    38  SER38      -0.1202
      2  CA        -1.1320    2.6970   12.4170 C.3    38  SER38       0.2020
      3  C         -1.2530    4.1720   12.8280 C.2    38  SER38       0.2619
      4  O         -1.6010    5.0210   12.0120 O.2    38  SER38      -0.2717
      5  CB        -2.5030    2.0100   12.3720 C.3    38  SER38       0.2103
      6  OG        -2.9760    1.7590   13.6820 O.3    38  SER38      -0.2182
      7  N         -0.9890    4.4840   14.0970 N.am   39  LYS39      -0.1965
      8  CA        -1.0930    5.8630   14.5940 C.3    39  LYS39       0.1728
      9  C         -0.1300    6.0310   15.7530 C.2    39  LYS39       0.2616
     10  O          0.1750    5.0750   16.4450 O.2    39  LYS39      -0.2715
     11  CB        -2.5070    6.1570   15.1350 C.3    39  LYS39       0.0311
     12  CG        -3.6650    5.6260   14.3250 C.3    39  LYS39       0.0038
     13  CD        -4.9920    6.1390   14.8580 C.3    39  LYS39       0.0206
     14  CE        -6.1070    5.7590   13.9090 C.3    39  LYS39       0.1093
     15  NZ        -7.4060    6.3310   14.3550 N.3    39  LYS39      -0.1314
     16  N          0.3450    7.2460   15.9890 N.am   40  TRP40      -0.1960
     17  CA         1.1550    7.4690   17.1710 C.3    40  TRP40       0.1771
     18  C          1.0550    8.9110   17.6330 C.2    40  TRP40       0.2620
     19  O          0.6870    9.8120   16.8720 O.2    40  TRP40      -0.2715
     20  CB         2.6270    7.0630   16.9320 C.3    40  TRP40       0.0590
     21  CG         3.2560    7.7740   15.7550 C.ar   40  TRP40       0.0006
     22  CD1        3.3700    7.3080   14.4770 C.ar   40  TRP40       0.0946
     23  CD2        3.8440    9.0800   15.7640 C.ar   40  TRP40       0.0152
     24  NE1        3.9900    8.2510   13.6860 N.ar   40  TRP40      -0.2442
     25  CE2        4.2960    9.3440   14.4590 C.ar   40  TRP40       0.0810
     26  CE3        4.0290   10.0500   16.7540 C.ar   40  TRP40       0.0012
     27  CZ2        4.9190   10.5470   14.1120 C.ar   40  TRP40       0.0191
     28  CZ3        4.6600   11.2450   16.4120 C.ar   40  TRP40       0.0001
     29  CH2        5.0970   11.4770   15.1050 C.ar   40  TRP40       0.0015
     30  N          1.3370    9.1070   18.9110 N.am   41  VAL41      -0.1963
     31  CA         1.3180   10.4280   19.5080 C.3    41  VAL41       0.1727
     32  C          2.5340   10.5540   20.4050 C.2    41  VAL41       0.2616
     33  O          2.7170    9.7760   21.3390 O.2    41  VAL41      -0.2715
     34  CB         0.0420   10.6680   20.3360 C.3    41  VAL41       0.0290
     35  CG1       -0.0110   12.0910   20.7330 C.3    41  VAL41       0.0023
     36  CG2       -1.2060   10.3290   19.5410 C.3    41  VAL41       0.0023
     37  N          3.3950   11.5120   20.0920 N.am   42  ASP42      -0.1957
     38  CA         4.5920   11.7430   20.8810 C.3    42  ASP42       0.1840
     39  C          4.2970   12.7480   22.0030 C.2    42  ASP42       0.2622
     40  O          4.3020   13.9590   21.7760 O.2    42  ASP42      -0.2715
     41  CB         5.7160   12.2730   19.9780 C.3    42  ASP42       0.1450
     42  CG         7.0380   12.4640   20.7130 C.2    42  ASP42       0.3671
     43  OD1        7.0980   12.2960   21.9540 O.co2  42  ASP42      -0.2456
     44  OD2        8.0390   12.7950   20.0400 O.co2  42  ASP42      -0.2456
     45  N          4.0380   12.2390   23.2040 N.am   43  TYR43      -0.1974
     46  CA         3.8720   13.0780   24.3920 C.3    43  TYR43       0.1639
     47  C          5.0520   12.9140   25.3270 C.2    43  TYR43       0.2290
     48  O          4.8670   12.9700   26.5420 O.2    43  TYR43      -0.2864
     49  CB         2.6790   12.5910   25.2000 C.3    43  TYR43       0.0560
     50  CG         1.3670   13.2590   24.9530 C.ar   43  TYR43      -0.0198
     51  CD1        0.6880   13.0530   23.7730 C.ar   43  TYR43      -0.0009
     52  CD2        0.7620   14.0410   25.9310 C.ar   43  TYR43      -0.0009
     53  CE1       -0.5380   13.6380   23.5430 C.ar   43  TYR43       0.0417
     54  CE2       -0.4700   14.6310   25.7090 C.ar   43  TYR43       0.0417
     55  CZ        -1.1120   14.4220   24.5030 C.ar   43  TYR43       0.1957
     56  OH        -2.3410   14.9760   24.2350 O.3    43  TYR43      -0.2866
     57  N         -8.0450    9.5960   21.9310 N.3   111  TYR111     -0.1241
     58  CA        -7.5660   10.6510   21.0510 C.3   111  TYR111      0.1605
     59  C         -7.1730   10.0900   19.6950 C.2   111  TYR111      0.2264
     60  O         -7.5230   10.6480   18.6650 O.2   111  TYR111     -0.2867
     61  CB        -6.3720   11.3730   21.6700 C.3   111  TYR111      0.0534
     62  CG        -5.7830   12.4770   20.8010 C.ar  111  TYR111     -0.0201
     63  CD1       -6.2650   13.7790   20.8770 C.ar  111  TYR111     -0.0009
     64  CD2       -4.7470   12.2170   19.9040 C.ar  111  TYR111     -0.0009
     65  CE1       -5.7340   14.7960   20.0880 C.ar  111  TYR111      0.0417
     66  CE2       -4.2160   13.2300   19.1040 C.ar  111  TYR111      0.0417
     67  CZ        -4.7150   14.5160   19.2070 C.ar  111  TYR111      0.1957
     68  OH        -4.1960   15.5300   18.4270 O.3   111  TYR111     -0.2866
     69  N         -8.8900   11.2420   16.1420 N.3   115  HIS115     -0.1226
     70  CA        -8.1910   12.3620   15.4900 C.3   115  HIS115      0.1752
     71  C         -7.1270   12.0320   14.4500 C.2   115  HIS115      0.2596
     72  O         -6.6620   12.9230   13.7310 O.2   115  HIS115     -0.2718
     73  CB        -7.5740   13.2830   16.5440 C.3   115  HIS115      0.0759
     74  CG        -8.5820   14.0730   17.3110 C.ar  115  HIS115      0.0818
     75  ND1       -8.9320   13.7760   18.6130 N.ar  115  HIS115     -0.2268
     76  CD2       -9.3260   15.1430   16.9550 C.ar  115  HIS115      0.1154
     77  CE1       -9.8460   14.6350   19.0240 C.ar  115  HIS115      0.1986
     78  NE2      -10.1020   15.4780   18.0380 N.ar  115  HIS115     -0.2212
     79  N         -6.7320   10.7710   14.3730 N.am  116  LEU116     -0.1966
     80  CA        -5.6020   10.4120   13.5150 C.3   116  LEU116      0.1728
     81  C         -5.9830    9.4160   12.4300 C.2   116  LEU116      0.2616
     82  O         -6.8690    8.5720   12.6120 O.2   116  LEU116     -0.2715
     83  CB        -4.4500    9.8690   14.3640 C.3   116  LEU116      0.0311
     84  CG        -3.9490   10.7950   15.4760 C.3   116  LEU116      0.0022
     85  CD1       -2.7550   10.1470   16.1690 C.3   116  LEU116      0.0001
     86  CD2       -3.5580   12.1480   14.9230 C.3   116  LEU116      0.0001
     87  N         -5.2920    9.5150   11.2990 N.am  117  LEU117     -0.1977
     88  CA        -5.5080    8.6420   10.1610 C.3   117  LEU117      0.1596
     89  C         -4.9080    7.2670   10.4560 C.2   117  LEU117      0.2287
     90  O         -3.8210    7.1800   11.0140 O.2   117  LEU117     -0.2864
     91  CB        -4.8130    9.2530    8.9460 C.3   117  LEU117      0.0297
     92  CG        -5.4040    9.0220    7.5650 C.3   117  LEU117      0.0022
     93  CD1       -6.8740    9.4150    7.5660 C.3   117  LEU117      0.0001
     94  CD2       -4.6340    9.8250    6.5230 C.3   117  LEU117      0.0001
     95  N         -2.8580    4.3680    9.4180 N.3   119  ALA119     -0.1245
     96  CA        -1.9170    3.9350    8.3890 C.3   119  ALA119      0.1562
     97  C         -2.2030    2.4920    7.9650 C.2   119  ALA119      0.2260
     98  O         -2.4350    1.6260    8.8120 O.2   119  ALA119     -0.2867
     99  CB        -0.4810    4.0670    8.8860 C.3   119  ALA119      0.0290
    100  N         13.1670    9.7840   16.8340 N.3   133  ARG133     -0.1245
    101  CA        12.8120   10.6080   15.7030 C.3   133  ARG133      0.1563
    102  C         14.0550   11.2890   15.1830 C.2   133  ARG133      0.2260
    103  O         14.9870   11.5980   15.9360 O.2   133  ARG133     -0.2867
    104  CB        11.7510   11.6480   16.0880 C.3   133  ARG133      0.0307
    105  CG        10.3340   11.1460   15.8900 C.3   133  ARG133      0.0489
    106  CD         9.3040   11.9700   16.6300 C.3   133  ARG133      0.2205
    107  NE         9.3260   13.3790   16.2530 N.pl3 133  ARG133     -0.0865
    108  CZ         9.8210   14.3390   17.0220 C.cat 133  ARG133      0.5346
    109  NH1        9.8030   15.6020   16.6140 N.pl3 133  ARG133      0.1354
    110  NH2       10.3370   14.0300   18.2010 N.pl3 133  ARG133      0.1354
    111  N          8.5870    5.8740    9.4090 N.3   150  ASN150     -0.1225
    112  CA         7.5750    6.7580    8.8170 C.3   150  ASN150      0.1785
    113  C          8.2440    8.0680    8.4630 C.2   150  ASN150      0.2597
    114  O          8.7170    8.7770    9.3440 O.2   150  ASN150     -0.2718
    115  CB         6.4490    7.0860    9.8030 C.3   150  ASN150      0.1169
    116  CG         5.4650    5.9360   10.0080 C.2   150  ASN150      0.2627
    117  OD1        5.7250    4.7880    9.6400 O.2   150  ASN150     -0.2716
    118  ND2        4.3290    6.2510   10.6320 N.am  150  ASN150     -0.0877
    119  N          8.2700    8.3940    7.1810 N.am  151  PHE151     -0.1962
    120  CA         8.8990    9.6230    6.7170 C.3   151  PHE151      0.1771
    121  C          7.9070   10.7840    6.7700 C.2   151  PHE151      0.2619
    122  O          6.8000   10.6780    6.2510 O.2   151  PHE151     -0.2715
    123  CB         9.4090    9.4180    5.2950 C.3   151  PHE151      0.0574
    124  CG        10.4850    8.3670    5.1940 C.ar  151  PHE151     -0.0200
    125  CD1       11.8180    8.7190    5.3510 C.ar  151  PHE151     -0.0042
    126  CD2       10.1660    7.0330    4.9760 C.ar  151  PHE151     -0.0042
    127  CE1       12.8230    7.7610    5.2700 C.ar  151  PHE151     -0.0003
    128  CE2       11.1560    6.0680    4.9030 C.ar  151  PHE151     -0.0003
    129  CZ        12.5000    6.4420    5.0460 C.ar  151  PHE151     -0.0000
    130  N          8.3090   11.8860    7.4000 N.am  152  PHE152     -0.1974
    131  CA         7.3940   12.9940    7.6750 C.3   152  PHE152      0.1639
    132  C          6.9680   13.8030    6.4450 C.2   152  PHE152      0.2290
    133  O          5.7920   14.1380    6.2960 O.2   152  PHE152     -0.2864
    134  CB         8.0150   13.9610    8.6900 C.3   152  PHE152      0.0560
    135  CG         8.2920   13.3480   10.0380 C.ar  152  PHE152     -0.0200
    136  CD1        7.3610   12.5270   10.6540 C.ar  152  PHE152     -0.0042
    137  CD2        9.4870   13.6030   10.6890 C.ar  152  PHE152     -0.0042
    138  CE1        7.6270   11.9690   11.9020 C.ar  152  PHE152     -0.0003
    139  CE2        9.7560   13.0500   11.9350 C.ar  152  PHE152     -0.0003
    140  CZ         8.8160   12.2350   12.5410 C.ar  152  PHE152     -0.0000
    141  N          5.0800   11.3870    3.7380 N.3   155  HIS155     -0.1241
    142  CA         4.1530   10.4110    4.3430 C.3   155  HIS155      0.1621
    143  C          4.3430    8.9700    3.8740 C.2   155  HIS155      0.2264
    144  O          3.4560    8.1290    4.0450 O.2   155  HIS155     -0.2867
    145  CB         2.6860   10.8610    4.1840 C.3   155  HIS155      0.0745
    146  CG         2.4610   12.2760    4.6070 C.ar  155  HIS155      0.0817
    147  ND1        2.4610   12.6640    5.9300 N.ar  155  HIS155     -0.2268
    148  CD2        2.2980   13.4100    3.8810 C.ar  155  HIS155      0.1154
    149  CE1        2.2720   13.9720    6.0040 C.ar  155  HIS155      0.1986
    150  NE2        2.1770   14.4470    4.7730 N.ar  155  HIS155     -0.2212
    151  N          6.1540    5.2110    4.1070 N.3   157  LYS157     -0.1245
    152  CA         6.4430    4.3770    5.2650 C.3   157  LYS157      0.1561
    153  C          7.0930    3.0750    4.8370 C.2   157  LYS157      0.2260
    154  O          6.7270    2.4890    3.8080 O.2   157  LYS157     -0.2867
    155  CB         5.1530    4.0760    6.0490 C.3   157  LYS157      0.0271
    156  CG         4.3790    5.3590    6.4810 C.3   157  LYS157      0.0035
    157  CD         3.1200    5.0470    7.2630 C.3   157  LYS157      0.0206
    158  CE         2.4240    6.3460    7.6380 C.3   157  LYS157      0.1093
    159  NZ         2.1170    7.1980    6.4210 N.3   157  LYS157     -0.1314
    160  N         -0.6220    6.1450   -0.8630 N.3   174  ARG174     -0.1245
    161  CA        -1.0520    5.1530    0.1300 C.3   174  ARG174      0.1563
    162  C         -1.2450    3.7430   -0.4330 C.2   174  ARG174      0.2260
    163  O         -1.9470    2.9130    0.1550 O.2   174  ARG174     -0.2867
    164  CB        -2.2840    5.6320    0.9180 C.3   174  ARG174      0.0307
    165  CG        -2.0410    6.9310    1.6950 C.3   174  ARG174      0.0489
    166  CD        -3.1150    7.1800    2.7630 C.3   174  ARG174      0.2205
    167  NE        -4.3450    7.7330    2.2100 N.pl3 174  ARG174     -0.0865
    168  CZ        -4.7040    9.0110    2.3040 C.cat 174  ARG174      0.5346
    169  NH1       -3.9380    9.8830    2.9550 N.pl3 174  ARG174      0.1354
    170  NH2       -5.8420    9.4130    1.7620 N.pl3 174  ARG174      0.1354
@<TRIPOS>BOND
     1   160   161    1
     2   162   161    1
     3   162   163    2
     4   161   164    1
     5   164   165    1
     6   165   166    1
     7   170   168    1
     8   167   168    2
     9   167   166    1
    10   168   169    1
    11   141   142    1
    12   154   153    2
    13   143   144    2
    14   143   142    1
    15   148   146   ar
    16   148   150   ar
    17   151   152    1
    18   145   142    1
    19   145   146    1
    20   146   147   ar
    21   150   149   ar
    22   153   152    1
    23   128   126   ar
    24   128   129   ar
    25   126   124   ar
    26   129   127   ar
    27   124   123    1
    28   124   125   ar
    29   152   155    1
    30   127   125   ar
    31   123   120    1
    32   147   149   ar
    33   155   156    1
    34   122   121    2
    35   133   132    2
    36   159   158    1
    37   132   131    1
    38   156   157    1
    39    94    92    1
    40   120   121    1
    41   120   119    1
    42   121   130   am
    43   119   113   am
    44   157   158    1
    45   130   131    1
    46    92    93    1
    47    92    91    1
    48   131   134    1
    49    97    96    1
    50    97    98    2
    51    96    99    1
    52    96    95    1
    53   113   112    1
    54   113   114    2
    55   134   135    1
    56   112   111    1
    57   112   115    1
    58    91    88    1
    59   117   116    2
    60   115   116    1
    61   116   118   am
    62   135   136   ar
    63   135   137   ar
    64    88    89    1
    65    88    87    1
    66    89    90    2
    67   136   138   ar
    68   137   139   ar
    69    87    81   am
    70   138   140   ar
    71   139   140   ar
    72     4     3    2
    73     5     2    1
    74     5     6    1
    75     2     3    1
    76     2     1    1
    77    81    82    2
    78    81    80    1
    79     3     7   am
    80    80    83    1
    81    80    79    1
    82    24    25   ar
    83    24    22   ar
    84    72    71    2
    85    14    15    1
    86    14    13    1
    87     7     8    1
    88    27    25   ar
    89    27    29   ar
    90    12    13    1
    91    12    11    1
    92    83    84    1
    93    79    71   am
    94    71    70    1
    95    25    23   ar
    96    22    21   ar
    97     8    11    1
    98     8     9    1
    99    86    84    1
   100    29    28   ar
   101   102   101    1
   102   102   103    2
   103    84    85    1
   104    70    69    1
   105    70    73    1
   106   101   104    1
   107   101   100    1
   108     9    16   am
   109     9    10    2
   110    21    23   ar
   111    21    20    1
   112    23    26   ar
   113   105   104    1
   114   105   106    1
   115    16    17    1
   116   107   106    1
   117   107   108    2
   118    28    26   ar
   119    73    74    1
   120   109   108    1
   121    19    18    2
   122    20    17    1
   123    76    74   ar
   124    76    78   ar
   125   108   110    1
   126    17    18    1
   127    74    75   ar
   128    18    30   am
   129    78    77   ar
   130    68    67    1
   131    75    77   ar
   132    60    59    2
   133    30    31    1
   134    66    67   ar
   135    66    64   ar
   136    67    65   ar
   137    31    34    1
   138    31    32    1
   139    36    34    1
   140    59    58    1
   141    64    62   ar
   142    41    42    1
   143    41    38    1
   144    44    42   ar
   145    65    63   ar
   146    37    32   am
   147    37    38    1
   148    34    35    1
   149    32    33    2
   150    42    43   ar
   151    62    63   ar
   152    62    61    1
   153    38    39    1
   154    58    61    1
   155    58    57    1
   156    40    39    2
   157    39    45   am
   158    45    46    1
   159    53    51   ar
   160    53    55   ar
   161    51    50   ar
   162    56    55    1
   163    46    49    1
   164    46    47    1
   165    55    54   ar
   166    50    49    1
   167    50    52   ar
   168    47    48    2
   169    54    52   ar
