@<TRIPOS>MOLECULE
tmp/4oa4C00.pdb
 113 104 0 0 0
SMALL
GASTEIGER

@<TRIPOS>ATOM
      1  N         49.8990   34.6690   85.6610 N.3    10  VAL10      -0.1231
      2  CA        49.0130   34.2430   84.5980 C.3    10  VAL10       0.1692
      3  C         47.7400   33.5730   85.0710 C.2    10  VAL10       0.2591
      4  O         46.9190   33.2560   84.2570 O.2    10  VAL10      -0.2718
      5  CB        49.6990   33.3030   83.5820 C.3    10  VAL10       0.0266
      6  CG1       50.9590   33.9780   82.9950 C.3    10  VAL10       0.0020
      7  CG2       50.0260   31.9300   84.1910 C.3    10  VAL10       0.0020
      8  N         47.5780   33.3800   86.3700 N.am   11  VAL11      -0.1980
      9  CA        46.3920   32.6770   86.8640 C.3    11  VAL11       0.1595
     10  C         45.2940   33.6180   87.3710 C.2    11  VAL11       0.2287
     11  O         45.4850   34.8310   87.5200 O.2    11  VAL11      -0.2864
     12  CB        46.7610   31.6070   87.9330 C.3    11  VAL11       0.0276
     13  CG1       47.8170   30.6480   87.3860 C.3    11  VAL11       0.0022
     14  CG2       47.2430   32.2540   89.2080 C.3    11  VAL11       0.0022
     15  N         48.4320   30.9190   93.7700 N.3    17  LYS17      -0.1245
     16  CA        49.3460   31.9570   93.3400 C.3    17  LYS17       0.1561
     17  C         48.6430   33.3050   93.3840 C.2    17  LYS17       0.2260
     18  O         49.2390   34.2930   93.8310 O.2    17  LYS17      -0.2867
     19  CB        49.9060   31.6930   91.9550 C.3    17  LYS17       0.0271
     20  CG        50.7970   32.8380   91.4560 C.3    17  LYS17       0.0035
     21  CD        51.7760   32.3890   90.4010 C.3    17  LYS17       0.0206
     22  CE        51.0860   31.6280   89.2630 C.3    17  LYS17       0.1093
     23  NZ        52.0420   31.2570   88.2290 N.3    17  LYS17      -0.1314
     24  N         55.6490   28.5290   86.5970 N.3    66  SER66      -0.1217
     25  CA        55.8650   27.1050   86.7440 C.3    66  SER66       0.1889
     26  C         57.3410   26.7800   86.6290 C.2    66  SER66       0.2288
     27  O         58.0530   27.3660   85.8210 O.2    66  SER66      -0.2866
     28  CB        55.1270   26.3610   85.6420 C.3    66  SER66       0.2089
     29  OG        55.4550   24.9900   85.6380 O.3    66  SER66      -0.2183
     30  N         59.0880   26.3850   83.1860 N.3    69  LYS69      -0.1245
     31  CA        59.2410   27.4700   82.2220 C.3    69  LYS69       0.1561
     32  C         60.5820   28.2290   82.3150 C.2    69  LYS69       0.2260
     33  O         60.6840   29.3730   81.8990 O.2    69  LYS69      -0.2867
     34  CB        58.0720   28.4350   82.3730 C.3    69  LYS69       0.0271
     35  CG        56.7170   27.7710   82.1010 C.3    69  LYS69       0.0035
     36  CD        55.5130   28.6610   82.4580 C.3    69  LYS69       0.0206
     37  CE        54.2050   27.9600   82.1230 C.3    69  LYS69       0.1093
     38  NZ        52.9440   28.6240   82.5760 N.3    69  LYS69      -0.1314
     39  N         51.4410   24.4810   93.8680 N.3   119  ASN119     -0.1240
     40  CA        50.0840   24.3920   93.3320 C.3   119  ASN119      0.1653
     41  C         49.5610   22.9790   93.5920 C.2   119  ASN119      0.2266
     42  O         48.7830   22.7740   94.5330 O.2   119  ASN119     -0.2867
     43  CB        49.9990   24.7890   91.8470 C.3   119  ASN119      0.1155
     44  CG        48.5460   24.9330   91.3760 C.2   119  ASN119      0.2627
     45  OD1       47.6590   24.1960   91.8220 O.2   119  ASN119     -0.2716
     46  ND2       48.2960   25.8880   90.5110 N.am  119  ASN119     -0.0877
     47  N         47.6500   20.4330   74.7500 N.3   141  ARG141     -0.1245
     48  CA        48.4140   21.6270   75.0800 C.3   141  ARG141      0.1563
     49  C         49.3870   21.3000   76.1980 C.2   141  ARG141      0.2260
     50  O         49.0740   20.5410   77.1070 O.2   141  ARG141     -0.2867
     51  CB        47.4960   22.7730   75.5150 C.3   141  ARG141      0.0307
     52  CG        48.2300   24.0510   75.9130 C.3   141  ARG141      0.0489
     53  CD        48.5010   24.1050   77.4210 C.3   141  ARG141      0.2205
     54  NE        49.3440   25.2360   77.7710 N.pl3 141  ARG141     -0.0865
     55  CZ        49.6020   25.6360   79.0230 C.cat 141  ARG141      0.5346
     56  NH1       50.4050   26.6640   79.2450 N.pl3 141  ARG141      0.1354
     57  NH2       49.0360   25.0250   80.0440 N.pl3 141  ARG141      0.1354
     58  N         49.3380   29.8760   78.7620 N.3   163  PHE163     -0.1241
     59  CA        48.2130   29.5380   79.6170 C.3   163  PHE163      0.1605
     60  C         46.9490   30.3130   79.2660 C.2   163  PHE163      0.2264
     61  O         45.8580   29.7730   79.3020 O.2   163  PHE163     -0.2867
     62  CB        48.5900   29.7960   81.0640 C.3   163  PHE163      0.0534
     63  CG        47.5950   29.2810   82.0560 C.ar  163  PHE163     -0.0203
     64  CD1       47.3390   27.9200   82.1860 C.ar  163  PHE163     -0.0042
     65  CD2       46.9500   30.1470   82.9080 C.ar  163  PHE163     -0.0042
     66  CE1       46.4280   27.4690   83.1110 C.ar  163  PHE163     -0.0003
     67  CE2       46.0430   29.6850   83.8430 C.ar  163  PHE163     -0.0003
     68  CZ        45.7940   28.3490   83.9490 C.ar  163  PHE163     -0.0000
     69  N         46.9340   19.0610   80.6360 N.3   179  GLU179     -0.1231
     70  CA        47.2830   18.5240   81.9540 C.3   179  GLU179      0.1699
     71  C         47.3840   19.6980   82.9100 C.2   179  GLU179      0.2592
     72  O         47.9770   20.7430   82.5840 O.2   179  GLU179     -0.2718
     73  CB        48.6250   17.7600   81.9230 C.3   179  GLU179      0.0402
     74  CG        49.7920   18.5820   81.3310 C.3   179  GLU179      0.1161
     75  CD        51.1760   18.0840   81.6670 C.2   179  GLU179      0.3649
     76  OE1       51.3580   16.9030   82.0400 O.co2 179  GLU179     -0.2457
     77  OE2       52.1190   18.9110   81.5670 O.co2 179  GLU179     -0.2457
     78  N         46.8040   19.5560   84.0910 N.am  180  ASN180     -0.1974
     79  CA        46.9210   20.6370   85.0670 C.3   180  ASN180      0.1688
     80  C         46.4130   20.2300   86.4380 C.2   180  ASN180      0.2292
     81  O         45.9080   19.1160   86.6330 O.2   180  ASN180     -0.2864
     82  CB        46.1890   21.8770   84.5590 C.3   180  ASN180      0.1181
     83  CG        47.0240   23.1420   84.7130 C.2   180  ASN180      0.2629
     84  OD1       47.4850   23.4450   85.8040 O.2   180  ASN180     -0.2716
     85  ND2       47.2840   23.8240   83.5980 N.am  180  ASN180     -0.0877
     86  N         43.7450   24.8660   88.7060 N.3   184  ASN184     -0.1240
     87  CA        43.6230   25.4650   87.3780 C.3   184  ASN184      0.1653
     88  C         42.4390   24.9290   86.5720 C.2   184  ASN184      0.2266
     89  O         41.7610   25.6940   85.9130 O.2   184  ASN184     -0.2867
     90  CB        44.9130   25.3610   86.5860 C.3   184  ASN184      0.1155
     91  CG        45.9000   26.4040   86.9740 C.2   184  ASN184      0.2627
     92  OD1       45.5250   27.4960   87.4440 O.2   184  ASN184     -0.2716
     93  ND2       47.1890   26.0940   86.7740 N.am  184  ASN184     -0.0877
     94  N         52.9890   20.4320   89.2910 N.3   205  LEU205     -0.1245
     95  CA        52.9830   21.8230   88.8810 C.3   205  LEU205      0.1561
     96  C         53.1900   22.7270   90.0980 C.2   205  LEU205      0.2260
     97  O         52.2680   22.9440   90.8760 O.2   205  LEU205     -0.2867
     98  CB        51.6600   22.1410   88.1860 C.3   205  LEU205      0.0270
     99  CG        51.8470   23.1460   87.0560 C.3   205  LEU205      0.0019
    100  CD1       50.5940   23.2700   86.1820 C.3   205  LEU205      0.0001
    101  CD2       52.2210   24.4610   87.6100 C.3   205  LEU205      0.0001
    102  N         55.7900   26.3200   91.4930 N.3   207  TYR207     -0.1241
    103  CA        56.3900   27.5550   91.0120 C.3   207  TYR207      0.1605
    104  C         57.7000   27.8870   91.7300 C.2   207  TYR207      0.2264
    105  O         57.9370   27.4560   92.8580 O.2   207  TYR207     -0.2867
    106  CB        55.4410   28.7200   91.2760 C.3   207  TYR207      0.0534
    107  CG        54.0160   28.4910   90.8700 C.ar  207  TYR207     -0.0201
    108  CD1       53.6690   28.3660   89.5180 C.ar  207  TYR207     -0.0009
    109  CD2       52.9980   28.4410   91.8100 C.ar  207  TYR207     -0.0009
    110  CE1       52.3550   28.1810   89.1300 C.ar  207  TYR207      0.0417
    111  CE2       51.6810   28.2720   91.4230 C.ar  207  TYR207      0.0417
    112  CZ        51.3720   28.1420   90.0890 C.ar  207  TYR207      0.1957
    113  OH        50.0700   27.9950   89.6990 O.3   207  TYR207     -0.2866
@<TRIPOS>BOND
     1    47    48    1
     2    48    51    1
     3    48    49    1
     4    51    52    1
     5    52    53    1
     6    49    50    2
     7    53    54    1
     8    54    55    2
     9    58    59    1
    10    55    56    1
    11    55    57    1
    12    60    61    2
    13    60    59    1
    14    59    62    1
    15    69    70    1
    16    62    63    1
    17    74    75    1
    18    74    73    1
    19    77    75   ar
    20    75    76   ar
    21    33    32    2
    22    73    70    1
    23    70    71    1
    24    63    64   ar
    25    63    65   ar
    26    35    34    1
    27    35    36    1
    28    37    36    1
    29    37    38    1
    30    64    66   ar
    31    31    32    1
    32    31    34    1
    33    31    30    1
    34    72    71    2
    35    65    67   ar
    36    71    78   am
    37     6     5    1
    38    66    68   ar
    39     5     7    1
    40     5     2    1
    41    85    83   am
    42    67    68   ar
    43    78    79    1
    44     4     3    2
    45    82    83    1
    46    82    79    1
    47     2     3    1
    48     2     1    1
    49    83    84    2
    50    79    80    1
    51     3     8   am
    52    29    28    1
    53    28    25    1
    54    27    26    2
    55    89    88    2
    56   100    99    1
    57     8     9    1
    58    80    81    2
    59    88    87    1
    60    90    91    1
    61    90    87    1
    62    24    25    1
    63    26    25    1
    64    93    91   am
    65     9    10    1
    66     9    12    1
    67    91    92    2
    68    99   101    1
    69    99    98    1
    70    10    11    2
    71    87    86    1
    72    13    12    1
    73    12    14    1
    74    98    95    1
    75    23    22    1
    76    95    94    1
    77    95    96    1
    78   110   108   ar
    79   110   112   ar
    80    22    21    1
    81   108   107   ar
    82   113   112    1
    83   112   111   ar
    84    96    97    2
    85    21    20    1
    86    46    44   am
    87   107   106    1
    88   107   109   ar
    89   103   106    1
    90   103   102    1
    91   103   104    1
    92    44    45    2
    93    44    43    1
    94   111   109   ar
    95    20    19    1
    96   104   105    2
    97    43    40    1
    98    19    16    1
    99    40    41    1
   100    40    39    1
   101    16    17    1
   102    16    15    1
   103    17    18    2
   104    41    42    2
