@<TRIPOS>MOLECULE
tmp/4oaeA00.pdb
 113 108 0 0 0
SMALL
GASTEIGER

@<TRIPOS>ATOM
      1  N        -13.7780   15.5190  -23.2100 N.3    20  PHE20      -0.1228
      2  CA       -12.4250   15.3750  -22.6770 C.3    20  PHE20       0.1721
      3  C        -11.7400   14.0350  -22.9970 C.2    20  PHE20       0.2437
      4  O        -10.5900   14.0830  -23.4330 O.2    20  PHE20      -0.2733
      5  CB       -12.4180   15.6570  -21.1670 C.3    20  PHE20       0.0547
      6  CG       -12.6820   17.0840  -20.7510 C.ar   20  PHE20      -0.0202
      7  CD1      -12.7630   18.1110  -21.6510 C.ar   20  PHE20      -0.0042
      8  CD2      -12.8310   17.3950  -19.3830 C.ar   20  PHE20      -0.0042
      9  CE1      -12.9670   19.4070  -21.2370 C.ar   20  PHE20      -0.0003
     10  CE2      -13.0490   18.6670  -18.9600 C.ar   20  PHE20      -0.0003
     11  CZ       -13.1190   19.6940  -19.8540 C.ar   20  PHE20      -0.0000
     12  N        -12.3610   12.8950  -22.7690 N.am   21  PRO21      -0.2729
     13  CA       -11.6070   11.6320  -22.9680 C.3    21  PRO21       0.1401
     14  C        -11.3070   11.4720  -24.4670 C.2    21  PRO21       0.2269
     15  O        -12.2020   11.5460  -25.2920 O.2    21  PRO21      -0.2865
     16  CB       -12.5670   10.5670  -22.4740 C.3    21  PRO21       0.0296
     17  CG       -13.5870   11.2600  -21.6080 C.3    21  PRO21       0.0237
     18  CD       -13.6820   12.6410  -22.1240 C.3    21  PRO21       0.0939
     19  N         -8.4340    6.3670  -21.9080 N.3    26  GLU26      -0.1245
     20  CA        -8.7140    7.5210  -21.0580 C.3    26  GLU26       0.1567
     21  C        -10.1100    7.4370  -20.4930 C.2    26  GLU26       0.2260
     22  O        -10.3310    7.7090  -19.2930 O.2    26  GLU26      -0.2867
     23  CB        -8.6080    8.8350  -21.8490 C.3    26  GLU26       0.0388
     24  CG        -7.1970    9.1730  -22.2500 C.3    26  GLU26       0.1160
     25  CD        -7.0120   10.5970  -22.6750 C.2    26  GLU26       0.3649
     26  OE1       -7.9840   11.3750  -22.8150 O.co2  26  GLU26      -0.2457
     27  OE2       -5.8240   10.9370  -22.9050 O.co2  26  GLU26      -0.2457
     28  N        -10.1330    4.8490  -17.6950 N.3    29  TYR29      -0.1227
     29  CA        -9.4720    5.2820  -16.4840 C.3    29  TYR29       0.1736
     30  C        -10.3560    6.1250  -15.6560 C.2    29  TYR29       0.2595
     31  O        -10.2900    6.0210  -14.4130 O.2    29  TYR29      -0.2718
     32  CB        -8.2090    6.0910  -16.7950 C.3    29  TYR29       0.0548
     33  CG        -7.1080    5.3630  -17.5350 C.ar   29  TYR29      -0.0200
     34  CD1       -7.0460    3.9860  -17.5680 C.ar   29  TYR29      -0.0009
     35  CD2       -6.1260    6.1190  -18.1750 C.ar   29  TYR29      -0.0009
     36  CE1       -6.0270    3.3500  -18.3010 C.ar   29  TYR29       0.0417
     37  CE2       -5.1470    5.4990  -18.8970 C.ar   29  TYR29       0.0417
     38  CZ        -5.1030    4.1260  -18.9640 C.ar   29  TYR29       0.1957
     39  OH        -4.1070    3.5200  -19.7170 O.3    29  TYR29      -0.2866
     40  N        -11.1470    6.9920  -16.2800 N.am   30  ALA30      -0.1980
     41  CA       -11.9840    7.9500  -15.5750 C.3    30  ALA30       0.1597
     42  C        -13.3740    7.4520  -15.2380 C.2    30  ALA30       0.2287
     43  O        -14.0250    7.9940  -14.3250 O.2    30  ALA30      -0.2864
     44  CB       -12.1350    9.1850  -16.4180 C.3    30  ALA30       0.0319
     45  N        -12.3550   11.8200  -12.8150 N.3    82  MET82      -0.1230
     46  CA       -11.4520   12.9120  -13.0600 C.3    82  MET82       0.1702
     47  C        -11.1490   12.9790  -14.5410 C.2    82  MET82       0.2592
     48  O        -10.6130   11.9970  -15.1280 O.2    82  MET82      -0.2718
     49  CB       -10.1420   12.6910  -12.2900 C.3    82  MET82       0.0401
     50  CG        -9.0680   13.7610  -12.5970 C.3    82  MET82       0.0596
     51  SD        -9.4440   15.4130  -12.0670 S.3    82  MET82      -0.1393
     52  CE        -9.2220   15.1760  -10.4500 C.3    82  MET82       0.0692
     53  N        -11.4820   14.1010  -15.1560 N.am   83  MET83      -0.1965
     54  CA       -11.2850   14.3160  -16.6080 C.3    83  MET83       0.1736
     55  C        -10.7230   15.7040  -16.7820 C.2    83  MET83       0.2616
     56  O        -11.1300   16.6390  -16.0970 O.2    83  MET83      -0.2715
     57  CB       -12.6020   14.1370  -17.3770 C.3    83  MET83       0.0427
     58  CG       -13.0610   12.6860  -17.3540 C.3    83  MET83       0.0599
     59  SD       -14.5760   12.3510  -18.2020 S.3    83  MET83      -0.1393
     60  CE       -15.6440   12.9500  -16.9850 C.3    83  MET83       0.0692
     61  N         -9.8630   15.8430  -17.7930 N.am   84  VAL84      -0.1977
     62  CA        -9.1280   17.0870  -18.0580 C.3    84  VAL84       0.1596
     63  C         -9.1460   17.3300  -19.5570 C.2    84  VAL84       0.2287
     64  O         -8.9110   16.4010  -20.3580 O.2    84  VAL84      -0.2864
     65  CB        -7.6900   17.0310  -17.5140 C.3    84  VAL84       0.0276
     66  CG1       -6.8820   18.2560  -17.8700 C.3    84  VAL84       0.0022
     67  CG2       -7.6460   16.7640  -16.0230 C.3    84  VAL84       0.0022
     68  N         -3.5220   19.3380  -20.3630 N.3    89  ARG89      -0.1245
     69  CA        -2.9010   18.2360  -19.6240 C.3    89  ARG89       0.1563
     70  C         -1.5430   18.6570  -19.0390 C.2    89  ARG89       0.2260
     71  O         -0.7870   19.3450  -19.7080 O.2    89  ARG89      -0.2867
     72  CB        -2.7550   17.0050  -20.5210 C.3    89  ARG89       0.0307
     73  CG        -4.0390   16.5450  -21.1770 C.3    89  ARG89       0.0489
     74  CD        -4.9520   15.8990  -20.1640 C.3    89  ARG89       0.2205
     75  NE        -6.2350   15.4710  -20.7690 N.pl3  89  ARG89      -0.0865
     76  CZ        -6.4550   14.3460  -21.4450 C.cat  89  ARG89       0.5346
     77  NH1       -5.4800   13.4830  -21.6870 N.pl3  89  ARG89       0.1354
     78  NH2       -7.6660   14.1190  -21.9390 N.pl3  89  ARG89       0.1354
     79  N         -5.7100   18.6780  -12.6620 N.3    94  ALA94      -0.1245
     80  CA        -6.1100   17.5450  -11.8160 C.3    94  ALA94       0.1562
     81  C         -5.6620   17.7560  -10.3890 C.2    94  ALA94       0.2260
     82  O         -6.4040   17.5210   -9.4490 O.2    94  ALA94      -0.2867
     83  CB        -5.5510   16.2320  -12.3480 C.3    94  ALA94       0.0290
     84  N         -2.6250    3.6550  -15.7130 N.3   122  ASN122     -0.1225
     85  CA        -2.6830    5.1030  -15.5570 C.3   122  ASN122      0.1785
     86  C         -1.5300    5.5950  -14.7210 C.2   122  ASN122      0.2597
     87  O         -1.6960    6.0000  -13.5510 O.2   122  ASN122     -0.2718
     88  CB        -4.0550    5.4720  -14.9950 C.3   122  ASN122      0.1169
     89  CG        -4.3180    6.9490  -14.9480 C.2   122  ASN122      0.2627
     90  OD1       -3.5060    7.7940  -15.3710 O.2   122  ASN122     -0.2716
     91  ND2       -5.4820    7.2930  -14.4080 N.am  122  ASN122     -0.0877
     92  N         -0.3060    5.5270  -15.2800 N.am  123  ALA123     -0.1966
     93  CA         0.8720    5.9670  -14.5530 C.3   123  ALA123      0.1728
     94  C          0.7310    7.3660  -14.0390 C.2   123  ALA123      0.2616
     95  O          1.1300    7.6690  -12.9030 O.2   123  ALA123     -0.2715
     96  CB         2.1270    5.8200  -15.3860 C.3   123  ALA123      0.0334
     97  N          0.2250    8.2680  -14.8570 N.am  124  ALA124     -0.1963
     98  CA         0.1420    9.6540  -14.4720 C.3   124  ALA124      0.1728
     99  C         -0.7100    9.8130  -13.2270 C.2   124  ALA124      0.2616
    100  O         -0.3930   10.6480  -12.3640 O.2   124  ALA124     -0.2715
    101  CB        -0.3990   10.5200  -15.6070 C.3   124  ALA124      0.0334
    102  N         -1.8170    9.0940  -13.1730 N.am  125  GLY125     -0.1955
    103  CA        -2.6670    9.1910  -11.9910 C.3   125  GLY125      0.1869
    104  C         -2.0240    8.6280  -10.7650 C.2   125  GLY125      0.2309
    105  O         -2.1630    9.1870   -9.6520 O.2   125  GLY125     -0.2863
    106  N          0.6600   11.2150   -9.7180 N.3   128  LEU128     -0.1245
    107  CA         0.0730   12.4290   -9.1620 C.3   128  LEU128      0.1561
    108  C         -0.4510   12.1690   -7.7380 C.2   128  LEU128      0.2260
    109  O         -0.1920   12.9310   -6.8070 O.2   128  LEU128     -0.2867
    110  CB        -1.0500   12.9610  -10.0300 C.3   128  LEU128      0.0270
    111  CG        -1.7100   14.2190   -9.4700 C.3   128  LEU128      0.0019
    112  CD1       -0.7520   15.3590   -9.2260 C.3   128  LEU128      0.0001
    113  CD2       -2.8440   14.6500  -10.4010 C.3   128  LEU128      0.0001
@<TRIPOS>BOND
     1    15    14    2
     2    14    13    1
     3     4     3    2
     4     1     2    1
     5     3    12   am
     6     3     2    1
     7    13    12    1
     8    13    16    1
     9    27    25   ar
    10    26    25   ar
    11    12    18    1
    12     2     5    1
    13    25    24    1
    14    16    17    1
    15    24    23    1
    16    18    17    1
    17    78    76    1
    18    19    20    1
    19    23    20    1
    20    77    76    1
    21     7     9   ar
    22     7     6   ar
    23    76    75    2
    24     9    11   ar
    25    73    72    1
    26    73    74    1
    27     5     6    1
    28    20    21    1
    29    75    74    1
    30     6     8   ar
    31    72    69    1
    32    21    22    2
    33    68    69    1
    34    64    63    2
    35    11    10   ar
    36    39    38    1
    37    71    70    2
    38    69    70    1
    39    63    62    1
    40     8    10   ar
    41    38    37   ar
    42    38    36   ar
    43    37    35   ar
    44    36    34   ar
    45    59    58    1
    46    59    60    1
    47    35    33   ar
    48    62    61    1
    49    62    65    1
    50    66    65    1
    51    61    55   am
    52    28    29    1
    53    34    33   ar
    54    33    32    1
    55    65    67    1
    56    57    58    1
    57    57    54    1
    58    32    29    1
    59    55    54    1
    60    55    56    2
    61    54    53    1
    62    29    30    1
    63    44    41    1
    64    40    30   am
    65    40    41    1
    66    84    85    1
    67    30    31    2
    68   101    98    1
    69    41    42    1
    70    85    88    1
    71    85    86    1
    72    96    93    1
    73    90    89    2
    74    92    86   am
    75    92    93    1
    76    42    43    2
    77    53    47   am
    78    48    47    2
    79    88    89    1
    80    89    91   am
    81    97    98    1
    82    97    94   am
    83    86    87    2
    84    93    94    1
    85    47    46    1
    86    98    99    1
    87    94    95    2
    88    99   102   am
    89    99   100    2
    90   102   103    1
    91    46    45    1
    92    46    49    1
    93    79    80    1
    94    50    49    1
    95    50    51    1
    96    83    80    1
    97    51    52    1
    98   103   104    1
    99    80    81    1
   100   104   105    2
   101   113   111    1
   102    81    82    2
   103   110   111    1
   104   110   107    1
   105   106   107    1
   106   111   112    1
   107   107   108    1
   108   108   109    2
