@<TRIPOS>MOLECULE
tmp/4oagA00.pdb
 172 161 0 0 0
SMALL
GASTEIGER

@<TRIPOS>ATOM
      1  N         69.9120  -20.9060   17.1210 N.3    52  TYR52      -0.1241
      2  CA        69.9150  -19.4610   17.3070 C.3    52  TYR52       0.1605
      3  C         70.4330  -18.7490   16.0610 C.2    52  TYR52       0.2264
      4  O         71.1820  -19.3260   15.2680 O.2    52  TYR52      -0.2867
      5  CB        70.7140  -19.0620   18.5680 C.3    52  TYR52       0.0534
      6  CG        72.2200  -19.2990   18.5180 C.ar   52  TYR52      -0.0201
      7  CD1       73.0770  -18.3110   18.0350 C.ar   52  TYR52      -0.0009
      8  CD2       72.7830  -20.4850   18.9960 C.ar   52  TYR52      -0.0009
      9  CE1       74.4490  -18.4980   18.0040 C.ar   52  TYR52       0.0417
     10  CE2       74.1630  -20.6910   18.9680 C.ar   52  TYR52       0.0417
     11  CZ        74.9880  -19.6810   18.4720 C.ar   52  TYR52       0.1957
     12  OH        76.3530  -19.8370   18.4300 O.3    52  TYR52      -0.2866
     13  N         72.3090  -16.0560   13.5390 N.3    54  SER54      -0.1202
     14  CA        73.6580  -15.5220   13.4340 C.3    54  SER54       0.2020
     15  C         73.8690  -15.0280   12.0040 C.2    54  SER54       0.2619
     16  O         73.4250  -15.6600   11.0360 O.2    54  SER54      -0.2717
     17  CB        74.6930  -16.6060   13.7750 C.3    54  SER54       0.2103
     18  OG        76.0230  -16.1350   13.6020 O.3    54  SER54      -0.2182
     19  N         74.5510  -13.9000   11.8610 N.am   55  GLY55      -0.1942
     20  CA        74.8940  -13.4360   10.5300 C.3    55  GLY55       0.2014
     21  C         74.6750  -11.9510   10.4090 C.2    55  GLY55       0.2639
     22  O         74.1540  -11.3180   11.3360 O.2    55  GLY55      -0.2714
     23  N         75.0640  -11.3920    9.2690 N.am   56  SER56      -0.1949
     24  CA        75.0840   -9.9430    9.1140 C.3    56  SER56       0.1924
     25  C         73.6940   -9.3360    9.2550 C.2    56  SER56       0.2314
     26  O         73.5450   -8.1960    9.7250 O.2    56  SER56      -0.2863
     27  CB        75.7210   -9.5580    7.7660 C.3    56  SER56       0.2116
     28  OG        74.9410  -10.0400    6.6850 O.3    56  SER56      -0.2180
     29  N         74.0820   -6.4950    7.0720 N.3    62  GLN62      -0.1231
     30  CA        73.6870   -6.9860    5.7470 C.3    62  GLN62       0.1698
     31  C         73.3790   -5.7960    4.8540 C.2    62  GLN62       0.2592
     32  O         72.8130   -4.7900    5.3070 O.2    62  GLN62      -0.2718
     33  CB        72.4620   -7.9030    5.8280 C.3    62  GLN62       0.0381
     34  CG        72.1930   -8.6940    4.5250 C.3    62  GLN62       0.0905
     35  CD        71.6320  -10.0870    4.8010 C.2    62  GLN62       0.2608
     36  OE1       70.5380  -10.4380    4.3320 O.2    62  GLN62      -0.2717
     37  NE2       72.3840  -10.8920    5.5610 N.am   62  GLN62      -0.0878
     38  N         73.7390   -5.9180    3.5860 N.am   63  VAL63      -0.1980
     39  CA        73.6060   -4.8000    2.6680 C.3    63  VAL63       0.1595
     40  C         72.6930   -5.0920    1.4910 C.2    63  VAL63       0.2287
     41  O         72.4180   -6.2590    1.1620 O.2    63  VAL63      -0.2864
     42  CB        74.9710   -4.3450    2.1270 C.3    63  VAL63       0.0276
     43  CG1       75.7440   -3.5990    3.2030 C.3    63  VAL63       0.0022
     44  CG2       75.7610   -5.5430    1.5920 C.3    63  VAL63       0.0022
     45  N         69.4520  -13.3960    3.4870 N.3    68  HIS68      -0.1241
     46  CA        70.0330  -14.5870    4.1120 C.3    68  HIS68       0.1621
     47  C         70.3840  -14.3780    5.5810 C.2    68  HIS68       0.2264
     48  O         70.5890  -13.2460    6.0480 O.2    68  HIS68      -0.2867
     49  CB        71.2710  -15.0630    3.3280 C.3    68  HIS68       0.0745
     50  CG        72.4330  -14.1150    3.4040 C.ar   68  HIS68       0.0817
     51  ND1       72.4930  -12.9560    2.6650 N.ar   68  HIS68      -0.2268
     52  CD2       73.5710  -14.1620    4.1380 C.ar   68  HIS68       0.1154
     53  CE1       73.6250  -12.3180    2.9440 C.ar   68  HIS68       0.1986
     54  NE2       74.2900  -13.0260    3.8360 N.ar   68  HIS68      -0.2212
     55  N         71.8550  -17.1820    9.1420 N.3    70  GLN70      -0.1245
     56  CA        72.1040  -18.5570    9.5790 C.3    70  GLN70       0.1566
     57  C         71.3110  -18.9210   10.8300 C.2    70  GLN70       0.2260
     58  O         71.0260  -18.0670   11.6850 O.2    70  GLN70      -0.2867
     59  CB        73.5930  -18.7880    9.8770 C.3    70  GLN70       0.0367
     60  CG        74.4790  -18.9640    8.6540 C.3    70  GLN70       0.0905
     61  CD        74.6750  -17.6780    7.9010 C.2    70  GLN70       0.2608
     62  OE1       74.9540  -16.6280    8.4970 O.2    70  GLN70      -0.2717
     63  NE2       74.5200  -17.7380    6.5840 N.am   70  GLN70      -0.0878
     64  N         72.3680  -21.2750   13.6920 N.3    72  ILE72      -0.1245
     65  CA        73.4180  -22.0860   14.2890 C.3    72  ILE72       0.1561
     66  C         72.7450  -23.2250   15.0350 C.2    72  ILE72       0.2260
     67  O         71.7370  -23.0210   15.7130 O.2    72  ILE72      -0.2867
     68  CB        74.2410  -21.2690   15.2870 C.3    72  ILE72       0.0252
     69  CG1       74.7920  -20.0170   14.6100 C.3    72  ILE72       0.0019
     70  CG2       75.3740  -22.1180   15.8770 C.3    72  ILE72       0.0019
     71  CD1       75.6930  -20.3040   13.4180 C.3    72  ILE72       0.0001
     72  N         70.2500  -20.9930    6.1470 N.3   176  ASP176     -0.1239
     73  CA        71.0300  -22.2420    6.1580 C.3   176  ASP176      0.1674
     74  C         71.4350  -22.5990    7.5920 C.2   176  ASP176      0.2266
     75  O         71.4600  -21.7320    8.4780 O.2   176  ASP176     -0.2867
     76  CB        72.2350  -22.1960    5.1970 C.3   176  ASP176      0.1410
     77  CG        73.3280  -21.2350    5.6490 C.2   176  ASP176      0.3668
     78  OD1       73.1160  -20.0010    5.5630 O.co2 176  ASP176     -0.2456
     79  OD2       74.4130  -21.7180    6.0640 O.co2 176  ASP176     -0.2456
     80  N         74.0340  -24.1700   10.5020 N.3   178  LEU178     -0.1245
     81  CA        75.4490  -24.4260   10.7830 C.3   178  LEU178      0.1561
     82  C         75.5840  -25.1910   12.0870 C.2   178  LEU178      0.2260
     83  O         75.5530  -24.6060   13.1640 O.2   178  LEU178     -0.2867
     84  CB        76.2620  -23.1300   10.8870 C.3   178  LEU178      0.0270
     85  CG        76.8720  -22.4870    9.6420 C.3   178  LEU178      0.0019
     86  CD1       77.7300  -21.2850   10.0500 C.3   178  LEU178      0.0001
     87  CD2       77.6980  -23.4930    8.8260 C.3   178  LEU178      0.0001
     88  N         85.4790  -22.2460   19.1850 N.3   187  VAL187     -0.1245
     89  CA        84.1590  -22.4470   18.5800 C.3   187  VAL187      0.1561
     90  C         84.3200  -22.8870   17.1270 C.2   187  VAL187      0.2260
     91  O         85.0550  -22.2780   16.3480 O.2   187  VAL187     -0.2867
     92  CB        83.2600  -21.1890   18.7060 C.3   187  VAL187      0.0252
     93  CG1       81.8770  -21.4240   18.0450 C.3   187  VAL187      0.0019
     94  CG2       83.0860  -20.8090   20.1780 C.3   187  VAL187      0.0019
     95  N         82.4770  -24.5720   13.4850 N.3   189  VAL189     -0.1245
     96  CA        81.2390  -24.7410   12.7240 C.3   189  VAL189      0.1561
     97  C         81.4520  -25.6980   11.5520 C.2   189  VAL189      0.2260
     98  O         82.5490  -25.7830   11.0030 O.2   189  VAL189     -0.2867
     99  CB        80.6830  -23.3860   12.2340 C.3   189  VAL189      0.0252
    100  CG1       80.2110  -22.5400   13.4270 C.3   189  VAL189      0.0019
    101  CG2       81.7470  -22.6280   11.4460 C.3   189  VAL189      0.0019
    102  N         81.1490  -25.7340    8.3540 N.3   191  ARG191     -0.1245
    103  CA        81.0630  -25.1460    7.0320 C.3   191  ARG191      0.1563
    104  C         82.2610  -25.7030    6.2860 C.2   191  ARG191      0.2260
    105  O         83.3900  -25.2890    6.5350 O.2   191  ARG191     -0.2867
    106  CB        81.1540  -23.6170    7.1140 C.3   191  ARG191      0.0307
    107  CG        80.7060  -22.9010    5.8330 C.3   191  ARG191      0.0489
    108  CD        80.5130  -21.3950    6.0580 C.3   191  ARG191      0.2205
    109  NE        81.7430  -20.6470    5.8170 N.pl3 191  ARG191     -0.0865
    110  CZ        82.3660  -19.8870    6.7140 C.cat 191  ARG191      0.5346
    111  NH1       81.8770  -19.7480    7.9420 N.pl3 191  ARG191      0.1354
    112  NH2       83.4870  -19.2530    6.3740 N.pl3 191  ARG191      0.1354
    113  N         87.1280  -23.0500   12.0440 N.3   204  LEU204     -0.1231
    114  CA        87.1450  -22.1980   13.2320 C.3   204  LEU204      0.1693
    115  C         86.2100  -21.0180   13.0110 C.2   204  LEU204      0.2593
    116  O         86.2790  -20.3570   11.9700 O.2   204  LEU204     -0.2718
    117  CB        88.5620  -21.6970   13.5370 C.3   204  LEU204      0.0284
    118  CG        88.7180  -20.7120   14.7040 C.3   204  LEU204      0.0019
    119  CD1       88.3940  -21.3750   16.0380 C.3   204  LEU204      0.0001
    120  CD2       90.1280  -20.1250   14.7250 C.3   204  LEU204      0.0001
    121  N         85.3260  -20.7590   13.9780 N.am  205  SER205     -0.1938
    122  CA        84.3650  -19.6660   13.8600 C.3   205  SER205      0.2055
    123  C         85.0480  -18.3590   14.2390 C.2   205  SER205      0.2643
    124  O         85.5600  -18.2320   15.3530 O.2   205  SER205     -0.2714
    125  CB        83.1700  -19.9080   14.7860 C.3   205  SER205      0.2130
    126  OG        82.3560  -18.7450   14.8730 O.3   205  SER205     -0.2179
    127  N         85.0580  -17.3920   13.3270 N.am  206  LEU206     -0.1963
    128  CA        85.7240  -16.1100   13.5770 C.3   206  LEU206      0.1728
    129  C         84.7370  -14.9460   13.6820 C.2   206  LEU206      0.2616
    130  O         85.0650  -13.8930   14.2510 O.2   206  LEU206     -0.2715
    131  CB        86.7230  -15.7950   12.4520 C.3   206  LEU206      0.0311
    132  CG        87.5400  -16.9420   11.8530 C.3   206  LEU206      0.0022
    133  CD1       88.2730  -16.5110   10.5690 C.3   206  LEU206      0.0001
    134  CD2       88.5220  -17.4810   12.8830 C.3   206  LEU206      0.0001
    135  N         83.5460  -15.1230   13.1160 N.am  207  ARG207     -0.1964
    136  CA        82.6570  -13.9870   12.8840 C.3   207  ARG207      0.1714
    137  C         82.3160  -13.2230   14.1640 C.2   207  ARG207      0.2458
    138  O         82.4470  -12.0000   14.2070 O.2   207  ARG207     -0.2730
    139  CB        81.3770  -14.3880   12.1170 C.3   207  ARG207      0.0347
    140  CG        80.5620  -13.1650   11.6750 C.3   207  ARG207      0.0492
    141  CD        79.3280  -13.4470   10.8140 C.3   207  ARG207      0.2205
    142  NE        78.7570  -12.1630   10.4040 N.pl3 207  ARG207     -0.0865
    143  CZ        78.0240  -11.3720   11.1920 C.cat 207  ARG207      0.5346
    144  NH1       77.7250  -11.7420   12.4340 N.pl3 207  ARG207      0.1354
    145  NH2       77.5830  -10.2010   10.7340 N.pl3 207  ARG207      0.1354
    146  N         81.8860  -13.9410   15.2130 N.am  208  PRO208     -0.2727
    147  CA        81.5220  -13.2420   16.4460 C.3   208  PRO208      0.1402
    148  C         82.6530  -12.3540   16.9790 C.2   208  PRO208      0.2269
    149  O         82.3820  -11.2060   17.3370 O.2   208  PRO208     -0.2865
    150  CB        81.1970  -14.3890   17.4130 C.3   208  PRO208      0.0296
    151  CG        80.7030  -15.4800   16.5080 C.3   208  PRO208      0.0237
    152  CD        81.5860  -15.3850   15.2910 C.3   208  PRO208      0.0939
    153  N         81.0450   -3.9510    1.2490 N.3   233  LYS233     -0.1245
    154  CA        80.2390   -5.1560    1.0600 C.3   233  LYS233      0.1561
    155  C         79.2270   -4.9420   -0.0720 C.2   233  LYS233      0.2260
    156  O         79.0260   -5.8230   -0.9130 O.2   233  LYS233     -0.2867
    157  CB        79.5260   -5.5660    2.3600 C.3   233  LYS233      0.0271
    158  CG        80.4450   -6.2770    3.3510 C.3   233  LYS233      0.0035
    159  CD        79.6970   -7.4000    4.1030 C.3   233  LYS233      0.0206
    160  CE        78.5900   -6.8670    4.9620 C.3   233  LYS233      0.1093
    161  NZ        77.8320   -7.9680    5.6880 N.3   233  LYS233     -0.1314
    162  N         82.6340  -11.0710    3.4730 N.3   247  ALA247     -0.1231
    163  CA        82.5120  -10.0510    4.5040 C.3   247  ALA247      0.1694
    164  C         83.6680  -10.1440    5.5040 C.2   247  ALA247      0.2592
    165  O         84.1700   -9.1230    5.9960 O.2   247  ALA247     -0.2718
    166  CB        81.1640  -10.1860    5.2160 C.3   247  ALA247      0.0304
    167  N         84.0940  -11.3710    5.8060 N.am  248  SER248     -0.1952
    168  CA        85.2210  -11.5760    6.7140 C.3   248  SER248      0.1924
    169  C         86.5140  -10.9450    6.1520 C.2   248  SER248      0.2314
    170  O         87.2220  -10.2020    6.8470 O.2   248  SER248     -0.2863
    171  CB        85.3890  -13.0690    7.0140 C.3   248  SER248      0.2116
    172  OG        86.5680  -13.3190    7.7710 O.3   248  SER248     -0.2180
@<TRIPOS>BOND
     1   156   155    2
     2   155   154    1
     3   154   153    1
     4   154   157    1
     5    41    40    2
     6    40    39    1
     7    44    42    1
     8    42    39    1
     9    42    43    1
    10   157   158    1
    11    51    53   ar
    12    51    50   ar
    13    39    38    1
    14    53    54   ar
    15    49    50    1
    16    49    46    1
    17   158   159    1
    18    50    52   ar
    19   162   163    1
    20    45    46    1
    21    38    31   am
    22    54    52   ar
    23   159   160    1
    24    46    47    1
    25    36    35    2
    26   163   166    1
    27   163   164    1
    28    34    35    1
    29    34    33    1
    30    35    37   am
    31    31    32    2
    32    31    30    1
    33   160   161    1
    34    76    77    1
    35    76    73    1
    36   164   167   am
    37   164   165    2
    38    78    77   ar
    39    47    48    2
    40    77    79   ar
    41    30    33    1
    42    30    29    1
    43   167   168    1
    44   109   108    1
    45   109   110    2
    46   107   108    1
    47   107   106    1
    48    72    73    1
    49   169   168    1
    50   169   170    2
    51    73    74    1
    52   104   105    2
    53   104   103    1
    54   112   110    1
    55    63    61   am
    56    28    27    1
    57   168   171    1
    58   110   111    1
    59   171   172    1
    60   103   106    1
    61   103   102    1
    62    74    75    2
    63    27    24    1
    64    61    62    2
    65    61    60    1
    66    60    59    1
    67    87    85    1
    68    24    25    1
    69    24    23    1
    70    55    56    1
    71    25    26    2
    72    23    21   am
    73    56    59    1
    74    56    57    1
    75    85    86    1
    76    85    84    1
    77   142   141    1
    78   142   143    2
    79    21    20    1
    80    21    22    2
    81    80    81    1
    82    20    19    1
    83   133   132    1
    84   145   143    1
    85    81    84    1
    86    81    82    1
    87   141   140    1
    88    57    58    2
    89    98    97    2
    90    16    15    2
    91   143   144    1
    92   101    99    1
    93    97    96    1
    94   140   139    1
    95   132   131    1
    96   132   134    1
    97    19    15   am
    98   116   115    2
    99    15    14    1
   100   113   114    1
   101    82    83    2
   102   139   136    1
   103    99    96    1
   104    99   100    1
   105   131   128    1
   106    96    95    1
   107   136   135    1
   108   136   137    1
   109   115   114    1
   110   115   121   am
   111   135   129   am
   112   114   117    1
   113   127   128    1
   114   127   123   am
   115    71    69    1
   116    14    13    1
   117    14    17    1
   118   117   118    1
   119   128   129    1
   120    18    17    1
   121   129   130    2
   122    64    65    1
   123   122   121    1
   124   122   123    1
   125   122   125    1
   126   137   138    2
   127   137   146   am
   128   123   124    2
   129    65    66    1
   130    65    68    1
   131    69    68    1
   132   118   120    1
   133   118   119    1
   134   125   126    1
   135    66    67    2
   136   146   152    1
   137   146   147    1
   138     4     3    2
   139    68    70    1
   140   152   151    1
   141     3     2    1
   142    91    90    2
   143   147   148    1
   144   147   150    1
   145   151   150    1
   146   148   149    2
   147     1     2    1
   148    90    89    1
   149     2     5    1
   150     9     7   ar
   151     9    11   ar
   152     7     6   ar
   153    93    92    1
   154    12    11    1
   155    11    10   ar
   156     6     5    1
   157     6     8   ar
   158    89    92    1
   159    89    88    1
   160    92    94    1
   161    10     8   ar
