@<TRIPOS>MOLECULE
tmp/4oajA00.pdb
 141 137 0 0 0
SMALL
GASTEIGER

@<TRIPOS>ATOM
      1  N         -2.4960   15.0230   26.3530 N.3    10  LYS10      -0.1245
      2  CA        -1.3240   15.5360   25.6620 C.3    10  LYS10       0.1561
      3  C         -0.0730   15.2850   26.4870 C.2    10  LYS10       0.2260
      4  O         -0.0060   15.6350   27.6650 O.2    10  LYS10      -0.2867
      5  CB        -1.4730   17.0210   25.3270 C.3    10  LYS10       0.0271
      6  CG        -0.7200   17.4260   24.0750 C.3    10  LYS10       0.0035
      7  CD        -1.0930   18.8190   23.5970 C.3    10  LYS10       0.0206
      8  CE        -0.6130   19.9000   24.5410 C.3    10  LYS10       0.1093
      9  NZ        -1.0450   21.2420   24.0550 N.3    10  LYS10      -0.1314
     10  N          5.8630   15.8700   25.1180 N.3    13  LYS13      -0.1231
     11  CA         6.3810   16.0010   23.7610 C.3    13  LYS13       0.1693
     12  C          5.3180   16.4380   22.7710 C.2    13  LYS13       0.2593
     13  O          5.6320   16.8200   21.6460 O.2    13  LYS13      -0.2718
     14  CB         6.9920   14.6790   23.2880 C.3    13  LYS13       0.0285
     15  CG         8.3330   14.3580   23.9250 C.3    13  LYS13       0.0035
     16  CD         8.8560   13.0200   23.4410 C.3    13  LYS13       0.0206
     17  CE        10.1990   12.6960   24.0680 C.3    13  LYS13       0.1093
     18  NZ        10.3980   11.2280   24.1680 N.3    13  LYS13      -0.1314
     19  N          4.0590   16.3710   23.1820 N.am   14  GLY14      -0.1942
     20  CA         2.9590   16.6930   22.2840 C.3    14  GLY14       0.2014
     21  C          2.0400   15.5030   22.1170 C.2    14  GLY14       0.2639
     22  O          2.0340   14.5980   22.9480 O.2    14  GLY14      -0.2714
     23  N          1.2820   15.4830   21.0330 N.am   15  LEU15      -0.1963
     24  CA         0.3260   14.4060   20.8200 C.3    15  LEU15       0.1728
     25  C          0.9400   13.0880   20.3410 C.2    15  LEU15       0.2617
     26  O          0.3480   12.0280   20.5170 O.2    15  LEU15      -0.2715
     27  CB        -0.7800   14.8670   19.8850 C.3    15  LEU15       0.0311
     28  CG        -1.8000   15.7570   20.5950 C.3    15  LEU15       0.0022
     29  CD1       -2.8620   16.2690   19.6360 C.3    15  LEU15       0.0001
     30  CD2       -2.4420   14.9920   21.7430 C.3    15  LEU15       0.0001
     31  N          2.1250   13.1520   19.7480 N.am   16  GLY16      -0.1940
     32  CA         2.8090   11.9450   19.3320 C.3    16  GLY16       0.2014
     33  C          2.3390   11.3540   18.0100 C.2    16  GLY16       0.2639
     34  O          2.3020   10.1340   17.8420 O.2    16  GLY16      -0.2714
     35  N          1.9710   12.2110   17.0670 N.am   17  PHE17      -0.1959
     36  CA         1.7990   11.7590   15.7010 C.3    17  PHE17       0.1771
     37  C          2.1080   12.8450   14.7030 C.2    17  PHE17       0.2620
     38  O          2.3330   13.9880   15.0810 O.2    17  PHE17      -0.2715
     39  CB         0.4100   11.1510   15.4480 C.3    17  PHE17       0.0574
     40  CG        -0.7500   12.0800   15.7040 C.ar   17  PHE17      -0.0200
     41  CD1       -1.2820   12.8460   14.6820 C.ar   17  PHE17      -0.0042
     42  CD2       -1.3510   12.1330   16.9550 C.ar   17  PHE17      -0.0042
     43  CE1       -2.3870   13.6740   14.9100 C.ar   17  PHE17      -0.0003
     44  CE2       -2.4480   12.9580   17.1910 C.ar   17  PHE17      -0.0003
     45  CZ        -2.9630   13.7320   16.1750 C.ar   17  PHE17      -0.0000
     46  N          2.1280   12.4750   13.4250 N.am   18  SER18      -0.1936
     47  CA         2.3910   13.4260   12.3540 C.3    18  SER18       0.2055
     48  C          1.2870   13.3690   11.3230 C.2    18  SER18       0.2643
     49  O          0.6610   12.3290   11.1210 O.2    18  SER18      -0.2714
     50  CB         3.7170   13.1160   11.6700 C.3    18  SER18       0.2130
     51  OG         4.7330   12.9260   12.6340 O.3    18  SER18      -0.2179
     52  N          1.0720   14.4890   10.6460 N.am   19  ILE19      -0.1963
     53  CA        -0.0190   14.6040    9.7090 C.3    19  ILE19       0.1727
     54  C          0.4380   15.1820    8.3940 C.2    19  ILE19       0.2616
     55  O          1.4200   15.9040    8.3420 O.2    19  ILE19      -0.2715
     56  CB        -1.1350   15.5380   10.2360 C.3    19  ILE19       0.0290
     57  CG1       -0.5760   16.9270   10.5500 C.3    19  ILE19       0.0022
     58  CG2       -1.8060   14.9530   11.4500 C.3    19  ILE19       0.0023
     59  CD1       -1.6430   17.9220   10.8900 C.3    19  ILE19       0.0001
     60  N         -0.3040   14.8620    7.3400 N.am   20  ALA20      -0.1977
     61  CA        -0.1710   15.5120    6.0490 C.3    20  ALA20       0.1597
     62  C         -1.5680   15.8430    5.5590 C.2    20  ALA20       0.2287
     63  O         -2.5530   15.5670    6.2350 O.2    20  ALA20      -0.2864
     64  CB         0.5280   14.5940    5.0540 C.3    20  ALA20       0.0319
     65  N         -2.0760   20.9210   -0.4520 N.3    25  ASN25      -0.1225
     66  CA        -1.0770   19.9640   -0.0020 C.3    25  ASN25       0.1785
     67  C         -1.6650   18.5680    0.1570 C.2    25  ASN25       0.2597
     68  O         -1.5190   17.9340    1.2020 O.2    25  ASN25      -0.2718
     69  CB        -0.4590   20.4380    1.3160 C.3    25  ASN25       0.1169
     70  CG         0.7150   19.6050    1.7310 C.2    25  ASN25       0.2627
     71  OD1        1.8180   19.7590    1.2090 O.2    25  ASN25      -0.2716
     72  ND2        0.4820   18.6900    2.6600 N.am   25  ASN25      -0.0877
     73  N         -2.3280   18.0950   -0.8920 N.am   26  GLN26      -0.1965
     74  CA        -3.0290   16.8220   -0.8510 C.3    26  GLN26       0.1733
     75  C         -2.0980   15.6680   -0.5300 C.2    26  GLN26       0.2616
     76  O         -0.9860   15.5900   -1.0470 O.2    26  GLN26      -0.2715
     77  CB        -3.7150   16.5640   -2.1920 C.3    26  GLN26       0.0408
     78  CG        -4.6330   17.6870   -2.6450 C.3    26  GLN26       0.0908
     79  CD        -5.2720   17.4210   -3.9980 C.2    26  GLN26       0.2608
     80  OE1       -4.9780   16.4280   -4.6600 O.2    26  GLN26      -0.2717
     81  NE2       -6.1570   18.3140   -4.4070 N.am   26  GLN26      -0.0878
     82  N         -2.5560   14.7660    0.3300 N.am   27  HIS27      -0.1973
     83  CA        -1.8040   13.5530    0.6490 C.3    27  HIS27       0.1656
     84  C         -2.1780   12.4530   -0.3380 C.2    27  HIS27       0.2291
     85  O         -1.4040   11.5350   -0.5970 O.2    27  HIS27      -0.2864
     86  CB        -2.1080   13.0990    2.0730 C.3    27  HIS27       0.0771
     87  CG        -1.4270   11.8230    2.4580 C.ar   27  HIS27       0.0820
     88  ND1       -0.0640   11.6440    2.3490 N.ar   27  HIS27      -0.2267
     89  CD2       -1.9230   10.6630    2.9470 C.ar   27  HIS27       0.1154
     90  CE1        0.2500   10.4300    2.7610 C.ar   27  HIS27       0.1986
     91  NE2       -0.8600    9.8120    3.1230 N.ar   27  HIS27      -0.2212
     92  N          0.1540   10.1980    9.2320 N.3    37  THR37      -0.1218
     93  CA         1.1860    9.4320    8.5310 C.3    37  THR37       0.1862
     94  C          2.0600    8.6390    9.4740 C.2    37  THR37       0.2287
     95  O          2.6220    7.6180    9.0880 O.2    37  THR37      -0.2866
     96  CB         2.1660   10.3370    7.8060 C.3    37  THR37       0.1770
     97  OG1        2.6450   11.3260    8.7280 O.3    37  THR37      -0.2211
     98  CG2        1.5180   10.9980    6.5990 C.3    37  THR37       0.0375
     99  N         -3.0310   22.9140    5.3640 N.3    70  HIS70      -0.1226
    100  CA        -2.1310   22.1810    6.2310 C.3    70  HIS70       0.1752
    101  C         -1.8220   23.0160    7.4710 C.2    70  HIS70       0.2595
    102  O         -1.6720   22.4870    8.5620 O.2    70  HIS70      -0.2718
    103  CB        -0.8420   21.8370    5.5010 C.3    70  HIS70       0.0759
    104  CG         0.0470   20.9180    6.2690 C.ar   70  HIS70       0.0818
    105  ND1       -0.2680   19.5960    6.4870 N.ar   70  HIS70      -0.2268
    106  CD2        1.2300   21.1320    6.8900 C.ar   70  HIS70       0.1154
    107  CE1        0.6950   19.0280    7.1890 C.ar   70  HIS70       0.1986
    108  NE2        1.6170   19.9390    7.4470 N.ar   70  HIS70      -0.2212
    109  N         -1.7560   24.3290    7.2840 N.am   71  GLU71      -0.1979
    110  CA        -1.3620   25.2340    8.3450 C.3    71  GLU71       0.1602
    111  C         -2.4580   25.4360    9.3760 C.2    71  GLU71       0.2287
    112  O         -2.1710   25.5610   10.5530 O.2    71  GLU71      -0.2864
    113  CB        -0.9180   26.5770    7.7680 C.3    71  GLU71       0.0415
    114  CG         0.4770   26.5480    7.1450 C.3    71  GLU71       0.1163
    115  CD         0.5260   25.8240    5.7980 C.2    71  GLU71       0.3649
    116  OE1       -0.4980   25.8160    5.0690 O.co2  71  GLU71      -0.2457
    117  OE2        1.6020   25.2700    5.4690 O.co2  71  GLU71      -0.2457
    118  N         -2.3260   22.3630   11.5280 N.3    74  VAL74      -0.1245
    119  CA        -1.1730   22.3120   12.4060 C.3    74  VAL74       0.1561
    120  C         -1.3390   23.2240   13.6220 C.2    74  VAL74       0.2260
    121  O         -1.0110   22.8220   14.7290 O.2    74  VAL74      -0.2867
    122  CB         0.1200   22.6710   11.6770 C.3    74  VAL74       0.0252
    123  CG1        1.2470   22.8300   12.6850 C.3    74  VAL74       0.0019
    124  CG2        0.4770   21.6120   10.6700 C.3    74  VAL74       0.0019
    125  N         -3.9900   21.7060   16.0740 N.3    77  LEU77      -0.1231
    126  CA        -3.5110   20.5480   16.8180 C.3    77  LEU77       0.1693
    127  C         -2.4420   20.9170   17.8190 C.2    77  LEU77       0.2591
    128  O         -2.2030   20.1860   18.7730 O.2    77  LEU77      -0.2718
    129  CB        -2.9550   19.5000   15.8530 C.3    77  LEU77       0.0284
    130  CG        -4.0670   18.7660   15.1060 C.3    77  LEU77       0.0019
    131  CD1       -3.5130   18.1580   13.8760 C.3    77  LEU77       0.0001
    132  CD2       -4.6630   17.6990   15.9950 C.3    77  LEU77       0.0001
    133  N         -1.7870   22.0470   17.5960 N.am   78  LYS78      -0.1980
    134  CA        -0.7280   22.4740   18.4880 C.3    78  LYS78       0.1596
    135  C         -1.2190   23.4810   19.5280 C.2    78  LYS78       0.2287
    136  O         -0.5610   23.7010   20.5360 O.2    78  LYS78      -0.2864
    137  CB         0.4530   23.0230   17.6930 C.3    78  LYS78       0.0298
    138  CG         1.1870   21.9430   16.8890 C.3    78  LYS78       0.0038
    139  CD         2.7080   22.0630   17.0170 C.3    78  LYS78       0.0206
    140  CE         3.1570   21.8000   18.4490 C.3    78  LYS78       0.1093
    141  NZ         4.4600   22.4500   18.7840 N.3    78  LYS78      -0.1314
@<TRIPOS>BOND
     1    80    79    2
     2    81    79   am
     3    79    78    1
     4    78    77    1
     5    77    74    1
     6    76    75    2
     7    73    74    1
     8    73    67   am
     9    74    75    1
    10    85    84    2
    11    75    82   am
    12    65    66    1
    13    84    83    1
    14    66    67    1
    15    66    69    1
    16    67    68    2
    17    82    83    1
    18    83    86    1
    19    71    70    2
    20    69    70    1
    21    70    72   am
    22    86    87    1
    23    88    87   ar
    24    88    90   ar
    25    87    89   ar
    26    90    91   ar
    27    89    91   ar
    28    64    61    1
    29   116   115   ar
    30    99   100    1
    31   117   115   ar
    32   103   100    1
    33   103   104    1
    34    62    61    1
    35    62    63    2
    36   115   114    1
    37    61    60    1
    38   100   101    1
    39   104   105   ar
    40   104   106   ar
    41   105   107   ar
    42    98    96    1
    43   106   108   ar
    44   114   113    1
    45   107   108   ar
    46   109   101   am
    47   109   110    1
    48    60    54   am
    49   101   102    2
    50   113   110    1
    51    96    93    1
    52    96    97    1
    53    55    54    2
    54   110   111    1
    55    54    53    1
    56    93    92    1
    57    93    94    1
    58    95    94    2
    59   111   112    2
    60    53    56    1
    61    53    52    1
    62    56    57    1
    63    56    58    1
    64    57    59    1
    65    52    48   am
    66   124   122    1
    67    49    48    2
    68    48    47    1
    69   118   119    1
    70    50    47    1
    71    50    51    1
    72   122   119    1
    73   122   123    1
    74    47    46    1
    75   119   120    1
    76    46    37   am
    77   120   121    2
    78   131   130    1
    79    41    43   ar
    80    41    40   ar
    81    37    38    2
    82    37    36    1
    83    43    45   ar
    84   130   129    1
    85   130   132    1
    86    39    36    1
    87    39    40    1
    88    36    35    1
    89    40    42   ar
    90   129   126    1
    91   125   126    1
    92    45    44   ar
    93   126   127    1
    94   138   139    1
    95   138   137    1
    96    42    44   ar
    97   139   140    1
    98    35    33   am
    99   133   127   am
   100   133   134    1
   101   137   134    1
   102   127   128    2
   103    34    33    2
   104    33    32    1
   105   140   141    1
   106   134   135    1
   107    32    31    1
   108   135   136    2
   109    29    28    1
   110    31    25   am
   111    27    28    1
   112    27    24    1
   113    25    26    2
   114    25    24    1
   115    28    30    1
   116    24    23    1
   117    23    21   am
   118    13    12    2
   119    21    20    1
   120    21    22    2
   121    20    19    1
   122    12    19   am
   123    12    11    1
   124    14    11    1
   125    14    15    1
   126    16    15    1
   127    16    17    1
   128     7     6    1
   129     7     8    1
   130    11    10    1
   131     9     8    1
   132    17    18    1
   133     6     5    1
   134     5     2    1
   135     2     1    1
   136     2     3    1
   137     3     4    2
