@<TRIPOS>MOLECULE
tmp/4oanA00.pdb
 143 134 0 0 0
SMALL
GASTEIGER

@<TRIPOS>ATOM
      1  N         91.3200   59.8790   58.6180 N.3    13  ASN13      -0.1225
      2  CA        89.8720   59.8140   58.6900 C.3    13  ASN13       0.1785
      3  C         89.1980   59.4500   57.3880 C.2    13  ASN13       0.2597
      4  O         87.9680   59.4630   57.3230 O.2    13  ASN13      -0.2718
      5  CB        89.3080   61.1440   59.2130 C.3    13  ASN13       0.1169
      6  CG        89.5330   62.3150   58.2690 C.2    13  ASN13       0.2627
      7  OD1       90.2520   62.2260   57.2480 O.2    13  ASN13      -0.2716
      8  ND2       88.9170   63.4340   58.6040 N.am   13  ASN13      -0.0877
      9  N         89.9550   59.0810   56.3630 N.am   14  LEU14      -0.1980
     10  CA        89.3790   58.9220   55.0360 C.3    14  LEU14       0.1596
     11  C         89.3000   57.4700   54.5960 C.2    14  LEU14       0.2287
     12  O         90.0430   56.6290   55.0870 O.2    14  LEU14      -0.2864
     13  CB        90.1850   59.6900   54.0050 C.3    14  LEU14       0.0297
     14  CG        90.2150   61.2070   54.1480 C.3    14  LEU14       0.0022
     15  CD1       90.7470   61.8440   52.8960 C.3    14  LEU14       0.0001
     16  CD2       88.8190   61.7300   54.4200 C.3    14  LEU14       0.0001
     17  N         88.3790   62.2610   64.6980 N.3    50  ASP50      -0.1239
     18  CA        89.3110   63.3790   64.5600 C.3    50  ASP50       0.1674
     19  C         89.6240   64.0910   65.8500 C.2    50  ASP50       0.2266
     20  O         90.7900   64.3640   66.1290 O.2    50  ASP50      -0.2867
     21  CB        88.8430   64.3540   63.4890 C.3    50  ASP50       0.1410
     22  CG        88.9600   63.7690   62.1170 C.2    50  ASP50       0.3668
     23  OD1       90.0430   63.2240   61.8100 O.co2  50  ASP50      -0.2456
     24  OD2       87.9750   63.8240   61.3610 O.co2  50  ASP50      -0.2456
     25  N         95.5060   66.1750   59.4990 N.3    66  LEU66      -0.1231
     26  CA        94.4620   66.9770   60.1280 C.3    66  LEU66       0.1693
     27  C         94.3290   68.3500   59.4890 C.2    66  LEU66       0.2592
     28  O         95.3120   69.0560   59.3140 O.2    66  LEU66      -0.2718
     29  CB        94.7380   67.1580   61.6310 C.3    66  LEU66       0.0284
     30  CG        93.6370   67.8210   62.4610 C.3    66  LEU66       0.0019
     31  CD1       92.3420   67.0170   62.4630 C.3    66  LEU66       0.0001
     32  CD2       94.1530   68.0520   63.8770 C.3    66  LEU66       0.0001
     33  N         93.0960   68.7240   59.1570 N.am   67  SER67      -0.1952
     34  CA        92.7830   70.0870   58.7510 C.3    67  SER67       0.1924
     35  C         93.2560   71.0930   59.7730 C.2    67  SER67       0.2314
     36  O         92.9940   70.9490   60.9600 O.2    67  SER67      -0.2863
     37  CB        91.2750   70.2460   58.6120 C.3    67  SER67       0.2116
     38  OG        90.9220   71.6230   58.5910 O.3    67  SER67      -0.2180
     39  N         90.4540   72.2110   62.1490 N.3    70  ILE70      -0.1245
     40  CA        90.1950   71.3950   63.3290 C.3    70  ILE70       0.1561
     41  C         91.3150   71.5770   64.3300 C.2    70  ILE70       0.2260
     42  O         91.0920   71.7010   65.5170 O.2    70  ILE70      -0.2867
     43  CB        89.9800   69.9300   62.9660 C.3    70  ILE70       0.0252
     44  CG1       88.7950   69.8050   61.9910 C.3    70  ILE70       0.0019
     45  CG2       89.7500   69.1200   64.1990 C.3    70  ILE70       0.0019
     46  CD1       88.5550   68.4190   61.4440 C.3    70  ILE70       0.0001
     47  N         92.6900   68.4030   50.2810 N.3   121  ASN121     -0.1240
     48  CA        91.3440   67.8430   50.4310 C.3   121  ASN121      0.1653
     49  C         90.5130   68.4500   49.3060 C.2   121  ASN121      0.2266
     50  O         90.0690   67.7600   48.3890 O.2   121  ASN121     -0.2867
     51  CB        90.7720   68.1530   51.8150 C.3   121  ASN121      0.1155
     52  CG        89.5690   67.3040   52.1600 C.2   121  ASN121      0.2627
     53  OD1       89.1720   66.3930   51.4250 O.2   121  ASN121     -0.2716
     54  ND2       88.9990   67.5710   53.3200 N.am  121  ASN121     -0.0877
     55  N         85.4080   73.1030   48.7710 N.3   124  ARG124     -0.1245
     56  CA        84.2710   72.4240   49.3830 C.3   124  ARG124      0.1563
     57  C         82.9380   72.8710   48.7940 C.2   124  ARG124      0.2260
     58  O         82.7170   74.0590   48.5390 O.2   124  ARG124     -0.2867
     59  CB        84.2870   72.6560   50.8920 C.3   124  ARG124      0.0307
     60  CG        85.5790   72.1390   51.5540 C.3   124  ARG124      0.0489
     61  CD        85.5980   72.3900   53.0220 C.3   124  ARG124      0.2205
     62  NE        84.7950   71.4950   53.8420 N.pl3 124  ARG124     -0.0865
     63  CZ        85.2220   70.3530   54.3710 C.cat 124  ARG124      0.5346
     64  NH1       86.4210   69.8610   54.0550 N.pl3 124  ARG124      0.1354
     65  NH2       84.4380   69.6840   55.2270 N.pl3 124  ARG124      0.1354
     66  N         75.6930   69.6920   59.0170 N.3   145  ARG145     -0.1245
     67  CA        76.8520   69.1920   59.7240 C.3   145  ARG145      0.1563
     68  C         78.0890   69.9760   59.2920 C.2   145  ARG145      0.2260
     69  O         78.2690   70.2550   58.1110 O.2   145  ARG145     -0.2867
     70  CB        77.0700   67.6930   59.4480 C.3   145  ARG145      0.0307
     71  CG        78.3400   67.1220   60.0390 C.3   145  ARG145      0.0489
     72  CD        79.5150   67.2870   59.1150 C.3   145  ARG145      0.2205
     73  NE        80.7580   66.8640   59.7360 N.pl3 145  ARG145     -0.0865
     74  CZ        81.9090   66.7770   59.0860 C.cat 145  ARG145      0.5346
     75  NH1       82.9830   66.3230   59.6880 N.pl3 145  ARG145      0.1354
     76  NH2       81.9900   67.1380   57.8220 N.pl3 145  ARG145      0.1354
     77  N         82.5770   69.9520   60.4410 N.3   147  PRO147     -0.2116
     78  CA        83.6150   69.4150   61.3200 C.3   147  PRO147      0.1372
     79  C         83.7240   70.2990   62.5410 C.2   147  PRO147      0.2244
     80  O         83.2640   71.4360   62.5480 O.2   147  PRO147     -0.2868
     81  CB        84.8820   69.4730   60.4500 C.3   147  PRO147      0.0268
     82  CG        84.3920   69.6880   59.0640 C.3   147  PRO147      0.0207
     83  CD        83.1530   70.4790   59.1900 C.3   147  PRO147      0.0892
     84  N         84.4710   76.8250   60.9670 N.3   152  TRP152     -0.1241
     85  CA        83.2830   76.2870   60.3110 C.3   152  TRP152      0.1605
     86  C         82.0130   76.7640   61.0240 C.2   152  TRP152      0.2264
     87  O         81.0150   77.0690   60.3900 O.2   152  TRP152     -0.2867
     88  CB        83.3070   74.7400   60.2440 C.3   152  TRP152      0.0550
     89  CG        83.8530   74.2140   58.9710 C.ar  152  TRP152      0.0003
     90  CD1       83.2940   74.3620   57.7460 C.ar  152  TRP152      0.0946
     91  CD2       85.0550   73.4390   58.7830 C.ar  152  TRP152      0.0152
     92  NE1       84.0650   73.7360   56.7990 N.ar  152  TRP152     -0.2442
     93  CE2       85.1530   73.1700   57.4080 C.ar  152  TRP152      0.0810
     94  CE3       86.0340   72.9170   59.6400 C.ar  152  TRP152      0.0012
     95  CZ2       86.2070   72.4400   56.8600 C.ar  152  TRP152      0.0191
     96  CZ3       87.0660   72.1880   59.0950 C.ar  152  TRP152      0.0001
     97  CH2       87.1470   71.9540   57.7190 C.ar  152  TRP152      0.0015
     98  N         83.8900   63.3710   61.2260 N.3   167  PHE167     -0.1241
     99  CA        83.6040   62.7630   59.9480 C.3   167  PHE167      0.1605
    100  C         83.1410   61.3150   60.0860 C.2   167  PHE167      0.2264
    101  O         82.3020   60.8580   59.3120 O.2   167  PHE167     -0.2867
    102  CB        84.8140   62.8520   59.0070 C.3   167  PHE167      0.0534
    103  CG        84.4710   62.4750   57.5930 C.ar  167  PHE167     -0.0203
    104  CD1       83.5620   63.2220   56.8800 C.ar  167  PHE167     -0.0042
    105  CD2       85.0120   61.3590   57.0010 C.ar  167  PHE167     -0.0042
    106  CE1       83.2160   62.8760   55.6030 C.ar  167  PHE167     -0.0003
    107  CE2       84.6530   61.0120   55.7160 C.ar  167  PHE167     -0.0003
    108  CZ        83.7550   61.7730   55.0410 C.ar  167  PHE167     -0.0000
    109  N         81.7930   69.4210   51.7380 N.3   184  ASN184     -0.1240
    110  CA        83.0190   68.6750   51.5260 C.3   184  ASN184      0.1653
    111  C         83.3750   68.7620   50.0540 C.2   184  ASN184      0.2266
    112  O         82.5140   69.0780   49.2210 O.2   184  ASN184     -0.2867
    113  CB        82.8300   67.2000   51.9120 C.3   184  ASN184      0.1155
    114  CG        83.5570   66.8290   53.1940 C.2   184  ASN184      0.2627
    115  OD1       84.7510   67.0800   53.3220 O.2   184  ASN184     -0.2716
    116  ND2       82.8280   66.2390   54.1610 N.am  184  ASN184     -0.0877
    117  N         85.5330   63.6690   48.4970 N.3   188  ILE188     -0.1245
    118  CA        85.0280   63.1030   49.7500 C.3   188  ILE188      0.1561
    119  C         83.5980   62.5930   49.5800 C.2   188  ILE188      0.2260
    120  O         83.2470   61.4960   50.0120 O.2   188  ILE188     -0.2867
    121  CB        85.1040   64.1250   50.9030 C.3   188  ILE188      0.0252
    122  CG1       86.5520   64.5940   51.1220 C.3   188  ILE188      0.0019
    123  CG2       84.4450   63.5620   52.1730 C.3   188  ILE188      0.0019
    124  CD1       87.5200   63.4960   51.4830 C.3   188  ILE188      0.0001
    125  N         90.3740   73.7650   51.7610 N.3   208  ASP208     -0.1239
    126  CA        91.0660   73.2430   52.9180 C.3   208  ASP208      0.1674
    127  C         91.8220   71.9740   52.5440 C.2   208  ASP208      0.2266
    128  O         91.4970   71.2930   51.5570 O.2   208  ASP208     -0.2867
    129  CB        90.0530   72.9850   54.0440 C.3   208  ASP208      0.1410
    130  CG        90.7030   72.7340   55.3800 C.2   208  ASP208      0.3668
    131  OD1       91.7760   73.3220   55.6220 O.co2 208  ASP208     -0.2456
    132  OD2       90.0990   71.9530   56.1530 O.co2 208  ASP208     -0.2456
    133  N         94.9890   69.0170   54.5290 N.3   210  PHE210     -0.1241
    134  CA        95.3690   68.2370   55.7150 C.3   210  PHE210      0.1605
    135  C         96.8360   68.4650   55.9980 C.2   210  PHE210      0.2264
    136  O         97.6910   68.0840   55.1840 O.2   210  PHE210     -0.2867
    137  CB        95.1960   66.7190   55.5350 C.3   210  PHE210      0.0534
    138  CG        93.7950   66.2510   55.2240 C.ar  210  PHE210     -0.0203
    139  CD1       92.9150   65.9380   56.2570 C.ar  210  PHE210     -0.0042
    140  CD2       93.3760   66.0480   53.9150 C.ar  210  PHE210     -0.0042
    141  CE1       91.6410   65.4470   55.9620 C.ar  210  PHE210     -0.0003
    142  CE2       92.1050   65.5700   53.6430 C.ar  210  PHE210     -0.0003
    143  CZ        91.2470   65.2740   54.6600 C.ar  210  PHE210     -0.0000
@<TRIPOS>BOND
     1    50    49    2
     2   117   118    1
     3    58    57    2
     4    55    56    1
     5    57    56    1
     6   112   111    2
     7    49    48    1
     8    56    59    1
     9   119   118    1
    10   119   120    2
    11   118   121    1
    12   111   110    1
    13    47    48    1
    14    48    51    1
    15    59    60    1
    16   121   122    1
    17   121   123    1
    18   122   124    1
    19    53    52    2
    20   110   109    1
    21   110   113    1
    22    60    61    1
    23   128   127    2
    24   125   126    1
    25    51    52    1
    26   113   114    1
    27    52    54   am
    28   127   126    1
    29    15    14    1
    30   126   129    1
    31    61    62    1
    32   114   115    2
    33   114   116   am
    34   142   140   ar
    35   142   143   ar
    36    62    63    2
    37   140   138   ar
    38    13    14    1
    39    13    10    1
    40   129   130    1
    41    64    63    1
    42    14    16    1
    43    63    65    1
    44   133   134    1
    45    11    10    1
    46    11    12    2
    47   143   141   ar
    48    10     9    1
    49   108   106   ar
    50   108   107   ar
    51   136   135    2
    52   138   137    1
    53   138   139   ar
    54   130   131   ar
    55   130   132   ar
    56   137   134    1
    57   106   104   ar
    58   134   135    1
    59   107   105   ar
    60   141   139   ar
    61     9     3   am
    62    92    93   ar
    63    92    90   ar
    64    95    93   ar
    65    95    97   ar
    66   104   103   ar
    67   105   103   ar
    68     7     6    2
    69     4     3    2
    70     3     2    1
    71    93    91   ar
    72   103   102    1
    73    97    96   ar
    74    90    89   ar
    75    76    74    1
    76    69    68    2
    77     6     8   am
    78     6     5    1
    79    38    37    1
    80    37    34    1
    81     1     2    1
    82     2     5    1
    83    34    33    1
    84    34    35    1
    85    91    89   ar
    86    91    94   ar
    87    89    88    1
    88   102    99    1
    89    66    67    1
    90    82    83    1
    91    82    81    1
    92    74    75    1
    93    74    73    2
    94    96    94   ar
    95    72    73    1
    96    72    71    1
    97    33    27   am
    98    83    77    1
    99    68    67    1
   100   101   100    2
   101    28    27    2
   102    70    67    1
   103    70    71    1
   104    27    26    1
   105    25    26    1
   106    35    36    2
   107    99   100    1
   108    99    98    1
   109    26    29    1
   110    88    85    1
   111    85    84    1
   112    85    86    1
   113    87    86    2
   114    77    78    1
   115    81    78    1
   116    78    79    1
   117    24    22   ar
   118    46    44    1
   119    29    30    1
   120    23    22   ar
   121    44    43    1
   122    22    21    1
   123    39    40    1
   124    30    31    1
   125    30    32    1
   126    79    80    2
   127    43    40    1
   128    43    45    1
   129    40    41    1
   130    21    18    1
   131    41    42    2
   132    18    17    1
   133    18    19    1
   134    19    20    2
