@<TRIPOS>MOLECULE
tmp/4oaqB00.pdb
 98 93 0 0 0
SMALL
GASTEIGER

@<TRIPOS>ATOM
      1  N         45.1590   11.7250   -7.7370 N.3    47  TYR47      -0.1241
      2  CA        44.2270   12.5230   -8.5500 C.3    47  TYR47       0.1605
      3  C         42.9990   12.9680   -7.7510 C.2    47  TYR47       0.2264
      4  O         42.3770   14.0180   -8.0120 O.2    47  TYR47      -0.2867
      5  CB        43.8150   11.7700   -9.8050 C.3    47  TYR47       0.0534
      6  CG        43.3500   12.7010  -10.8810 C.ar   47  TYR47      -0.0201
      7  CD1       44.2270   13.1820  -11.8390 C.ar   47  TYR47      -0.0009
      8  CD2       42.0370   13.1450  -10.9130 C.ar   47  TYR47      -0.0009
      9  CE1       43.7950   14.0650  -12.8180 C.ar   47  TYR47       0.0417
     10  CE2       41.5980   14.0070  -11.8850 C.ar   47  TYR47       0.0417
     11  CZ        42.4770   14.4700  -12.8260 C.ar   47  TYR47       0.1957
     12  OH        42.0180   15.3290  -13.7780 O.3    47  TYR47      -0.2866
     13  N         40.4230   16.2000   -7.5090 N.3    51  HIS51      -0.1241
     14  CA        38.9560   16.1520   -7.3520 C.3    51  HIS51       0.1621
     15  C         38.5260   17.0160   -6.1650 C.2    51  HIS51       0.2264
     16  O         37.6440   17.8490   -6.2950 O.2    51  HIS51      -0.2867
     17  CB        38.4510   14.7240   -7.1040 C.3    51  HIS51       0.0745
     18  CG        38.5010   13.8370   -8.3050 C.ar   51  HIS51       0.0817
     19  ND1       38.2870   14.2910   -9.5870 N.ar   51  HIS51      -0.2268
     20  CD2       38.7220   12.5000   -8.4130 C.ar   51  HIS51       0.1154
     21  CE1       38.3800   13.2840  -10.4350 C.ar   51  HIS51       0.1986
     22  NE2       38.6410   12.1860   -9.7450 N.ar   51  HIS51      -0.2212
     23  N         47.3590    4.8670  -16.0420 N.3   193  GLY193     -0.1210
     24  CA        47.7610    6.1330  -15.4530 C.3   193  GLY193      0.1956
     25  C         48.3710    5.8540  -14.0950 C.2   193  GLY193      0.2612
     26  O         48.9310    4.7730  -13.9000 O.2   193  GLY193     -0.2717
     27  N         48.2870    6.8150  -13.1730 N.am  194  GLY194     -0.1942
     28  CA        48.7650    6.6310  -11.8100 C.3   194  GLY194      0.2014
     29  C         48.3590    5.2900  -11.2250 C.2   194  GLY194      0.2639
     30  O         49.1880    4.5600  -10.6870 O.2   194  GLY194     -0.2714
     31  N         47.0760    4.9650  -11.3320 N.am  195  LEU195     -0.1963
     32  CA        46.5500    3.7240  -10.7770 C.3   195  LEU195      0.1728
     33  C         46.8530    2.5320  -11.6720 C.2   195  LEU195      0.2616
     34  O         47.3490    1.5130  -11.1970 O.2   195  LEU195     -0.2715
     35  CB        45.0300    3.8070  -10.5950 C.3   195  LEU195      0.0311
     36  CG        44.4140    4.8660   -9.6790 C.3   195  LEU195      0.0022
     37  CD1       42.8810    4.7610   -9.6120 C.3   195  LEU195      0.0001
     38  CD2       44.9820    4.7310   -8.3270 C.3   195  LEU195      0.0001
     39  N         46.5220    2.6360  -12.9590 N.am  196  GLY196     -0.1955
     40  CA        46.6780    1.4880  -13.8400 C.3   196  GLY196      0.1869
     41  C         48.1040    0.9740  -13.9310 C.2   196  GLY196      0.2309
     42  O         48.3460   -0.2350  -14.1220 O.2   196  GLY196     -0.2863
     43  N         40.5740    1.5040  -14.2550 N.3   254  CYS254     -0.1221
     44  CA        41.4510    2.3350  -13.4410 C.3   254  CYS254      0.1808
     45  C         41.2530    3.8130  -13.7600 C.2   254  CYS254      0.2601
     46  O         42.0850    4.4730  -14.4230 O.2   254  CYS254     -0.2717
     47  CB        42.9170    1.8850  -13.5510 C.3   254  CYS254      0.0970
     48  SG        43.2330    0.2730  -12.7030 S.3   254  CYS254     -0.0800
     49  N         40.1170    4.3130  -13.2730 N.am  255  ALA255     -0.1965
     50  CA        39.7210    5.7150  -13.4020 C.3   255  ALA255      0.1728
     51  C         39.4760    6.1680  -14.8400 C.2   255  ALA255      0.2617
     52  O         39.5520    7.3610  -15.1360 O.2   255  ALA255     -0.2715
     53  CB        40.7330    6.6330  -12.7130 C.3   255  ALA255      0.0334
     54  N         39.1820    5.2340  -15.7390 N.am  256  SER256     -0.1936
     55  CA        38.7780    5.6360  -17.0840 C.3   256  SER256      0.2055
     56  C         37.3150    6.0360  -17.0470 C.2   256  SER256      0.2643
     57  O         36.5120    5.3500  -16.4210 O.2   256  SER256     -0.2714
     58  CB        38.9820    4.5110  -18.0970 C.3   256  SER256      0.2130
     59  OG        40.2490    4.6090  -18.7160 O.3   256  SER256     -0.2179
     60  N         36.9780    7.1360  -17.7160 N.am  257  GLY257     -0.1954
     61  CA        35.6440    7.7100  -17.6670 C.3   257  GLY257      0.1869
     62  C         34.5820    6.7510  -18.1620 C.2   257  GLY257      0.2309
     63  O         34.5970    6.3490  -19.3300 O.2   257  GLY257     -0.2863
     64  N         38.9020    4.8380   -8.4920 N.3   280  GLY280     -0.1225
     65  CA        39.4310    6.1640   -8.7800 C.3   280  GLY280      0.1811
     66  C         38.4780    7.1350   -9.4490 C.2   280  GLY280      0.2280
     67  O         38.8950    8.1810   -9.9560 O.2   280  GLY280     -0.2866
     68  N         49.5220   16.9160  -13.3470 N.3   346  CYS346     -0.1221
     69  CA        48.7720   15.7420  -12.9300 C.3   346  CYS346      0.1808
     70  C         47.3410   15.8150  -13.4480 C.2   346  CYS346      0.2601
     71  O         46.8220   14.8350  -13.9930 O.2   346  CYS346     -0.2717
     72  CB        48.8200   15.5740  -11.4080 C.3   346  CYS346      0.0970
     73  SG        47.8900   14.1270  -10.8810 S.3   346  CYS346     -0.0800
     74  N         46.7380   17.0020  -13.3610 N.am  347  HIS347     -0.1975
     75  CA        45.4200   17.2200  -13.9330 C.3   347  HIS347      0.1656
     76  C         45.4420   16.9350  -15.4300 C.2   347  HIS347      0.2291
     77  O         44.4920   16.3660  -15.9680 O.2   347  HIS347     -0.2864
     78  CB        44.9370   18.6560  -13.6590 C.3   347  HIS347      0.0771
     79  CG        43.6350   19.0040  -14.3060 C.ar  347  HIS347      0.0820
     80  ND1       43.5460   19.8700  -15.3780 N.ar  347  HIS347     -0.2267
     81  CD2       42.3620   18.6350  -14.0160 C.ar  347  HIS347      0.1154
     82  CE1       42.2790   20.0050  -15.7290 C.ar  347  HIS347      0.1986
     83  NE2       41.5390   19.2650  -14.9240 N.ar  347  HIS347     -0.2212
     84  N         47.3010   14.7500  -17.0840 N.3   349  GLY349     -0.1225
     85  CA        47.6780   13.3940  -17.4670 C.3   349  GLY349      0.1811
     86  C         49.1680   13.3100  -17.7570 C.2   349  GLY349      0.2280
     87  O         49.7000   12.2660  -18.1550 O.2   349  GLY349     -0.2866
     88  N         53.5900    9.0270  -11.3630 N.3   354  ARG354     -0.1245
     89  CA        53.1110    9.5720  -10.0980 C.3   354  ARG354      0.1563
     90  C         54.0590   10.6650   -9.6540 C.2   354  ARG354      0.2260
     91  O         55.2690   10.4390   -9.6380 O.2   354  ARG354     -0.2867
     92  CB        53.0860    8.4700   -9.0410 C.3   354  ARG354      0.0307
     93  CG        51.6870    8.0400   -8.6010 C.3   354  ARG354      0.0489
     94  CD        51.0140    9.1450   -7.8190 C.3   354  ARG354      0.2205
     95  NE        49.8820    8.6850   -7.0120 N.pl3 354  ARG354     -0.0865
     96  CZ        48.6320    8.5770   -7.4570 C.cat 354  ARG354      0.5346
     97  NH1       48.3450    8.8680   -8.7190 N.pl3 354  ARG354      0.1354
     98  NH2       47.6670    8.1690   -6.6430 N.pl3 354  ARG354      0.1354
@<TRIPOS>BOND
     1    63    62    2
     2    59    58    1
     3    62    61    1
     4    87    86    2
     5    58    55    1
     6    86    85    1
     7    60    61    1
     8    60    56   am
     9    85    84    1
    10    55    56    1
    11    55    54    1
    12    56    57    2
    13    23    24    1
    14    77    76    2
    15    54    51   am
    16    82    80   ar
    17    82    83   ar
    18    24    25    1
    19    76    75    1
    20    80    79   ar
    21    52    51    2
    22    83    81   ar
    23    51    50    1
    24    46    45    2
    25    79    81   ar
    26    79    78    1
    27    43    44    1
    28    42    41    2
    29    25    26    2
    30    25    27   am
    31    71    70    2
    32    75    78    1
    33    75    74    1
    34    41    40    1
    35    40    39    1
    36    12    11    1
    37    45    44    1
    38    45    49   am
    39    47    44    1
    40    47    48    1
    41    70    74   am
    42    70    69    1
    43    50    49    1
    44    50    53    1
    45    68    69    1
    46    27    28    1
    47    39    33   am
    48    69    72    1
    49    11     9   ar
    50    11    10   ar
    51     9     7   ar
    52    10     8   ar
    53     7     6   ar
    54    28    29    1
    55    33    34    2
    56    33    32    1
    57    72    73    1
    58    88    89    1
    59    31    29   am
    60    31    32    1
    61    29    30    2
    62     8     6   ar
    63     6     5    1
    64    32    35    1
    65    35    36    1
    66    21    22   ar
    67    21    19   ar
    68    89    90    1
    69    89    92    1
    70    67    66    2
    71     5     2    1
    72    22    20   ar
    73    36    37    1
    74    36    38    1
    75    90    91    2
    76    19    18   ar
    77    66    65    1
    78    92    93    1
    79    65    64    1
    80    97    96    1
    81    93    94    1
    82     2     3    1
    83     2     1    1
    84    20    18   ar
    85    18    17    1
    86     4     3    2
    87    94    95    1
    88    13    14    1
    89    96    95    2
    90    96    98    1
    91    14    17    1
    92    14    15    1
    93    16    15    2
