@<TRIPOS>MOLECULE
tmp/4oarA01.pdb
 189 179 0 0 0
SMALL
GASTEIGER

@<TRIPOS>ATOM
      1  N         23.1570   20.7890   17.3230 N.3    34  LEU34      -0.1245
      2  CA        21.8400   20.2570   16.9940 C.3    34  LEU34       0.1561
      3  C         21.0190   20.0010   18.2550 C.2    34  LEU34       0.2260
      4  O         19.7930   20.1420   18.2390 O.2    34  LEU34      -0.2867
      5  CB        21.9640   18.9710   16.1720 C.3    34  LEU34       0.0270
      6  CG        22.2480   19.1460   14.6760 C.3    34  LEU34       0.0019
      7  CD1       23.0530   17.9650   14.1460 C.3    34  LEU34       0.0001
      8  CD2       20.9370   19.2950   13.9090 C.3    34  LEU34       0.0001
      9  N         19.6410   23.3750   19.4900 N.3    37  LEU37      -0.1231
     10  CA        18.5240   23.8260   18.6680 C.3    37  LEU37       0.1693
     11  C         17.2200   23.1020   18.9870 C.2    37  LEU37       0.2592
     12  O         16.1540   23.7180   19.0070 O.2    37  LEU37      -0.2718
     13  CB        18.8580   23.6750   17.1850 C.3    37  LEU37       0.0284
     14  CG        19.9210   24.6420   16.6580 C.3    37  LEU37       0.0019
     15  CD1       20.3560   24.2310   15.2460 C.3    37  LEU37       0.0001
     16  CD2       19.3840   26.0740   16.6860 C.3    37  LEU37       0.0001
     17  N         17.3030   21.7960   19.2230 N.am   38  ASN38      -0.1974
     18  CA        16.1220   21.0150   19.5590 C.3    38  ASN38       0.1688
     19  C         15.5650   21.4470   20.9120 C.2    38  ASN38       0.2292
     20  O         14.3520   21.5830   21.0650 O.2    38  ASN38      -0.2864
     21  CB        16.4350   19.5190   19.5350 C.3    38  ASN38       0.1181
     22  CG        16.5710   18.9770   18.1170 C.2    38  ASN38       0.2629
     23  OD1       16.4670   19.7210   17.1380 O.2    38  ASN38      -0.2716
     24  ND2       16.7990   17.6760   18.0010 N.am   38  ASN38      -0.0877
     25  N         15.8940   24.3780   22.2220 N.3    40  LEU40      -0.1231
     26  CA        15.3450   25.7130   22.0310 C.3    40  LEU40       0.1693
     27  C         13.9800   25.6110   21.3550 C.2    40  LEU40       0.2593
     28  O         13.0350   26.2960   21.7410 O.2    40  LEU40      -0.2718
     29  CB        16.3070   26.5690   21.1990 C.3    40  LEU40       0.0284
     30  CG        16.0030   28.0640   21.0700 C.3    40  LEU40       0.0019
     31  CD1       15.9640   28.7050   22.4440 C.3    40  LEU40       0.0001
     32  CD2       17.0430   28.7330   20.1970 C.3    40  LEU40       0.0001
     33  N         13.8820   24.7180   20.3750 N.am   41  GLY41      -0.1942
     34  CA        12.6340   24.5160   19.6630 C.3    41  GLY41       0.2014
     35  C         11.5010   24.0690   20.5700 C.2    41  GLY41       0.2638
     36  O         10.3760   24.5540   20.4350 O.2    41  GLY41      -0.2714
     37  N         11.7980   23.1480   21.4920 N.am   42  GLU42      -0.1977
     38  CA        10.8070   22.6410   22.4420 C.3    42  GLU42       0.1602
     39  C         10.3190   23.7730   23.3370 C.2    42  GLU42       0.2287
     40  O          9.1200   23.9150   23.5660 O.2    42  GLU42      -0.2864
     41  CB        11.3940   21.5150   23.3030 C.3    42  GLU42       0.0415
     42  CG        11.8730   20.3030   22.5000 C.3    42  GLU42       0.1163
     43  CD        12.3370   19.1320   23.3680 C.2    42  GLU42       0.3649
     44  OE1       11.6160   18.1100   23.4160 O.co2  42  GLU42      -0.2457
     45  OE2       13.4250   19.2180   23.9810 O.co2  42  GLU42      -0.2457
     46  N         10.4790   27.0300   22.6790 N.3    44  GLN44      -0.1231
     47  CA         9.7750   28.0120   21.8600 C.3    44  GLN44       0.1698
     48  C          8.3640   27.5760   21.4790 C.2    44  GLN44       0.2592
     49  O          7.4890   28.4200   21.2610 O.2    44  GLN44      -0.2718
     50  CB        10.5920   28.3800   20.6140 C.3    44  GLN44       0.0381
     51  CG        11.7200   29.3700   20.9190 C.3    44  GLN44       0.0905
     52  CD        12.4960   29.8180   19.6880 C.2    44  GLN44       0.2608
     53  OE1       13.4330   30.6130   19.7870 O.2    44  GLN44      -0.2717
     54  NE2       12.1100   29.3110   18.5230 N.am   44  GLN44      -0.0878
     55  N          8.1430   26.2640   21.4180 N.am   45  LEU45      -0.1980
     56  CA         6.8260   25.7280   21.0850 C.3    45  LEU45       0.1596
     57  C          5.8370   26.0440   22.2110 C.2    45  LEU45       0.2287
     58  O          4.7190   26.5070   21.9580 O.2    45  LEU45      -0.2864
     59  CB         6.8950   24.2150   20.8570 C.3    45  LEU45       0.0297
     60  CG         5.5830   23.5410   20.4310 C.3    45  LEU45       0.0022
     61  CD1        5.1640   23.9950   19.0370 C.3    45  LEU45       0.0001
     62  CD2        5.7480   22.0350   20.4640 C.3    45  LEU45       0.0001
     63  N          3.5130   26.6590   13.7530 N.3    74  TRP74      -0.1227
     64  CA         4.7100   26.7270   14.5910 C.3    74  TRP74       0.1737
     65  C          6.0400   26.9630   13.8770 C.2    74  TRP74       0.2595
     66  O          6.8530   27.7570   14.3610 O.2    74  TRP74      -0.2718
     67  CB         4.7950   25.5600   15.5910 C.3    74  TRP74       0.0564
     68  CG         4.9930   24.1950   14.9970 C.ar   74  TRP74       0.0003
     69  CD1        4.0260   23.2760   14.7180 C.ar   74  TRP74       0.0946
     70  CD2        6.2450   23.5850   14.6410 C.ar   74  TRP74       0.0152
     71  NE1        4.5950   22.1320   14.2100 N.ar   74  TRP74      -0.2442
     72  CE2        5.9550   22.2950   14.1520 C.ar   74  TRP74       0.0810
     73  CE3        7.5840   24.0070   14.6910 C.ar   74  TRP74       0.0012
     74  CZ2        6.9550   21.4170   13.7090 C.ar   74  TRP74       0.0191
     75  CZ3        8.5750   23.1400   14.2530 C.ar   74  TRP74       0.0001
     76  CH2        8.2560   21.8580   13.7670 C.ar   74  TRP74       0.0015
     77  N          6.2390   26.3380   12.7120 N.am   75  MET75      -0.1979
     78  CA         7.4850   26.5130   11.9510 C.3    75  MET75       0.1605
     79  C          7.6150   27.9330   11.4350 C.2    75  MET75       0.2287
     80  O          8.6650   28.5500   11.5650 O.2    75  MET75      -0.2864
     81  CB         7.5390   25.5720   10.7520 C.3    75  MET75       0.0413
     82  CG         8.8360   25.5880    9.9770 C.3    75  MET75       0.0598
     83  SD        10.3280   25.2380   10.9190 S.3    75  MET75      -0.1393
     84  CE        10.2450   23.4820   10.9160 C.3    75  MET75       0.0692
     85  N          8.2590   30.4090   14.2850 N.3    78  MET78      -0.1230
     86  CA         9.6170   30.3140   14.8140 C.3    78  MET78       0.1702
     87  C         10.6770   30.9390   13.9050 C.2    78  MET78       0.2592
     88  O         11.5800   31.6280   14.3940 O.2    78  MET78      -0.2718
     89  CB         9.9960   28.8530   15.0570 C.3    78  MET78       0.0401
     90  CG         9.3190   28.2300   16.2660 C.3    78  MET78       0.0596
     91  SD         9.9500   26.5850   16.6450 S.3    78  MET78      -0.1393
     92  CE         9.1460   26.2670   18.2140 C.3    78  MET78       0.0692
     93  N         10.5580   30.7330   12.5920 N.am   79  VAL79      -0.1980
     94  CA        11.5220   31.3140   11.6680 C.3    79  VAL79       0.1595
     95  C         11.2830   32.8210   11.4530 C.2    79  VAL79       0.2287
     96  O         12.2000   33.5530   11.0930 O.2    79  VAL79      -0.2864
     97  CB        11.5570   30.5560   10.3100 C.3    79  VAL79       0.0276
     98  CG1       10.4210   31.0020    9.3920 C.3    79  VAL79       0.0022
     99  CG2       12.9090   30.7640    9.6290 C.3    79  VAL79       0.0022
    100  N         12.8410   34.4410   14.5330 N.3    82  LEU82      -0.1245
    101  CA        14.2900   34.4080   14.3550 C.3    82  LEU82       0.1561
    102  C         14.6630   35.5750   13.4390 C.2    82  LEU82       0.2260
    103  O         15.6360   36.2930   13.6840 O.2    82  LEU82      -0.2867
    104  CB        14.7100   33.0850   13.7070 C.3    82  LEU82       0.0270
    105  CG        16.1630   32.9410   13.2400 C.3    82  LEU82       0.0019
    106  CD1       17.0840   32.8480   14.4500 C.3    82  LEU82       0.0001
    107  CD2       16.3120   31.7030   12.3450 C.3    82  LEU82       0.0001
    108  N         14.5550   38.9640   15.5220 N.3    85  ARG85      -0.1245
    109  CA        15.6740   39.0790   16.4610 C.3    85  ARG85       0.1563
    110  C         16.9990   39.3540   15.7370 C.2    85  ARG85       0.2260
    111  O         17.7690   40.2250   16.1510 O.2    85  ARG85      -0.2867
    112  CB        15.8020   37.8140   17.3180 C.3    85  ARG85       0.0307
    113  CG        14.6520   37.6020   18.2860 C.3    85  ARG85       0.0489
    114  CD        14.9340   36.4690   19.2800 C.3    85  ARG85       0.2205
    115  NE        15.2090   35.1960   18.6140 N.pl3  85  ARG85      -0.0865
    116  CZ        14.2790   34.3380   18.1980 C.cat  85  ARG85       0.5346
    117  NH1       12.9930   34.6070   18.3700 N.pl3  85  ARG85       0.1354
    118  NH2       14.6370   33.1910   17.6300 N.pl3  85  ARG85       0.1354
    119  N         19.5020   33.1140   17.1850 N.3    97  PHE97      -0.1241
    120  CA        18.5430   32.1170   17.6660 C.3    97  PHE97       0.1605
    121  C         18.1270   32.4420   19.1030 C.2    97  PHE97       0.2264
    122  O         16.9530   32.3440   19.4620 O.2    97  PHE97      -0.2867
    123  CB        19.1350   30.7010   17.5870 C.3    97  PHE97       0.0534
    124  CG        19.2490   30.1640   16.1890 C.ar   97  PHE97      -0.0203
    125  CD1       20.4250   30.3270   15.4570 C.ar   97  PHE97      -0.0042
    126  CD2       18.1840   29.4880   15.6020 C.ar   97  PHE97      -0.0042
    127  CE1       20.5390   29.8220   14.1550 C.ar   97  PHE97      -0.0003
    128  CE2       18.2810   28.9730   14.2940 C.ar   97  PHE97      -0.0003
    129  CZ        19.4610   29.1410   13.5700 C.ar   97  PHE97      -0.0000
    130  N         24.8530   22.3930    7.7650 N.3   113  PHE113     -0.1241
    131  CA        23.5630   22.8700    7.2760 C.3   113  PHE113      0.1605
    132  C         23.6110   24.3300    6.8470 C.2   113  PHE113      0.2264
    133  O         22.7140   25.1160    7.1610 O.2   113  PHE113     -0.2867
    134  CB        22.4640   22.6520    8.3330 C.3   113  PHE113      0.0534
    135  CG        22.7430   23.3110    9.6610 C.ar  113  PHE113     -0.0203
    136  CD1       22.3460   24.6240    9.8990 C.ar  113  PHE113     -0.0042
    137  CD2       23.3820   22.6130   10.6740 C.ar  113  PHE113     -0.0042
    138  CE1       22.5810   25.2350   11.1280 C.ar  113  PHE113     -0.0003
    139  CE2       23.6240   23.2140   11.9070 C.ar  113  PHE113     -0.0003
    140  CZ        23.2210   24.5290   12.1330 C.ar  113  PHE113     -0.0000
    141  N         20.5550   25.3830    4.7880 N.3   116  LEU116     -0.1245
    142  CA        19.3950   25.7270    5.6090 C.3   116  LEU116      0.1561
    143  C         19.5710   27.1510    6.1560 C.2   116  LEU116      0.2260
    144  O         18.6390   27.9660    6.0900 O.2   116  LEU116     -0.2867
    145  CB        19.2530   24.7380    6.7710 C.3   116  LEU116      0.0270
    146  CG        18.1660   25.0390    7.8120 C.3   116  LEU116      0.0019
    147  CD1       16.7900   24.7940    7.2210 C.3   116  LEU116      0.0001
    148  CD2       18.3660   24.1790    9.0500 C.3   116  LEU116      0.0001
    149  N         16.9650   30.3770    5.8020 N.3   120  MET120     -0.1245
    150  CA        16.4110   31.1350    6.9250 C.3   120  MET120      0.1570
    151  C         16.8830   32.5840    6.9520 C.2   120  MET120      0.2261
    152  O         16.1210   33.4860    7.3030 O.2   120  MET120     -0.2867
    153  CB        16.7380   30.4560    8.2590 C.3   120  MET120      0.0387
    154  CG        16.0460   29.1150    8.4470 C.3   120  MET120      0.0595
    155  SD        16.3640   28.3700   10.0580 S.3   120  MET120     -0.1393
    156  CE        18.1380   28.0850    9.9650 C.3   120  MET120      0.0692
    157  N         11.8080   24.1870    5.0040 N.3   206  LEU206     -0.1245
    158  CA        12.2270   23.9170    6.3800 C.3   206  LEU206      0.1561
    159  C         11.6990   22.5740    6.8810 C.2   206  LEU206      0.2260
    160  O         12.4030   21.8520    7.5930 O.2   206  LEU206     -0.2867
    161  CB        11.7870   25.0460    7.3310 C.3   206  LEU206      0.0270
    162  CG        12.3050   26.4710    7.0580 C.3   206  LEU206      0.0019
    163  CD1       11.9100   27.4080    8.1890 C.3   206  LEU206      0.0001
    164  CD2       13.8030   26.4750    6.9080 C.3   206  LEU206      0.0001
    165  N         13.8500   19.7870    5.3630 N.3   209  TYR209     -0.1227
    166  CA        15.1400   19.7200    6.0470 C.3   209  TYR209      0.1736
    167  C         14.9900   18.9380    7.3360 C.2   209  TYR209      0.2595
    168  O         15.7940   18.0520    7.6400 O.2   209  TYR209     -0.2718
    169  CB        15.6590   21.1220    6.3770 C.3   209  TYR209      0.0548
    170  CG        16.5130   21.7300    5.2930 C.ar  209  TYR209     -0.0200
    171  CD1       17.8130   21.2630    5.0560 C.ar  209  TYR209     -0.0009
    172  CD2       16.0260   22.7790    4.4990 C.ar  209  TYR209     -0.0009
    173  CE1       18.6120   21.8270    4.0500 C.ar  209  TYR209      0.0417
    174  CE2       16.8100   23.3500    3.4960 C.ar  209  TYR209      0.0417
    175  CZ        18.1040   22.8710    3.2730 C.ar  209  TYR209      0.1957
    176  OH        18.8670   23.4170    2.2580 O.3   209  TYR209     -0.2866
    177  N         13.9400   19.2750    8.0790 N.am  210  CYS210     -0.1970
    178  CA        13.6360   18.6260    9.3370 C.3   210  CYS210      0.1712
    179  C         13.4230   17.1330    9.1210 C.2   210  CYS210      0.2296
    180  O         13.9700   16.3110    9.8590 O.2   210  CYS210     -0.2864
    181  CB        12.3940   19.2580    9.9660 C.3   210  CYS210      0.0983
    182  SG        11.8660   18.4570   11.4960 S.3   210  CYS210     -0.0798
    183  N         16.7640   15.5110    8.1090 N.3   213  THR213     -0.1218
    184  CA        17.7160   15.4700    9.2120 C.3   213  THR213      0.1862
    185  C         17.3460   14.3250   10.1580 C.2   213  THR213      0.2287
    186  O         18.2130   13.7190   10.7930 O.2   213  THR213     -0.2866
    187  CB        17.7380   16.8110    9.9820 C.3   213  THR213      0.1770
    188  OG1       18.1430   17.8630    9.0960 O.3   213  THR213     -0.2211
    189  CG2       18.7110   16.7500   11.1500 C.3   213  THR213      0.0375
@<TRIPOS>BOND
     1   176   175    1
     2   175   174   ar
     3   175   173   ar
     4   174   172   ar
     5   173   171   ar
     6   172   170   ar
     7   141   142    1
     8   157   158    1
     9   171   170   ar
    10   170   169    1
    11   165   166    1
    12   142   143    1
    13   142   145    1
    14   149   150    1
    15   166   169    1
    16   166   167    1
    17   144   143    2
    18   158   159    1
    19   158   161    1
    20   145   146    1
    21   132   133    2
    22   132   131    1
    23   159   160    2
    24   164   162    1
    25   150   151    1
    26   150   153    1
    27   151   152    2
    28   162   161    1
    29   162   163    1
    30   147   146    1
    31   131   130    1
    32   131   134    1
    33   167   168    2
    34   167   177   am
    35   146   148    1
    36   177   178    1
    37   183   184    1
    38   153   154    1
    39   134   135    1
    40   154   155    1
    41   188   187    1
    42   179   178    1
    43   179   180    2
    44   184   187    1
    45   184   185    1
    46   178   181    1
    47    98    97    1
    48    99    97    1
    49   135   136   ar
    50   135   137   ar
    51   136   138   ar
    52   156   155    1
    53   181   182    1
    54    82    81    1
    55    82    83    1
    56   187   189    1
    57   185   186    2
    58    97    94    1
    59   137   139   ar
    60    81    78    1
    61    84    83    1
    62    96    95    2
    63   138   140   ar
    64    79    80    2
    65    79    78    1
    66    95    94    1
    67    94    93    1
    68   139   140   ar
    69    78    77    1
    70   107   105    1
    71    93    87   am
    72    77    65   am
    73   105   104    1
    74   105   106    1
    75   102   103    2
    76   102   101    1
    77   129   127   ar
    78   129   128   ar
    79   104   101    1
    80    74    76   ar
    81    74    72   ar
    82    63    64    1
    83    76    75   ar
    84    65    66    2
    85    65    64    1
    86    87    88    2
    87    87    86    1
    88     8     6    1
    89     7     6    1
    90    72    71   ar
    91    72    70   ar
    92   127   125   ar
    93    71    69   ar
    94    75    73   ar
    95    85    86    1
    96   128   126   ar
    97   101   100    1
    98    64    67    1
    99    70    73   ar
   100    70    68   ar
   101     6     5    1
   102    69    68   ar
   103    86    89    1
   104    68    67    1
   105    89    90    1
   106    15    14    1
   107   125   124   ar
   108   108   109    1
   109   126   124   ar
   110   110   111    2
   111   110   109    1
   112     5     2    1
   113   124   123    1
   114    90    91    1
   115   109   112    1
   116    91    92    1
   117    14    16    1
   118    14    13    1
   119     2     1    1
   120     2     3    1
   121    23    22    2
   122    13    10    1
   123   119   120    1
   124   112   113    1
   125   123   120    1
   126   118   116    1
   127   120   121    1
   128    24    22   am
   129    22    21    1
   130   116   117    1
   131   116   115    2
   132     4     3    2
   133   113   114    1
   134    54    52   am
   135   115   114    1
   136    10    11    1
   137    10     9    1
   138    11    12    2
   139    11    17   am
   140    61    60    1
   141   121   122    2
   142    17    18    1
   143    21    18    1
   144    18    19    1
   145    34    33    1
   146    34    35    1
   147    52    53    2
   148    52    51    1
   149    32    30    1
   150    33    27   am
   151    60    62    1
   152    60    59    1
   153    36    35    2
   154    35    37   am
   155    50    51    1
   156    50    47    1
   157    59    56    1
   158    19    20    2
   159    30    29    1
   160    30    31    1
   161    56    55    1
   162    56    57    1
   163    29    26    1
   164    49    48    2
   165    27    28    2
   166    27    26    1
   167    55    48   am
   168    48    47    1
   169    37    38    1
   170    47    46    1
   171    58    57    2
   172    26    25    1
   173    38    41    1
   174    38    39    1
   175    42    41    1
   176    42    43    1
   177    39    40    2
   178    43    44   ar
   179    43    45   ar
