@<TRIPOS>MOLECULE
tmp/4oarA00.pdb
 142 135 0 0 0
SMALL
GASTEIGER

@<TRIPOS>ATOM
      1  N         11.7980   23.1480   21.4920 N.3    42  GLU42      -0.1245
      2  CA        10.8070   22.6410   22.4420 C.3    42  GLU42       0.1567
      3  C         10.3190   23.7730   23.3370 C.2    42  GLU42       0.2260
      4  O          9.1200   23.9150   23.5660 O.2    42  GLU42      -0.2867
      5  CB        11.3940   21.5150   23.3030 C.3    42  GLU42       0.0388
      6  CG        11.8730   20.3030   22.5000 C.3    42  GLU42       0.1160
      7  CD        12.3370   19.1320   23.3680 C.2    42  GLU42       0.3649
      8  OE1       11.6160   18.1100   23.4160 O.co2  42  GLU42      -0.2457
      9  OE2       13.4250   19.2180   23.9810 O.co2  42  GLU42      -0.2457
     10  N          8.1430   26.2640   21.4180 N.3    45  LEU45      -0.1231
     11  CA         6.8260   25.7280   21.0850 C.3    45  LEU45       0.1693
     12  C          5.8370   26.0440   22.2110 C.2    45  LEU45       0.2591
     13  O          4.7190   26.5070   21.9580 O.2    45  LEU45      -0.2718
     14  CB         6.8950   24.2150   20.8570 C.3    45  LEU45       0.0284
     15  CG         5.5830   23.5410   20.4310 C.3    45  LEU45       0.0019
     16  CD1        5.1640   23.9950   19.0370 C.3    45  LEU45       0.0001
     17  CD2        5.7480   22.0350   20.4640 C.3    45  LEU45       0.0001
     18  N          6.2590   25.8070   23.4510 N.am   46  LEU46      -0.1980
     19  CA         5.4090   26.0860   24.6030 C.3    46  LEU46       0.1596
     20  C          5.0910   27.5740   24.6490 C.2    46  LEU46       0.2287
     21  O          3.9910   27.9710   25.0460 O.2    46  LEU46      -0.2864
     22  CB         6.0740   25.6410   25.9140 C.3    46  LEU46       0.0297
     23  CG         6.4210   24.1480   25.9920 C.3    46  LEU46       0.0022
     24  CD1        7.1690   23.8430   27.2870 C.3    46  LEU46       0.0001
     25  CD2        5.1590   23.2960   25.8830 C.3    46  LEU46       0.0001
     26  N          2.2990   28.4170   22.0780 N.3    49  VAL49      -0.1245
     27  CA         1.0010   28.0400   22.6280 C.3    49  VAL49       0.1561
     28  C          0.5160   29.0640   23.6600 C.2    49  VAL49       0.2260
     29  O         -0.6320   29.5070   23.6080 O.2    49  VAL49      -0.2867
     30  CB         1.0430   26.6310   23.2690 C.3    49  VAL49       0.0252
     31  CG1       -0.2220   26.3790   24.0860 C.3    49  VAL49       0.0019
     32  CG2        1.1760   25.5750   22.1810 C.3    49  VAL49       0.0019
     33  N         -0.5020   32.3410   21.9180 N.3    52  SER52      -0.1202
     34  CA        -1.7730   32.2020   21.2060 C.3    52  SER52       0.2020
     35  C         -3.0250   32.3460   22.0870 C.2    52  SER52       0.2618
     36  O         -4.0460   32.8650   21.6410 O.2    52  SER52      -0.2717
     37  CB        -1.8200   30.8580   20.4720 C.3    52  SER52       0.2103
     38  OG        -2.0280   29.7910   21.3820 O.3    52  SER52      -0.2182
     39  N         -2.9450   31.8830   23.3300 N.am   53  LYS53      -0.1979
     40  CA        -4.0730   31.9680   24.2580 C.3    53  LYS53       0.1596
     41  C         -4.3580   33.3920   24.7510 C.2    53  LYS53       0.2287
     42  O         -5.4330   33.6650   25.2860 O.2    53  LYS53      -0.2864
     43  CB        -3.8440   31.0380   25.4530 C.3    53  LYS53       0.0298
     44  CG        -3.6710   29.5780   25.0630 C.3    53  LYS53       0.0038
     45  CD        -3.6440   28.6610   26.2780 C.3    53  LYS53       0.0206
     46  CE        -2.5020   28.9860   27.2180 C.3    53  LYS53       0.1093
     47  NZ        -2.5680   28.1340   28.4440 N.3    53  LYS53      -0.1314
     48  N         -8.5910   34.2270   19.4850 N.3    58  PHE58      -0.1227
     49  CA        -8.1560   32.8390   19.4580 C.3    58  PHE58       0.1736
     50  C         -8.9550   31.8680   20.3370 C.2    58  PHE58       0.2595
     51  O         -9.2210   30.7360   19.9310 O.2    58  PHE58      -0.2718
     52  CB        -6.6670   32.7440   19.8010 C.3    58  PHE58       0.0547
     53  CG        -6.0620   31.3960   19.4990 C.ar   58  PHE58      -0.0202
     54  CD1       -5.8040   31.0190   18.1830 C.ar   58  PHE58      -0.0042
     55  CD2       -5.7290   30.5160   20.5290 C.ar   58  PHE58      -0.0042
     56  CE1       -5.2180   29.7760   17.8890 C.ar   58  PHE58      -0.0003
     57  CE2       -5.1400   29.2730   20.2490 C.ar   58  PHE58      -0.0003
     58  CZ        -4.8850   28.9050   18.9220 C.ar   58  PHE58      -0.0000
     59  N         -9.3100   32.2960   21.5420 N.am   59  ARG59      -0.1980
     60  CA       -10.0640   31.4440   22.4580 C.3    59  ARG59       0.1597
     61  C        -11.5160   31.1970   22.0550 C.2    59  ARG59       0.2287
     62  O        -12.1500   30.2750   22.5610 O.2    59  ARG59      -0.2864
     63  CB        -9.9930   31.9880   23.8860 C.3    59  ARG59       0.0334
     64  CG        -8.6710   31.6890   24.5860 C.3    59  ARG59       0.0492
     65  CD        -8.2490   30.2410   24.3430 C.3    59  ARG59       0.2205
     66  NE        -7.4950   29.6840   25.4650 N.pl3  59  ARG59      -0.0865
     67  CZ        -7.3020   28.3800   25.6720 C.cat  59  ARG59       0.5346
     68  NH1       -7.7990   27.4770   24.8300 N.pl3  59  ARG59       0.1354
     69  NH2       -6.6380   27.9740   26.7500 N.pl3  59  ARG59       0.1354
     70  N        -11.5680   24.1400   20.3140 N.3    63  ILE63      -0.1231
     71  CA       -10.2780   23.5930   20.7380 C.3    63  ILE63       0.1692
     72  C         -9.5490   22.8710   19.6030 C.2    63  ILE63       0.2592
     73  O         -8.3240   22.9260   19.5250 O.2    63  ILE63      -0.2718
     74  CB       -10.4410   22.6390   21.9630 C.3    63  ILE63       0.0266
     75  CG1       -9.0720   22.2580   22.5480 C.3    63  ILE63       0.0019
     76  CG2      -11.2110   21.3830   21.5650 C.3    63  ILE63       0.0020
     77  CD1       -8.2980   23.4300   23.1300 C.3    63  ILE63       0.0001
     78  N        -10.3080   22.2220   18.7190 N.am   64  ASP64      -0.1974
     79  CA        -9.7460   21.4950   17.5800 C.3    64  ASP64       0.1709
     80  C         -9.1780   22.4360   16.5150 C.2    64  ASP64       0.2293
     81  O         -8.2520   22.0740   15.7870 O.2    64  ASP64      -0.2864
     82  CB       -10.7970   20.5740   16.9540 C.3    64  ASP64       0.1436
     83  CG       -10.9840   19.2680   17.7280 C.2    64  ASP64       0.3671
     84  OD1      -10.3740   19.0840   18.8100 O.co2  64  ASP64      -0.2456
     85  OD2      -11.7550   18.4120   17.2420 O.co2  64  ASP64      -0.2456
     86  N         -7.9720   25.4400   17.3090 N.3    66  GLN66      -0.1231
     87  CA        -6.8050   25.9880   17.9880 C.3    66  GLN66       0.1698
     88  C         -5.5880   25.0790   17.8000 C.2    66  GLN66       0.2592
     89  O         -4.4880   25.5600   17.5240 O.2    66  GLN66      -0.2718
     90  CB        -7.0890   26.1860   19.4820 C.3    66  GLN66       0.0381
     91  CG        -8.1670   27.2280   19.7900 C.3    66  GLN66       0.0905
     92  CD        -8.4280   27.3990   21.2910 C.2    66  GLN66       0.2608
     93  OE1       -7.4990   27.4860   22.0900 O.2    66  GLN66      -0.2717
     94  NE2       -9.6970   27.4570   21.6680 N.am   66  GLN66      -0.0878
     95  N         -5.7980   23.7690   17.9240 N.am   67  ILE67      -0.1980
     96  CA        -4.7240   22.7940   17.7720 C.3    67  ILE67       0.1595
     97  C         -4.2110   22.7770   16.3380 C.2    67  ILE67       0.2287
     98  O         -3.0060   22.8680   16.0940 O.2    67  ILE67      -0.2864
     99  CB        -5.2000   21.3830   18.1750 C.3    67  ILE67       0.0276
    100  CG1       -5.5940   21.3800   19.6580 C.3    67  ILE67       0.0022
    101  CG2       -4.0920   20.3620   17.9320 C.3    67  ILE67       0.0022
    102  CD1       -6.3050   20.1280   20.1160 C.3    67  ILE67       0.0001
    103  N         -2.0740   25.8560   15.2570 N.3    70  ILE70      -0.1231
    104  CA        -0.7310   25.8060   15.8100 C.3    70  ILE70       0.1692
    105  C          0.1130   24.7490   15.0800 C.2    70  ILE70       0.2591
    106  O          1.2910   24.9790   14.8010 O.2    70  ILE70      -0.2718
    107  CB        -0.7570   25.5680   17.3370 C.3    70  ILE70       0.0266
    108  CG1       -1.4040   26.7740   18.0260 C.3    70  ILE70       0.0019
    109  CG2        0.6630   25.3620   17.8780 C.3    70  ILE70       0.0020
    110  CD1       -1.5600   26.6150   19.5270 C.3    70  ILE70       0.0001
    111  N         -0.4980   23.6200   14.7240 N.am   71  GLN71      -0.1979
    112  CA         0.2140   22.5670   13.9960 C.3    71  GLN71       0.1601
    113  C          0.6870   23.0890   12.6400 C.2    71  GLN71       0.2287
    114  O          1.8080   22.8170   12.2260 O.2    71  GLN71      -0.2864
    115  CB        -0.6690   21.3340   13.7870 C.3    71  GLN71       0.0394
    116  CG        -0.8820   20.4790   15.0340 C.3    71  GLN71       0.0908
    117  CD        -1.6740   19.2040   14.7390 C.2    71  GLN71       0.2608
    118  OE1       -2.7990   19.2600   14.2300 O.2    71  GLN71      -0.2717
    119  NE2       -1.0800   18.0500   15.0430 N.am   71  GLN71      -0.0878
    120  N          3.5130   26.6590   13.7530 N.3    74  TRP74      -0.1241
    121  CA         4.7100   26.7270   14.5910 C.3    74  TRP74       0.1605
    122  C          6.0400   26.9630   13.8770 C.2    74  TRP74       0.2264
    123  O          6.8530   27.7570   14.3610 O.2    74  TRP74      -0.2867
    124  CB         4.7950   25.5600   15.5910 C.3    74  TRP74       0.0550
    125  CG         4.9930   24.1950   14.9970 C.ar   74  TRP74       0.0003
    126  CD1        4.0260   23.2760   14.7180 C.ar   74  TRP74       0.0946
    127  CD2        6.2450   23.5850   14.6410 C.ar   74  TRP74       0.0152
    128  NE1        4.5950   22.1320   14.2100 N.ar   74  TRP74      -0.2442
    129  CE2        5.9550   22.2950   14.1520 C.ar   74  TRP74       0.0810
    130  CE3        7.5840   24.0070   14.6910 C.ar   74  TRP74       0.0012
    131  CZ2        6.9550   21.4170   13.7090 C.ar   74  TRP74       0.0191
    132  CZ3        8.5750   23.1400   14.2530 C.ar   74  TRP74       0.0001
    133  CH2        8.2560   21.8580   13.7670 C.ar   74  TRP74       0.0015
    134  N          3.1120   18.4520    5.2110 N.3   229  LYS229     -0.1245
    135  CA         3.7670   19.7260    5.4990 C.3   229  LYS229      0.1561
    136  C          4.8390   20.1350    4.4870 C.2   229  LYS229      0.2260
    137  O          5.4150   21.2190    4.5870 O.2   229  LYS229     -0.2867
    138  CB         4.3260   19.7310    6.9270 C.3   229  LYS229      0.0271
    139  CG         3.2380   19.8750    7.9940 C.3   229  LYS229      0.0035
    140  CD         3.7960   19.8080    9.4100 C.3   229  LYS229      0.0206
    141  CE         2.7080   20.1060   10.4410 C.3   229  LYS229      0.1093
    142  NZ         3.2010   20.0260   11.8520 N.3   229  LYS229     -0.1314
@<TRIPOS>BOND
     1   136   137    2
     2   136   135    1
     3   134   135    1
     4   135   138    1
     5   138   139    1
     6   139   140    1
     7   140   141    1
     8   141   142    1
     9   114   113    2
    10   113   112    1
    11   131   133   ar
    12   131   129   ar
    13   120   121    1
    14   133   132   ar
    15   115   112    1
    16   115   116    1
    17   122   123    2
    18   122   121    1
    19   112   111    1
    20   129   128   ar
    21   129   127   ar
    22   128   126   ar
    23   118   117    2
    24   132   130   ar
    25   121   124    1
    26   127   130   ar
    27   127   125   ar
    28   126   125   ar
    29   111   105   am
    30   117   116    1
    31   117   119   am
    32   106   105    2
    33   125   124    1
    34   105   104    1
    35   103   104    1
    36    81    80    2
    37   104   107    1
    38    98    97    2
    39    97    96    1
    40    80    79    1
    41    82    79    1
    42    82    83    1
    43    85    83   ar
    44    86    87    1
    45   107   109    1
    46   107   108    1
    47    89    88    2
    48    79    78    1
    49    83    84   ar
    50    96    95    1
    51    96    99    1
    52    88    95   am
    53    88    87    1
    54    56    54   ar
    55    56    58   ar
    56   101    99    1
    57    87    90    1
    58   108   110    1
    59    99   100    1
    60    54    53   ar
    61    78    72   am
    62    58    57   ar
    63    16    15    1
    64    49    48    1
    65    49    52    1
    66    49    50    1
    67    90    91    1
    68    53    52    1
    69    53    55   ar
    70    73    72    2
    71    72    71    1
    72   100   102    1
    73    91    92    1
    74    51    50    2
    75    57    55   ar
    76    70    71    1
    77    50    59   am
    78    15    17    1
    79    15    14    1
    80    37    34    1
    81    37    38    1
    82    71    74    1
    83    14    11    1
    84    11    10    1
    85    11    12    1
    86    34    33    1
    87    34    35    1
    88    92    94   am
    89    92    93    2
    90     1     2    1
    91    59    60    1
    92    76    74    1
    93    36    35    2
    94    13    12    2
    95    74    75    1
    96    61    60    1
    97    61    62    2
    98    26    27    1
    99    35    39   am
   100    32    30    1
   101    12    18   am
   102     2     5    1
   103     2     3    1
   104    60    63    1
   105     6     5    1
   106     6     7    1
   107    75    77    1
   108    27    30    1
   109    27    28    1
   110    30    31    1
   111    39    40    1
   112     3     4    2
   113     7     8   ar
   114     7     9   ar
   115    18    19    1
   116    29    28    2
   117    63    64    1
   118    40    41    1
   119    40    43    1
   120    65    64    1
   121    65    66    1
   122    19    20    1
   123    19    22    1
   124    20    21    2
   125    41    42    2
   126    68    67    1
   127    44    43    1
   128    44    45    1
   129    66    67    2
   130    67    69    1
   131    25    23    1
   132    22    23    1
   133    23    24    1
   134    45    46    1
   135    46    47    1
