@<TRIPOS>MOLECULE
tmp/4oatB00.pdb
 109 102 0 0 0
SMALL
GASTEIGER

@<TRIPOS>ATOM
      1  N        -24.2860    0.1940  -52.0880 N.3    18  LEU18      -0.1245
      2  CA       -25.0450    1.3740  -52.5000 C.3    18  LEU18       0.1561
      3  C        -24.1090    2.5010  -52.9520 C.2    18  LEU18       0.2260
      4  O        -24.3170    3.1350  -53.9900 O.2    18  LEU18      -0.2867
      5  CB       -25.9230    1.8630  -51.3450 C.3    18  LEU18       0.0270
      6  CG       -26.9030    0.8220  -50.8020 C.3    18  LEU18       0.0019
      7  CD1      -27.4040    1.2360  -49.4270 C.3    18  LEU18       0.0001
      8  CD2      -28.0520    0.6180  -51.7640 C.3    18  LEU18       0.0001
      9  N        -22.9530    5.4840  -56.5780 N.3    22  GLN22      -0.1245
     10  CA       -22.8840    6.9300  -56.4430 C.3    22  GLN22       0.1566
     11  C        -21.5160    7.4310  -56.8970 C.2    22  GLN22       0.2260
     12  O        -21.4120    8.4300  -57.6060 O.2    22  GLN22      -0.2867
     13  CB       -23.1630    7.3280  -55.0020 C.3    22  GLN22       0.0367
     14  CG       -24.5410    6.9360  -54.5270 C.3    22  GLN22       0.0905
     15  CD       -24.7250    7.2950  -53.0700 C.2    22  GLN22       0.2608
     16  OE1      -23.8760    6.9830  -52.2340 O.2    22  GLN22      -0.2717
     17  NE2      -25.8180    7.9830  -52.7610 N.am   22  GLN22      -0.0878
     18  N        -23.5940    8.7090  -48.0930 N.3    78  THR78      -0.1203
     19  CA       -24.4710    7.7340  -48.7310 C.3    78  THR78       0.1994
     20  C        -25.7880    7.5410  -47.9740 C.2    78  THR78       0.2618
     21  O        -26.8680    7.5880  -48.5540 O.2    78  THR78      -0.2717
     22  CB       -23.7340    6.3950  -48.8920 C.3    78  THR78       0.1784
     23  OG1      -22.6320    6.5760  -49.7920 O.3    78  THR78      -0.2211
     24  CG2      -24.6610    5.2880  -49.4050 C.3    78  THR78       0.0376
     25  N        -25.6950    7.3220  -46.6600 N.am   79  LEU79      -0.1965
     26  CA       -26.8710    6.9870  -45.8570 C.3    79  LEU79       0.1728
     27  C        -27.4080    8.1490  -45.0410 C.2    79  LEU79       0.2616
     28  O        -26.6460    8.9290  -44.4560 O.2    79  LEU79      -0.2715
     29  CB       -26.5510    5.8730  -44.8690 C.3    79  LEU79       0.0311
     30  CG       -26.1550    4.5290  -45.4670 C.3    79  LEU79       0.0022
     31  CD1      -25.8610    3.5640  -44.3240 C.3    79  LEU79       0.0001
     32  CD2      -27.2380    3.9770  -46.3760 C.3    79  LEU79       0.0001
     33  N        -28.7310    8.2140  -44.9270 N.am   80  SER80      -0.1950
     34  CA       -29.3570    9.1180  -43.9660 C.3    80  SER80       0.1924
     35  C        -28.8170    8.9130  -42.5420 C.2    80  SER80       0.2314
     36  O        -28.5950    9.8810  -41.8130 O.2    80  SER80      -0.2863
     37  CB       -30.8720    8.9690  -43.9680 C.3    80  SER80       0.2116
     38  OG       -31.4530    9.4060  -45.1840 O.3    80  SER80      -0.2180
     39  N        -28.7330   10.9910  -52.2370 N.3   101  SER101     -0.1202
     40  CA       -29.7130    9.9120  -52.1780 C.3   101  SER101      0.2020
     41  C        -30.3430    9.7350  -50.8080 C.2   101  SER101      0.2619
     42  O        -31.1060    8.7770  -50.6280 O.2   101  SER101     -0.2717
     43  CB       -29.1000    8.5760  -52.6360 C.3   101  SER101      0.2103
     44  OG       -28.4460    8.7190  -53.8870 O.3   101  SER101     -0.2182
     45  N        -30.0430   10.6200  -49.8560 N.am  102  ASN102     -0.1960
     46  CA       -30.5710   10.4340  -48.5090 C.3   102  ASN102      0.1819
     47  C        -31.9730   10.9790  -48.3170 C.2   102  ASN102      0.2621
     48  O        -32.2220   12.1860  -48.3620 O.2   102  ASN102     -0.2715
     49  CB       -29.5960   10.8810  -47.4230 C.3   102  ASN102      0.1195
     50  CG       -29.0900   12.3000  -47.6030 C.2   102  ASN102      0.2630
     51  OD1      -29.7150   13.1540  -48.2560 O.2   102  ASN102     -0.2716
     52  ND2      -27.9320   12.5670  -47.0120 N.am  102  ASN102     -0.0877
     53  N        -32.8890   10.0530  -48.0960 N.am  103  THR103     -0.1951
     54  CA       -34.3090   10.2990  -48.2440 C.3   103  THR103      0.1897
     55  C        -35.1140   10.2510  -46.9460 C.2   103  THR103      0.2313
     56  O        -36.3330   10.3800  -46.9730 O.2   103  THR103     -0.2863
     57  CB       -34.9160    9.3520  -49.2880 C.3   103  THR103      0.1794
     58  OG1      -34.6670    7.9980  -48.8790 O.3   103  THR103     -0.2208
     59  CG2      -34.2880    9.6020  -50.6690 C.3   103  THR103      0.0378
     60  N        -31.4100    1.4780  -38.6470 N.3   150  ASP150     -0.1239
     61  CA       -31.0750    2.3970  -39.7260 C.3   150  ASP150      0.1674
     62  C        -32.1110    3.5110  -39.8540 C.2   150  ASP150      0.2266
     63  O        -33.3090    3.2490  -39.9790 O.2   150  ASP150     -0.2867
     64  CB       -30.9400    1.6270  -41.0400 C.3   150  ASP150      0.1410
     65  CG       -30.6950    2.5460  -42.2110 C.2   150  ASP150      0.3668
     66  OD1      -29.5580    3.0420  -42.3310 O.co2 150  ASP150     -0.2456
     67  OD2      -31.6320    2.7790  -43.0080 O.co2 150  ASP150     -0.2456
     68  N        -32.9160    5.7850  -42.1830 N.3   152  PHE152     -0.1241
     69  CA       -33.7490    5.8260  -43.3760 C.3   152  PHE152      0.1605
     70  C        -34.7870    4.6970  -43.3700 C.2   152  PHE152      0.2264
     71  O        -35.9410    4.9130  -43.7350 O.2   152  PHE152     -0.2867
     72  CB       -32.8920    5.7810  -44.6430 C.3   152  PHE152      0.0534
     73  CG       -33.5050    4.9770  -45.7570 C.ar  152  PHE152     -0.0203
     74  CD1      -34.4350    5.5360  -46.6280 C.ar  152  PHE152     -0.0042
     75  CD2      -33.1490    3.6440  -45.9230 C.ar  152  PHE152     -0.0042
     76  CE1      -34.9970    4.7760  -47.6440 C.ar  152  PHE152     -0.0003
     77  CE2      -33.7080    2.8800  -46.9260 C.ar  152  PHE152     -0.0003
     78  CZ       -34.6330    3.4420  -47.7850 C.ar  152  PHE152     -0.0000
     79  N        -31.2760   -2.1860  -46.1350 N.3   204  LEU204     -0.1245
     80  CA       -30.2720   -1.8720  -47.1350 C.3   204  LEU204      0.1561
     81  C        -30.0960   -3.0790  -48.0710 C.2   204  LEU204      0.2260
     82  O        -30.9870   -3.9270  -48.1500 O.2   204  LEU204     -0.2867
     83  CB       -28.9820   -1.3550  -46.4870 C.3   204  LEU204      0.0270
     84  CG       -29.1970   -0.1510  -45.5470 C.3   204  LEU204      0.0019
     85  CD1      -27.8720    0.3100  -44.9480 C.3   204  LEU204      0.0001
     86  CD2      -29.9250    1.0210  -46.2300 C.3   204  LEU204      0.0001
     87  N        -35.9060    1.7690  -50.9580 N.3   228  ASP228     -0.1225
     88  CA       -34.7840    2.3500  -51.6830 C.3   228  ASP228      0.1805
     89  C        -33.4490    1.6620  -51.3880 C.2   228  ASP228      0.2598
     90  O        -32.5380    1.6750  -52.2170 O.2   228  ASP228     -0.2718
     91  CB       -34.7020    3.8400  -51.3580 C.3   228  ASP228      0.1424
     92  CG       -33.9390    4.6460  -52.3950 C.2   228  ASP228      0.3668
     93  OD1      -34.2140    4.5070  -53.6070 O.co2 228  ASP228     -0.2456
     94  OD2      -33.0890    5.4640  -51.9790 O.co2 228  ASP228     -0.2456
     95  N        -33.3260    1.0470  -50.2140 N.am  229  GLY229     -0.1957
     96  CA       -32.0850    0.3780  -49.8750 C.3   229  GLY229      0.1869
     97  C        -31.8000   -0.8890  -50.6660 C.2   229  GLY229      0.2309
     98  O        -30.6680   -1.3680  -50.6650 O.2   229  GLY229     -0.2863
     99  N        -29.0090    5.6420  -58.2250 N.3   279  PHE279     -0.1241
    100  CA       -27.9990    6.2400  -57.3550 C.3   279  PHE279      0.1605
    101  C        -26.8950    6.9280  -58.1570 C.2   279  PHE279      0.2264
    102  O        -26.3380    7.9280  -57.7090 O.2   279  PHE279     -0.2867
    103  CB       -27.3900    5.2020  -56.4120 C.3   279  PHE279      0.0534
    104  CG       -28.3600    4.6310  -55.4170 C.ar  279  PHE279     -0.0203
    105  CD1      -29.2880    5.4310  -54.7680 C.ar  279  PHE279     -0.0042
    106  CD2      -28.3430    3.2790  -55.1310 C.ar  279  PHE279     -0.0042
    107  CE1      -30.1800    4.8850  -53.8540 C.ar  279  PHE279     -0.0003
    108  CE2      -29.2310    2.7370  -54.2260 C.ar  279  PHE279     -0.0003
    109  CZ       -30.1510    3.5340  -53.6010 C.ar  279  PHE279     -0.0000
@<TRIPOS>BOND
     1    99   100    1
     2   101   102    2
     3   101   100    1
     4    12    11    2
     5   100   103    1
     6    11    10    1
     7     9    10    1
     8    10    13    1
     9   103   104    1
    10   104   106   ar
    11   104   105   ar
    12   106   108   ar
    13    13    14    1
    14   105   107   ar
    15    14    15    1
    16   108   109   ar
    17     4     3    2
    18    44    43    1
    19   107   109   ar
    20    93    92   ar
    21    15    17   am
    22    15    16    2
    23     3     2    1
    24    43    40    1
    25     2     1    1
    26     2     5    1
    27    92    94   ar
    28    92    91    1
    29    39    40    1
    30    90    89    2
    31    40    41    1
    32     8     6    1
    33    88    89    1
    34    88    91    1
    35    88    87    1
    36    89    95   am
    37     5     6    1
    38    41    42    2
    39    41    45   am
    40     6     7    1
    41    59    57    1
    42    97    98    2
    43    97    96    1
    44    95    96    1
    45    45    46    1
    46    23    22    1
    47    24    22    1
    48    57    58    1
    49    57    54    1
    50    22    19    1
    51    19    18    1
    52    19    20    1
    53    21    20    2
    54    46    47    1
    55    46    49    1
    56    48    47    2
    57    47    53   am
    58    51    50    2
    59    54    53    1
    60    54    55    1
    61    82    81    2
    62    81    80    1
    63    20    25   am
    64    78    76   ar
    65    78    77   ar
    66    76    74   ar
    67    50    49    1
    68    50    52   am
    69    80    83    1
    70    80    79    1
    71    56    55    2
    72    77    75   ar
    73    25    26    1
    74    74    73   ar
    75    83    84    1
    76    32    30    1
    77    86    84    1
    78    75    73   ar
    79    26    27    1
    80    26    29    1
    81    73    72    1
    82    84    85    1
    83    30    29    1
    84    30    31    1
    85    38    37    1
    86    27    33   am
    87    27    28    2
    88    33    34    1
    89    72    69    1
    90    37    34    1
    91    34    35    1
    92    71    70    2
    93    69    70    1
    94    69    68    1
    95    67    65   ar
    96    35    36    2
    97    66    65   ar
    98    65    64    1
    99    64    61    1
   100    63    62    2
   101    62    61    1
   102    61    60    1
