@<TRIPOS>MOLECULE
tmp/4oauA00.pdb
 219 203 0 0 0
SMALL
GASTEIGER

@<TRIPOS>ATOM
      1  N         24.8930   -9.4230  -27.0150 N.3    10  GLN10      -0.1245
      2  CA        24.4320   -9.2090  -25.6440 C.3    10  GLN10       0.1566
      3  C         25.3150   -8.2400  -24.8570 C.2    10  GLN10       0.2260
      4  O         24.8320   -7.5330  -23.9740 O.2    10  GLN10      -0.2867
      5  CB        24.3030  -10.5420  -24.9000 C.3    10  GLN10       0.0367
      6  CG        23.0180  -11.2920  -25.2120 C.3    10  GLN10       0.0905
      7  CD        23.0110  -12.7070  -24.6660 C.2    10  GLN10       0.2608
      8  OE1       24.0360  -13.2140  -24.2080 O.2    10  GLN10      -0.2717
      9  NE2       21.8520  -13.3530  -24.7160 N.am   10  GLN10      -0.0878
     10  N         19.8360  -20.3070  -30.1380 N.3    31  GLU31      -0.1245
     11  CA        20.2140  -21.0060  -28.9170 C.3    31  GLU31       0.1567
     12  C         19.1250  -21.9910  -28.5060 C.2    31  GLU31       0.2260
     13  O         17.9400  -21.7530  -28.7310 O.2    31  GLU31      -0.2867
     14  CB        20.5350  -20.0200  -27.7880 C.3    31  GLU31       0.0388
     15  CG        19.4560  -18.9870  -27.5280 C.3    31  GLU31       0.1160
     16  CD        18.3550  -19.5090  -26.6320 C.2    31  GLU31       0.3649
     17  OE1       17.1820  -19.1540  -26.8640 O.co2  31  GLU31      -0.2457
     18  OE2       18.6650  -20.2690  -25.6900 O.co2  31  GLU31      -0.2457
     19  N         17.7090  -23.1490  -25.6770 N.3    33  GLU33      -0.1231
     20  CA        16.7060  -22.9530  -24.6260 C.3    33  GLU33       0.1699
     21  C         15.3960  -22.3430  -25.1320 C.2    33  GLU33       0.2592
     22  O         14.3190  -22.8920  -24.9010 O.2    33  GLU33      -0.2718
     23  CB        17.2750  -22.0960  -23.4930 C.3    33  GLU33       0.0402
     24  CG        16.3310  -21.8990  -22.3160 C.3    33  GLU33       0.1161
     25  CD        16.4000  -23.0300  -21.3100 C.2    33  GLU33       0.3649
     26  OE1       15.6500  -22.9860  -20.3110 O.co2  33  GLU33      -0.2457
     27  OE2       17.2090  -23.9600  -21.5130 O.co2  33  GLU33      -0.2457
     28  N         15.4920  -21.2140  -25.8300 N.am   34  GLY34      -0.1957
     29  CA        14.3090  -20.4880  -26.2560 C.3    34  GLY34       0.1869
     30  C         14.2790  -20.1140  -27.7250 C.2    34  GLY34       0.2309
     31  O         13.3560  -19.4380  -28.1780 O.2    34  GLY34      -0.2863
     32  N         16.4400  -18.2060  -29.3040 N.3    36  TRP36      -0.1241
     33  CA        16.8480  -16.8170  -29.4850 C.3    36  TRP36       0.1605
     34  C         17.9650  -16.6590  -30.5140 C.2    36  TRP36       0.2264
     35  O         18.9330  -17.4210  -30.5240 O.2    36  TRP36      -0.2867
     36  CB        17.2640  -16.2020  -28.1450 C.3    36  TRP36       0.0550
     37  CG        16.1010  -15.8210  -27.2830 C.ar   36  TRP36       0.0003
     38  CD1       15.2370  -16.6660  -26.6490 C.ar   36  TRP36       0.0946
     39  CD2       15.6740  -14.4930  -26.9590 C.ar   36  TRP36       0.0152
     40  NE1       14.2960  -15.9460  -25.9530 N.ar   36  TRP36      -0.2442
     41  CE2       14.5420  -14.6100  -26.1270 C.ar   36  TRP36       0.0810
     42  CE3       16.1380  -13.2170  -27.2940 C.ar   36  TRP36       0.0012
     43  CZ2       13.8650  -13.4990  -25.6270 C.ar   36  TRP36       0.0191
     44  CZ3       15.4670  -12.1160  -26.7960 C.ar   36  TRP36       0.0001
     45  CH2       14.3420  -12.2640  -25.9710 C.ar   36  TRP36       0.0015
     46  N         18.0170  -10.6910  -29.6550 N.3    41  ASN41      -0.1240
     47  CA        18.7280  -10.0230  -28.5730 C.3    41  ASN41       0.1653
     48  C         18.9580   -8.5430  -28.8510 C.2    41  ASN41       0.2266
     49  O         18.8080   -7.7050  -27.9640 O.2    41  ASN41      -0.2867
     50  CB        20.0640  -10.7160  -28.2980 C.3    41  ASN41       0.1155
     51  CG        19.9000  -12.0320  -27.5660 C.2    41  ASN41       0.2627
     52  OD1       20.1260  -12.1140  -26.3600 O.2    41  ASN41      -0.2716
     53  ND2       19.4980  -13.0670  -28.2900 N.am   41  ASN41      -0.0877
     54  N         15.5960   -6.7420  -28.3940 N.3    44  GLN44      -0.1245
     55  CA        15.2500   -6.7000  -26.9780 C.3    44  GLN44       0.1566
     56  C         16.0260   -5.5990  -26.2620 C.2    44  GLN44       0.2260
     57  O         15.5070   -4.9410  -25.3620 O.2    44  GLN44      -0.2867
     58  CB        15.5350   -8.0550  -26.3270 C.3    44  GLN44       0.0367
     59  CG        15.3490   -8.0860  -24.8180 C.3    44  GLN44       0.0905
     60  CD        15.7170   -9.4270  -24.2120 C.2    44  GLN44       0.2608
     61  OE1       16.8450   -9.9000  -24.3580 O.2    44  GLN44      -0.2717
     62  NE2       14.7630  -10.0490  -23.5290 N.am   44  GLN44      -0.0878
     63  N         11.2660  -17.1020  -32.5180 N.3    65  LYS65      -0.1245
     64  CA        11.8320  -17.9690  -31.4960 C.3    65  LYS65       0.1561
     65  C         10.7930  -19.0040  -31.0630 C.2    65  LYS65       0.2260
     66  O          9.7010  -19.0660  -31.6310 O.2    65  LYS65      -0.2867
     67  CB        12.3840  -17.1690  -30.3120 C.3    65  LYS65       0.0271
     68  CG        11.4620  -16.0990  -29.7480 C.3    65  LYS65       0.0035
     69  CD        12.2190  -15.2300  -28.7470 C.3    65  LYS65       0.0206
     70  CE        11.3720  -14.0910  -28.2000 C.3    65  LYS65       0.1093
     71  NZ        10.4130  -14.5370  -27.1530 N.3    65  LYS65      -0.1314
     72  N          8.6590  -19.4620  -28.6850 N.3    67  ASN67      -0.1240
     73  CA         7.3090  -19.0480  -28.3060 C.3    67  ASN67       0.1653
     74  C          6.5520  -18.4190  -29.4700 C.2    67  ASN67       0.2266
     75  O          5.4060  -18.0000  -29.3200 O.2    67  ASN67      -0.2867
     76  CB         7.3250  -18.1040  -27.0980 C.3    67  ASN67       0.1155
     77  CG         7.8800  -16.7330  -27.4320 C.2    67  ASN67       0.2627
     78  OD1        8.6890  -16.5850  -28.3460 O.2    67  ASN67      -0.2716
     79  ND2        7.4460  -15.7210  -26.6880 N.am   67  ASN67      -0.0877
     80  N          8.9360   -8.2510  -30.4730 N.3    74  LEU74      -0.1245
     81  CA         9.9170   -7.8800  -29.4600 C.3    74  LEU74       0.1561
     82  C         10.1910   -6.3800  -29.4780 C.2    74  LEU74       0.2260
     83  O         10.5320   -5.7890  -28.4520 O.2    74  LEU74      -0.2867
     84  CB        11.2250   -8.6470  -29.6540 C.3    74  LEU74       0.0270
     85  CG        11.2370  -10.1460  -29.3670 C.3    74  LEU74       0.0019
     86  CD1       12.6680  -10.6520  -29.2520 C.3    74  LEU74       0.0001
     87  CD2       10.4560  -10.4480  -28.1020 C.3    74  LEU74       0.0001
     88  N          7.7450   -4.5980  -27.2540 N.3    77  ILE77      -0.1245
     89  CA         8.1300   -4.7670  -25.8620 C.3    77  ILE77       0.1561
     90  C          9.2130   -3.7560  -25.4980 C.2    77  ILE77       0.2260
     91  O          9.2320   -3.2090  -24.3910 O.2    77  ILE77      -0.2867
     92  CB         8.6510   -6.1980  -25.6090 C.3    77  ILE77       0.0252
     93  CG1        7.5680   -7.2320  -25.9440 C.3    77  ILE77       0.0019
     94  CG2        9.1210   -6.3540  -24.1790 C.3    77  ILE77       0.0019
     95  CD1        7.9450   -8.6610  -25.5750 C.3    77  ILE77       0.0001
     96  N          2.2550  -14.2330  -31.3900 N.3    98  ASP98      -0.1239
     97  CA         3.0320  -15.4030  -31.0080 C.3    98  ASP98       0.1674
     98  C          2.1250  -16.6100  -30.7850 C.2    98  ASP98       0.2266
     99  O          0.9080  -16.5210  -30.9480 O.2    98  ASP98      -0.2867
    100  CB         3.9420  -15.1340  -29.7970 C.3    98  ASP98       0.1410
    101  CG         3.1740  -14.8520  -28.5090 C.2    98  ASP98       0.3668
    102  OD1        1.9590  -15.1310  -28.4200 O.co2  98  ASP98      -0.2456
    103  OD2        3.8120  -14.3530  -27.5610 O.co2  98  ASP98      -0.2456
    104  N          1.1240  -17.9310  -28.2430 N.3   100  TYR100     -0.1241
    105  CA         0.1890  -17.7520  -27.1360 C.3   100  TYR100      0.1605
    106  C         -0.8370  -16.6620  -27.4440 C.2   100  TYR100      0.2264
    107  O         -1.6980  -16.3550  -26.6210 O.2   100  TYR100     -0.2867
    108  CB         0.9320  -17.4660  -25.8270 C.3   100  TYR100      0.0534
    109  CG         1.8060  -18.6150  -25.3770 C.ar  100  TYR100     -0.0201
    110  CD1        3.1130  -18.7390  -25.8320 C.ar  100  TYR100     -0.0009
    111  CD2        1.3200  -19.5850  -24.5080 C.ar  100  TYR100     -0.0009
    112  CE1        3.9130  -19.7940  -25.4320 C.ar  100  TYR100      0.0417
    113  CE2        2.1150  -20.6440  -24.0980 C.ar  100  TYR100      0.0417
    114  CZ         3.4100  -20.7430  -24.5650 C.ar  100  TYR100      0.1957
    115  OH         4.2030  -21.7940  -24.1620 O.3   100  TYR100     -0.2866
    116  N         -0.1880  -13.3920  -28.3800 N.3   102  PHE102     -0.1241
    117  CA         0.2410  -12.0240  -28.0980 C.3   102  PHE102      0.1605
    118  C          0.5760  -11.2650  -29.3720 C.2   102  PHE102      0.2264
    119  O          1.4650  -11.6650  -30.1220 O.2   102  PHE102     -0.2867
    120  CB         1.4680  -12.0240  -27.1830 C.3   102  PHE102      0.0534
    121  CG         1.1440  -12.2260  -25.7350 C.ar  102  PHE102     -0.0203
    122  CD1        1.0980  -13.4990  -25.1920 C.ar  102  PHE102     -0.0042
    123  CD2        0.8870  -11.1410  -24.9130 C.ar  102  PHE102     -0.0042
    124  CE1        0.7970  -13.6870  -23.8560 C.ar  102  PHE102     -0.0003
    125  CE2        0.5890  -11.3220  -23.5770 C.ar  102  PHE102     -0.0003
    126  CZ         0.5440  -12.5960  -23.0450 C.ar  102  PHE102     -0.0000
    127  N          1.6210   -6.2990  -26.4010 N.3   107  GLU107     -0.1245
    128  CA         2.8990   -6.1910  -25.7040 C.3   107  GLU107      0.1567
    129  C          3.2220   -4.7450  -25.3420 C.2   107  GLU107      0.2260
    130  O          3.7750   -4.4690  -24.2760 O.2   107  GLU107     -0.2867
    131  CB         4.0240   -6.7900  -26.5510 C.3   107  GLU107      0.0388
    132  CG         3.8840   -8.2810  -26.8210 C.3   107  GLU107      0.1160
    133  CD         4.3220   -9.1520  -25.6440 C.2   107  GLU107      0.3649
    134  OE1        4.0840   -8.7740  -24.4770 O.co2 107  GLU107     -0.2457
    135  OE2        4.9120  -10.2250  -25.8940 O.co2 107  GLU107     -0.2457
    136  N          1.1180   -4.1730  -22.3560 N.3   110  VAL110     -0.1231
    137  CA         1.6840   -4.8840  -21.2130 C.3   110  VAL110      0.1692
    138  C          2.8620   -4.1150  -20.6260 C.2   110  VAL110      0.2592
    139  O          2.9680   -3.9380  -19.4100 O.2   110  VAL110     -0.2718
    140  CB         2.1720   -6.2960  -21.6070 C.3   110  VAL110      0.0266
    141  CG1        2.9130   -6.9500  -20.4560 C.3   110  VAL110      0.0020
    142  CG2        1.0110   -7.1660  -22.0300 C.3   110  VAL110      0.0020
    143  N          3.7430   -3.6510  -21.5020 N.am  111  TYR111     -0.1976
    144  CA         4.9630   -2.9850  -21.0760 C.3   111  TYR111      0.1639
    145  C          4.8240   -1.4660  -21.0010 C.2   111  TYR111      0.2290
    146  O          5.7900   -0.7660  -20.7100 O.2   111  TYR111     -0.2864
    147  CB         6.1250   -3.3970  -21.9820 C.3   111  TYR111      0.0560
    148  CG         6.6210   -4.7960  -21.6970 C.ar  111  TYR111     -0.0198
    149  CD1        6.0080   -5.9100  -22.2650 C.ar  111  TYR111     -0.0009
    150  CD2        7.7020   -5.0040  -20.8480 C.ar  111  TYR111     -0.0009
    151  CE1        6.4620   -7.1920  -21.9940 C.ar  111  TYR111      0.0417
    152  CE2        8.1630   -6.2770  -20.5750 C.ar  111  TYR111      0.0417
    153  CZ         7.5410   -7.3690  -21.1510 C.ar  111  TYR111      0.1957
    154  OH         8.0090   -8.6320  -20.8690 O.3   111  TYR111     -0.2866
    155  N         -6.9330  -12.9590  -27.1000 N.3   131  ARG131     -0.1245
    156  CA        -5.8210  -13.8680  -27.3770 C.3   131  ARG131      0.1563
    157  C         -6.2550  -15.2890  -27.7120 C.2   131  ARG131      0.2260
    158  O         -6.9450  -15.9440  -26.9290 O.2   131  ARG131     -0.2867
    159  CB        -4.8170  -13.8870  -26.2200 C.3   131  ARG131      0.0307
    160  CG        -3.8730  -12.7100  -26.2280 C.3   131  ARG131      0.0489
    161  CD        -2.6080  -12.9740  -25.4310 C.3   131  ARG131      0.2205
    162  NE        -2.8060  -12.8040  -23.9960 N.pl3 131  ARG131     -0.0865
    163  CZ        -2.7250  -11.6380  -23.3640 C.cat 131  ARG131      0.5346
    164  NH1       -2.4530  -10.5280  -24.0380 N.pl3 131  ARG131      0.1354
    165  NH2       -2.9150  -11.5790  -22.0550 N.pl3 131  ARG131      0.1354
    166  N         -4.9750  -19.0270  -28.2960 N.3   133  THR133     -0.1218
    167  CA        -3.8460  -19.8880  -27.9790 C.3   133  THR133      0.1862
    168  C         -4.1840  -21.3470  -28.2700 C.2   133  THR133      0.2287
    169  O         -5.2630  -21.6530  -28.7770 O.2   133  THR133     -0.2866
    170  CB        -3.3990  -19.7280  -26.5150 C.3   133  THR133      0.1770
    171  OG1       -2.2880  -20.5950  -26.2580 O.3   133  THR133     -0.2211
    172  CG2       -4.5400  -20.0670  -25.5660 C.3   133  THR133      0.0375
    173  N         -7.8370  -20.8910  -20.4570 N.3   142  LYS142     -0.1231
    174  CA        -6.7880  -19.8950  -20.6600 C.3   142  LYS142      0.1693
    175  C         -7.0730  -19.1100  -21.9370 C.2   142  LYS142      0.2592
    176  O         -7.9360  -19.4900  -22.7300 O.2   142  LYS142     -0.2718
    177  CB        -5.4060  -20.5470  -20.7640 C.3   142  LYS142      0.0285
    178  CG        -4.7420  -20.8650  -19.4360 C.3   142  LYS142      0.0035
    179  CD        -3.2590  -21.1520  -19.6240 C.3   142  LYS142      0.0206
    180  CE        -2.5820  -21.5440  -18.3160 C.3   142  LYS142      0.1093
    181  NZ        -2.6150  -20.4520  -17.3050 N.3   142  LYS142     -0.1314
    182  N         -6.3350  -18.0230  -22.1370 N.am  143  GLY143     -0.1957
    183  CA        -6.4840  -17.2080  -23.3280 C.3   143  GLY143      0.1869
    184  C         -7.6840  -16.2800  -23.2950 C.2   143  GLY143      0.2309
    185  O         -8.4570  -16.2790  -22.3360 O.2   143  GLY143     -0.2863
    186  N         -7.6310  -12.8740  -23.4430 N.3   145  ALA145     -0.1245
    187  CA        -7.3760  -11.5380  -22.9030 C.3   145  ALA145      0.1562
    188  C         -7.1370  -10.4920  -23.9900 C.2   145  ALA145      0.2260
    189  O         -6.8410  -10.8270  -25.1380 O.2   145  ALA145     -0.2867
    190  CB        -6.2110  -11.5620  -21.9240 C.3   145  ALA145      0.0290
    191  N         -4.0110   -4.6380  -15.5970 N.3   153  GLU153     -0.1231
    192  CA        -3.2800   -5.5510  -14.7240 C.3   153  GLU153      0.1699
    193  C         -1.9070   -5.0070  -14.3410 C.2   153  GLU153      0.2592
    194  O         -1.4710   -5.1490  -13.1990 O.2   153  GLU153     -0.2718
    195  CB        -3.1330   -6.9120  -15.4130 C.3   153  GLU153      0.0402
    196  CG        -2.1250   -7.8510  -14.7730 C.3   153  GLU153      0.1161
    197  CD        -1.9820   -9.1500  -15.5420 C.2   153  GLU153      0.3649
    198  OE1       -1.2450  -10.0450  -15.0740 O.co2 153  GLU153     -0.2457
    199  OE2       -2.6060   -9.2760  -16.6180 O.co2 153  GLU153     -0.2457
    200  N         -1.2240   -4.3860  -15.2970 N.am  154  LYS154     -0.1980
    201  CA         0.1020   -3.8300  -15.0380 C.3   154  LYS154      0.1596
    202  C          0.0280   -2.4070  -14.4890 C.2   154  LYS154      0.2287
    203  O          1.0400   -1.8440  -14.0710 O.2   154  LYS154     -0.2864
    204  CB         0.9810   -3.8920  -16.2900 C.3   154  LYS154      0.0298
    205  CG         1.2830   -5.3100  -16.7600 C.3   154  LYS154      0.0038
    206  CD         1.5720   -6.2220  -15.5750 C.3   154  LYS154      0.0206
    207  CE         1.8100   -7.6660  -15.9960 C.3   154  LYS154      0.1093
    208  NZ         3.2500   -7.9380  -16.2600 N.3   154  LYS154     -0.1314
    209  N        -13.1350  -13.1200  -17.0290 N.3   179  ARG179     -0.1245
    210  CA       -12.5930  -11.9150  -16.4130 C.3   179  ARG179      0.1563
    211  C        -12.5760  -10.7290  -17.3760 C.2   179  ARG179      0.2260
    212  O        -12.0900  -10.8460  -18.5010 O.2   179  ARG179     -0.2867
    213  CB       -11.1670  -12.1780  -15.9290 C.3   179  ARG179      0.0307
    214  CG       -11.0350  -13.3240  -14.9480 C.3   179  ARG179      0.0489
    215  CD        -9.5720  -13.6230  -14.6500 C.3   179  ARG179      0.2205
    216  NE        -8.9320  -14.3800  -15.7220 N.pl3 179  ARG179     -0.0865
    217  CZ        -8.1650  -15.4480  -15.5240 C.cat 179  ARG179      0.5346
    218  NH1       -7.9430  -15.8870  -14.2920 N.pl3 179  ARG179      0.1354
    219  NH2       -7.6230  -16.0810  -16.5560 N.pl3 179  ARG179      0.1354
@<TRIPOS>BOND
     1    63    64    1
     2    66    65    2
     3    64    65    1
     4    64    67    1
     5    96    97    1
     6    97    98    1
     7    97   100    1
     8    99    98    2
     9    35    34    2
    10    34    33    1
    11    80    81    1
    12    67    68    1
    13    10    11    1
    14   119   118    2
    15   100   101    1
    16    68    69    1
    17    46    47    1
    18    84    81    1
    19    84    85    1
    20    33    32    1
    21    33    36    1
    22    82    81    1
    23    82    83    2
    24    74    75    2
    25    74    73    1
    26   118   117    1
    27    85    86    1
    28    85    87    1
    29    11    12    1
    30    11    14    1
    31    48    47    1
    32    48    49    2
    33   169   168    2
    34    69    70    1
    35    13    12    2
    36    72    73    1
    37    47    50    1
    38   101   102   ar
    39   101   103   ar
    40    54    55    1
    41   116   117    1
    42    78    77    2
    43    73    76    1
    44    50    51    1
    45   166   167    1
    46    53    51   am
    47   168   167    1
    48   104   105    1
    49    70    71    1
    50    31    30    2
    51    36    37    1
    52   117   120    1
    53   167   170    1
    54    14    15    1
    55    30    29    1
    56   157   156    1
    57   157   158    2
    58    51    52    2
    59    15    16    1
    60   106   105    1
    61   106   107    2
    62    77    76    1
    63    77    79   am
    64   156   155    1
    65   156   159    1
    66    42    39   ar
    67    42    44   ar
    68    37    39   ar
    69    37    38   ar
    70    88    89    1
    71   120   121    1
    72   105   108    1
    73     1     2    1
    74    55    58    1
    75    55    56    1
    76    39    41   ar
    77    17    16   ar
    78   132   131    1
    79   132   133    1
    80    44    45   ar
    81    38    40   ar
    82    16    18   ar
    83   131   128    1
    84   170   171    1
    85   170   172    1
    86   127   128    1
    87    58    59    1
    88    56    57    2
    89    29    28    1
    90   160   159    1
    91   160   161    1
    92    41    40   ar
    93    41    43   ar
    94    45    43   ar
    95    93    92    1
    96    93    95    1
    97   135   133   ar
    98    89    92    1
    99    89    90    1
   100   110   112   ar
   101   110   109   ar
   102    28    21   am
   103   108   109    1
   104   121   122   ar
   105   121   123   ar
   106   128   129    1
   107    19    20    1
   108     2     5    1
   109     2     3    1
   110   133   134   ar
   111    92    94    1
   112    90    91    2
   113   112   114   ar
   114   161   162    1
   115   109   111   ar
   116   129   130    2
   117     6     5    1
   118     6     7    1
   119   122   124   ar
   120   189   188    2
   121    21    22    2
   122    21    20    1
   123   123   125   ar
   124     3     4    2
   125    59    60    1
   126     9     7   am
   127     7     8    2
   128    20    23    1
   129   114   115    1
   130   114   113   ar
   131   111   113   ar
   132    61    60    2
   133    60    62   am
   134   164   163    1
   135   162   163    2
   136   188   187    1
   137   124   126   ar
   138   125   126   ar
   139    23    24    1
   140   186   187    1
   141   163   165    1
   142   183   184    1
   143   183   182    1
   144   184   185    2
   145   187   190    1
   146   176   175    2
   147   136   137    1
   148    24    25    1
   149   149   151   ar
   150   149   148   ar
   151   182   175   am
   152   142   140    1
   153   151   153   ar
   154   147   148    1
   155   147   144    1
   156   175   174    1
   157   148   150   ar
   158   140   137    1
   159   140   141    1
   160    27    25   ar
   161   143   144    1
   162   143   138   am
   163    25    26   ar
   164   137   138    1
   165   153   154    1
   166   153   152   ar
   167   144   145    1
   168   145   146    2
   169   150   152   ar
   170   177   174    1
   171   177   178    1
   172   174   173    1
   173   138   139    2
   174   179   178    1
   175   179   180    1
   176   212   211    2
   177   180   181    1
   178   211   210    1
   179   209   210    1
   180   205   204    1
   181   205   206    1
   182   199   197   ar
   183   219   217    1
   184   210   213    1
   185   204   201    1
   186   208   207    1
   187   207   206    1
   188   213   214    1
   189   216   217    2
   190   216   215    1
   191   191   192    1
   192   197   198   ar
   193   197   196    1
   194   217   218    1
   195   195   196    1
   196   195   192    1
   197   200   201    1
   198   200   193   am
   199   201   202    1
   200   214   215    1
   201   192   193    1
   202   202   203    2
   203   193   194    2
