@<TRIPOS>MOLECULE
tmp/4oauA01.pdb
 197 186 0 0 0
SMALL
GASTEIGER

@<TRIPOS>ATOM
      1  N         -9.0040  -42.1590   20.0280 N.3   319  TRP319     -0.1241
      2  CA        -9.3600  -40.7550   19.9280 C.3   319  TRP319      0.1605
      3  C        -10.8240  -40.6990   19.4990 C.2   319  TRP319      0.2264
      4  O        -11.5990  -41.6020   19.8090 O.2   319  TRP319     -0.2867
      5  CB        -8.4500  -40.0490   18.9240 C.3   319  TRP319      0.0550
      6  CG        -7.0410  -40.5780   18.9500 C.ar  319  TRP319      0.0003
      7  CD1       -6.4410  -41.3570   18.0040 C.ar  319  TRP319      0.0946
      8  CD2       -6.0670  -40.3830   19.9850 C.ar  319  TRP319      0.0152
      9  NE1       -5.1520  -41.6510   18.3800 N.ar  319  TRP319     -0.2442
     10  CE2       -4.8980  -41.0660   19.5920 C.ar  319  TRP319      0.0810
     11  CE3       -6.0680  -39.6940   21.2020 C.ar  319  TRP319      0.0012
     12  CZ2       -3.7430  -41.0810   20.3720 C.ar  319  TRP319      0.0191
     13  CZ3       -4.9200  -39.7110   21.9760 C.ar  319  TRP319      0.0001
     14  CH2       -3.7760  -40.4040   21.5600 C.ar  319  TRP319      0.0015
     15  N         -1.3410  -35.8690   21.9680 N.3   347  ILE347     -0.1231
     16  CA        -1.2850  -37.3150   22.0590 C.3   347  ILE347      0.1692
     17  C          0.0810  -37.7480   22.5850 C.2   347  ILE347      0.2592
     18  O          0.2330  -38.8490   23.1190 O.2   347  ILE347     -0.2718
     19  CB        -1.5860  -37.9740   20.6980 C.3   347  ILE347      0.0266
     20  CG1       -0.3070  -38.4150   20.0010 C.3   347  ILE347      0.0019
     21  CG2       -2.3750  -37.0290   19.7990 C.3   347  ILE347      0.0020
     22  CD1       -0.5740  -38.9430   18.6350 C.3   347  ILE347      0.0001
     23  N          1.0630  -36.8610   22.4500 N.am  348  ALA348     -0.1966
     24  CA         2.4220  -37.1160   22.9170 C.3   348  ALA348      0.1728
     25  C          3.2550  -35.8420   22.8820 C.2   348  ALA348      0.2616
     26  O          3.0560  -34.9840   22.0230 O.2   348  ALA348     -0.2715
     27  CB         3.0820  -38.1850   22.0660 C.3   348  ALA348      0.0334
     28  N          4.1860  -35.7250   23.8230 N.am  349  ASP349     -0.1957
     29  CA         5.1640  -34.6460   23.8110 C.3   349  ASP349      0.1840
     30  C          6.3680  -35.0640   22.9740 C.2   349  ASP349      0.2623
     31  O          6.7030  -36.2470   22.9130 O.2   349  ASP349     -0.2715
     32  CB         5.6020  -34.2940   25.2340 C.3   349  ASP349      0.1450
     33  CG         4.5520  -33.4980   25.9920 C.2   349  ASP349      0.3671
     34  OD1        3.6870  -34.1170   26.6470 O.co2 349  ASP349     -0.2456
     35  OD2        4.5990  -32.2510   25.9380 O.co2 349  ASP349     -0.2456
     36  N          7.0160  -34.0980   22.3300 N.am  350  THR350     -0.1937
     37  CA         8.1910  -34.3850   21.5100 C.3   350  THR350      0.2028
     38  C          9.2660  -33.3150   21.7070 C.2   350  THR350      0.2642
     39  O          9.0750  -32.3790   22.4840 O.2   350  THR350     -0.2714
     40  CB         7.8270  -34.5370   20.0120 C.3   350  THR350      0.1808
     41  OG1        8.8210  -35.3280   19.3510 O.3   350  THR350     -0.2208
     42  CG2        7.7200  -33.1810   19.3250 C.3   350  THR350      0.0379
     43  N         10.3950  -33.4640   21.0180 N.am  351  SER351     -0.1949
     44  CA        11.5310  -32.5570   21.1910 C.3   351  SER351      0.1924
     45  C         11.2270  -31.1070   20.8060 C.2   351  SER351      0.2314
     46  O         11.6780  -30.1780   21.4740 O.2   351  SER351     -0.2863
     47  CB        12.7480  -33.0600   20.4100 C.3   351  SER351      0.2116
     48  OG        12.5270  -32.9880   19.0120 O.3   351  SER351     -0.2180
     49  N          2.8730  -34.2230   19.4090 N.3   355  ILE355     -0.1245
     50  CA         1.9450  -34.7260   18.4120 C.3   355  ILE355      0.1561
     51  C          0.5280  -34.3720   18.8420 C.2   355  ILE355      0.2260
     52  O          0.1730  -34.5110   20.0150 O.2   355  ILE355     -0.2867
     53  CB         2.0660  -36.2540   18.2370 C.3   355  ILE355      0.0252
     54  CG1        3.5190  -36.6970   18.4010 C.3   355  ILE355      0.0019
     55  CG2        1.5210  -36.6780   16.8800 C.3   355  ILE355      0.0019
     56  CD1        4.4070  -36.3390   17.2330 C.3   355  ILE355      0.0001
     57  N         -2.7610  -37.0310   12.4900 N.3   366  ALA366     -0.1245
     58  CA        -1.8820  -36.6610   13.5870 C.3   366  ALA366      0.1562
     59  C         -0.9930  -35.5190   13.1090 C.2   366  ALA366      0.2260
     60  O         -0.5480  -35.5120   11.9620 O.2   366  ALA366     -0.2867
     61  CB        -1.0470  -37.8480   14.0240 C.3   366  ALA366      0.0290
     62  N          2.4970  -33.4570   13.7120 N.3   368  LYS368     -0.1245
     63  CA         3.7980  -33.3370   14.3620 C.3   368  LYS368      0.1561
     64  C          4.3550  -31.9290   14.1900 C.2   368  LYS368      0.2260
     65  O          4.3770  -31.3920   13.0850 O.2   368  LYS368     -0.2867
     66  CB         4.7800  -34.3760   13.8170 C.3   368  LYS368      0.0271
     67  CG         6.0740  -34.4640   14.6060 C.3   368  LYS368      0.0035
     68  CD         6.9110  -35.6560   14.1690 C.3   368  LYS368      0.0206
     69  CE         8.1130  -35.8450   15.0810 C.3   368  LYS368      0.1093
     70  NZ         9.0260  -36.9000   14.5770 N.3   368  LYS368     -0.1314
     71  N         15.8630  -31.5690   12.5870 N.3   376  ARG376     -0.1245
     72  CA        14.8390  -32.5920   12.7670 C.3   376  ARG376      0.1563
     73  C         13.6520  -32.3440   11.8450 C.2   376  ARG376      0.2260
     74  O         13.0860  -33.2780   11.2780 O.2   376  ARG376     -0.2867
     75  CB        14.3680  -32.6320   14.2210 C.3   376  ARG376      0.0307
     76  CG        15.3440  -33.3000   15.1710 C.3   376  ARG376      0.0489
     77  CD        14.8950  -33.1560   16.6160 C.3   376  ARG376      0.2205
     78  NE        15.7530  -33.9110   17.5270 N.pl3 376  ARG376     -0.0865
     79  CZ        15.4510  -35.1030   18.0310 C.cat 376  ARG376      0.5346
     80  NH1       14.3010  -35.6870   17.7200 N.pl3 376  ARG376      0.1354
     81  NH2       16.3000  -35.7110   18.8510 N.pl3 376  ARG376      0.1354
     82  N         -0.0690  -36.1840    9.0650 N.3   410  VAL410     -0.1231
     83  CA         0.2950  -37.5810    8.8900 C.3   410  VAL410      0.1692
     84  C         -0.8540  -38.4620    9.3760 C.2   410  VAL410      0.2593
     85  O         -1.6050  -38.0550   10.2630 O.2   410  VAL410     -0.2718
     86  CB         1.6020  -37.8700    9.6680 C.3   410  VAL410      0.0266
     87  CG1        1.4340  -39.0150   10.6620 C.3   410  VAL410      0.0020
     88  CG2        2.7520  -38.1090    8.7040 C.3   410  VAL410      0.0020
     89  N         -1.0060  -39.6480    8.7870 N.am  411  THR411     -0.1939
     90  CA        -2.1190  -40.5360    9.1360 C.3   411  THR411      0.2028
     91  C         -2.1940  -40.8420   10.6310 C.2   411  THR411      0.2642
     92  O         -1.1860  -41.1390   11.2730 O.2   411  THR411     -0.2714
     93  CB        -2.0780  -41.8630    8.3500 C.3   411  THR411      0.1808
     94  OG1       -2.9970  -42.7950    8.9340 O.3   411  THR411     -0.2208
     95  CG2       -0.6950  -42.4590    8.3950 C.3   411  THR411      0.0379
     96  N         -3.4050  -40.7570   11.1710 N.am  412  LEU412     -0.1963
     97  CA        -3.6390  -40.9580   12.5950 C.3   412  LEU412      0.1728
     98  C         -3.8270  -42.4350   12.9260 C.2   412  LEU412      0.2616
     99  O         -4.6570  -43.1160   12.3230 O.2   412  LEU412     -0.2715
    100  CB        -4.8640  -40.1550   13.0370 C.3   412  LEU412      0.0311
    101  CG        -5.3170  -40.2750   14.4920 C.3   412  LEU412      0.0022
    102  CD1       -4.2680  -39.7210   15.4460 C.3   412  LEU412      0.0001
    103  CD2       -6.6530  -39.5770   14.6810 C.3   412  LEU412      0.0001
    104  N         -3.0530  -42.9250   13.8880 N.am  413  CYS413     -0.1954
    105  CA        -3.1380  -44.3220   14.3060 C.3   413  CYS413      0.1843
    106  C         -3.6800  -44.4370   15.7280 C.2   413  CYS413      0.2625
    107  O         -3.8580  -43.4320   16.4130 O.2   413  CYS413     -0.2714
    108  CB        -1.7680  -44.9930   14.1990 C.3   413  CYS413      0.0997
    109  SG        -1.0760  -44.9490   12.5350 S.3   413  CYS413     -0.0797
    110  N         -3.9440  -45.6640   16.1650 N.am  414  GLU414     -0.1963
    111  CA        -4.5520  -45.8970   17.4730 C.3   414  GLU414      0.1733
    112  C         -3.5510  -45.8640   18.6250 C.2   414  GLU414      0.2616
    113  O         -3.7870  -45.2130   19.6410 O.2   414  GLU414     -0.2715
    114  CB        -5.3040  -47.2310   17.4870 C.3   414  GLU414      0.0429
    115  CG        -6.5580  -47.2430   16.6380 C.3   414  GLU414      0.1163
    116  CD        -7.5540  -46.1930   17.0730 C.2   414  GLU414      0.3649
    117  OE1       -8.4650  -46.5240   17.8610 O.co2 414  GLU414     -0.2457
    118  OE2       -7.4220  -45.0340   16.6300 O.co2 414  GLU414     -0.2457
    119  N         -2.4340  -46.5640   18.4590 N.am  415  GLN415     -0.1963
    120  CA        -1.4620  -46.7230   19.5340 C.3   415  GLN415      0.1733
    121  C         -0.1330  -47.2060   18.9760 C.2   415  GLN415      0.2617
    122  O         -0.0360  -47.5720   17.8040 O.2   415  GLN415     -0.2715
    123  CB        -1.9710  -47.7450   20.5440 C.3   415  GLN415      0.0408
    124  CG        -1.9640  -49.1650   20.0000 C.3   415  GLN415      0.0908
    125  CD        -2.9560  -50.0740   20.6960 C.2   415  GLN415      0.2608
    126  OE1       -3.1770  -49.9670   21.9020 O.2   415  GLN415     -0.2717
    127  NE2       -3.5660  -50.9750   19.9320 N.am  415  GLN415     -0.0878
    128  N          0.8930  -47.2080   19.8210 N.am  416  THR416     -0.1951
    129  CA         2.1940  -47.7310   19.4230 C.3   416  THR416      0.1897
    130  C          2.2450  -49.2430   19.5780 C.2   416  THR416      0.2313
    131  O          1.2970  -49.8640   20.0600 O.2   416  THR416     -0.2863
    132  CB         3.3380  -47.1110   20.2380 C.3   416  THR416      0.1794
    133  OG1        3.1650  -47.4190   21.6260 O.3   416  THR416     -0.2208
    134  CG2        3.3540  -45.6160   20.0560 C.3   416  THR416      0.0378
    135  N         16.1540  -45.0930   13.7120 N.3   461  ASP461     -0.1239
    136  CA        15.4690  -45.0890   15.0030 C.3   461  ASP461      0.1674
    137  C         14.3590  -46.1310   15.0570 C.2   461  ASP461      0.2266
    138  O         13.2330  -45.8330   15.4540 O.2   461  ASP461     -0.2867
    139  CB        14.9200  -43.6970   15.3350 C.3   461  ASP461      0.1410
    140  CG        14.5950  -43.5330   16.8130 C.2   461  ASP461      0.3668
    141  OD1       15.0910  -44.3450   17.6240 O.co2 461  ASP461     -0.2456
    142  OD2       13.8500  -42.5910   17.1670 O.co2 461  ASP461     -0.2456
    143  N         12.3240  -48.6070   16.7230 N.3   463  GLN463     -0.1245
    144  CA        11.9820  -48.8740   18.1110 C.3   463  GLN463      0.1566
    145  C         10.4680  -49.0330   18.1930 C.2   463  GLN463      0.2260
    146  O          9.7490  -48.5470   17.3200 O.2   463  GLN463     -0.2867
    147  CB        12.4620  -47.7320   19.0120 C.3   463  GLN463      0.0367
    148  CG        11.5930  -46.4880   18.9710 C.3   463  GLN463      0.0905
    149  CD        12.0700  -45.4190   19.9340 C.2   463  GLN463      0.2608
    150  OE1       13.0730  -45.5950   20.6260 O.2   463  GLN463     -0.2717
    151  NE2       11.3520  -44.3030   19.9830 N.am  463  GLN463     -0.0878
    152  N          8.2270  -47.6480   20.0090 N.3   465  GLN465     -0.1231
    153  CA         7.4990  -46.3810   20.0960 C.3   465  GLN465      0.1698
    154  C          7.2050  -45.7780   18.7210 C.2   465  GLN465      0.2592
    155  O          6.2500  -45.0170   18.5620 O.2   465  GLN465     -0.2718
    156  CB         8.2610  -45.3640   20.9530 C.3   465  GLN465      0.0381
    157  CG         8.1000  -45.5480   22.4520 C.3   465  GLN465      0.0905
    158  CD         9.2160  -46.3720   23.0680 C.2   465  GLN465      0.2608
    159  OE1       10.0400  -46.9540   22.3610 O.2   465  GLN465     -0.2717
    160  NE2        9.2510  -46.4190   24.3980 N.am  465  GLN465     -0.0878
    161  N          8.0290  -46.1200   17.7340 N.am  466  ASN466     -0.1974
    162  CA         7.8850  -45.5620   16.3940 C.3   466  ASN466      0.1688
    163  C          7.0850  -46.4340   15.4260 C.2   466  ASN466      0.2292
    164  O          6.8870  -46.0650   14.2690 O.2   466  ASN466     -0.2864
    165  CB         9.2500  -45.2010   15.8030 C.3   466  ASN466      0.1181
    166  CG         9.9000  -44.0330   16.5190 C.2   466  ASN466      0.2629
    167  OD1        9.2500  -43.3270   17.2900 O.2   466  ASN466     -0.2716
    168  ND2       11.1850  -43.8160   16.2590 N.am  466  ASN466     -0.0877
    169  N          3.4350  -47.7490   14.7130 N.3   468  LEU468     -0.1245
    170  CA         2.0620  -47.4230   15.0690 C.3   468  LEU468      0.1561
    171  C          1.0870  -48.4890   14.5890 C.2   468  LEU468      0.2260
    172  O          1.3070  -49.1310   13.5620 O.2   468  LEU468     -0.2867
    173  CB         1.6850  -46.0670   14.4840 C.3   468  LEU468      0.0270
    174  CG         2.7130  -44.9730   14.7670 C.3   468  LEU468      0.0019
    175  CD1        2.3510  -43.7080   14.0300 C.3   468  LEU468      0.0001
    176  CD2        2.8160  -44.7120   16.2570 C.3   468  LEU468      0.0001
    177  N          6.8640  -45.0870   11.3360 N.3   478  ALA478     -0.1231
    178  CA         6.7350  -43.6400   11.5030 C.3   478  ALA478      0.1694
    179  C          7.9510  -43.0210   12.1860 C.2   478  ALA478      0.2592
    180  O          8.9140  -43.7190   12.5050 O.2   478  ALA478     -0.2718
    181  CB         5.4740  -43.3060   12.2770 C.3   478  ALA478      0.0304
    182  N          7.8820  -41.7080   12.4070 N.am  479  ASP479     -0.1974
    183  CA         8.9750  -40.9170   12.9790 C.3   479  ASP479      0.1709
    184  C         10.2480  -40.9680   12.1310 C.2   479  ASP479      0.2293
    185  O         10.9910  -41.9510   12.1600 O.2   479  ASP479     -0.2864
    186  CB         9.2570  -41.3320   14.4230 C.3   479  ASP479      0.1436
    187  CG        10.3980  -40.5510   15.0410 C.2   479  ASP479      0.3671
    188  OD1       10.8640  -39.5740   14.4180 O.co2 479  ASP479     -0.2456
    189  OD2       10.8220  -40.9080   16.1560 O.co2 479  ASP479     -0.2456
    190  N         12.4700  -38.0250   11.7810 N.3   481  ASP481     -0.1239
    191  CA        13.3240  -36.8590   12.0320 C.3   481  ASP481      0.1674
    192  C         14.7640  -37.2310   12.3960 C.2   481  ASP481      0.2266
    193  O         15.5540  -36.3740   12.7910 O.2   481  ASP481     -0.2867
    194  CB        12.7100  -35.9200   13.0820 C.3   481  ASP481      0.1410
    195  CG        12.6740  -36.5290   14.4720 C.2   481  ASP481      0.3668
    196  OD1       12.7420  -37.7700   14.5860 O.co2 481  ASP481     -0.2456
    197  OD2       12.5690  -35.7630   15.4540 O.co2 481  ASP481     -0.2456
@<TRIPOS>BOND
     1    93    95    1
     2    93    94    1
     3    93    90    1
     4    88    86    1
     5    89    90    1
     6    89    84   am
     7    83    82    1
     8    83    84    1
     9    83    86    1
    10    90    91    1
    11    84    85    2
    12    86    87    1
    13    91    96   am
    14    91    92    2
    15    96    97    1
    16    74    73    2
    17   177   178    1
    18   178   179    1
    19   178   181    1
    20   190   191    1
    21    73    72    1
    22    60    59    2
    23   191   192    1
    24   191   194    1
    25   184   185    2
    26   184   183    1
    27   179   182   am
    28   179   180    2
    29    99    98    2
    30   192   193    2
    31   182   183    1
    32    57    58    1
    33   109   108    1
    34    71    72    1
    35    97    98    1
    36    97   100    1
    37    72    75    1
    38    98   104   am
    39   183   186    1
    40   100   101    1
    41   194   195    1
    42    65    64    2
    43    59    58    1
    44   172   171    2
    45    58    61    1
    46   135   136    1
    47    62    63    1
    48    66    63    1
    49    66    67    1
    50   104   105    1
    51   175   174    1
    52    68    67    1
    53    68    69    1
    54    64    63    1
    55   108   105    1
    56    75    76    1
    57   164   163    2
    58   105   106    1
    59   188   187   ar
    60   186   187    1
    61   195   196   ar
    62   195   197   ar
    63   173   174    1
    64   173   170    1
    65   101   103    1
    66   101   102    1
    67    70    69    1
    68   171   170    1
    69   169   170    1
    70   174   176    1
    71   136   137    1
    72   136   139    1
    73   187   189   ar
    74   137   138    2
    75    76    77    1
    76   139   140    1
    77   163   162    1
    78   106   110   am
    79   106   107    2
    80   165   162    1
    81   165   166    1
    82   110   111    1
    83   168   166   am
    84   162   161    1
    85   166   167    2
    86    77    78    1
    87   118   116   ar
    88   115   116    1
    89   115   114    1
    90   143   144    1
    91   140   142   ar
    92   140   141   ar
    93    55    53    1
    94   116   117   ar
    95    56    54    1
    96   146   145    2
    97   111   114    1
    98   111   112    1
    99    78    79    2
   100    80    79    1
   101   161   154   am
   102   122   121    2
   103     7     9   ar
   104     7     6   ar
   105    79    81    1
   106   144   145    1
   107   144   147    1
   108    53    54    1
   109    53    50    1
   110     9    10   ar
   111    50    51    1
   112    50    49    1
   113   119   112   am
   114   119   120    1
   115   155   154    2
   116   112   113    2
   117    22    20    1
   118   154   153    1
   119    51    52    2
   120     5     6    1
   121     5     2    1
   122     6     8   ar
   123   148   147    1
   124   148   149    1
   125   121   120    1
   126   121   128   am
   127    48    47    1
   128    42    40    1
   129    41    40    1
   130   129   130    1
   131   129   128    1
   132   129   132    1
   133     3     4    2
   134     3     2    1
   135   120   123    1
   136   130   131    2
   137    10     8   ar
   138    10    12   ar
   139    21    19    1
   140     2     1    1
   141   127   125   am
   142   149   151   am
   143   149   150    2
   144     8    11   ar
   145   124   123    1
   146   124   125    1
   147    20    19    1
   148   152   153    1
   149    40    37    1
   150   134   132    1
   151   153   156    1
   152   132   133    1
   153    12    14   ar
   154    47    44    1
   155   125   126    2
   156    19    16    1
   157    45    44    1
   158    45    46    2
   159   156   157    1
   160    43    44    1
   161    43    38   am
   162    11    13   ar
   163    37    38    1
   164    37    36    1
   165    14    13   ar
   166    38    39    2
   167    15    16    1
   168    26    25    2
   169    16    17    1
   170    27    24    1
   171    36    30   am
   172   159   158    2
   173    23    17   am
   174    23    24    1
   175   157   158    1
   176    17    18    2
   177    25    24    1
   178    25    28   am
   179    31    30    2
   180    30    29    1
   181   158   160   am
   182    29    28    1
   183    29    32    1
   184    32    33    1
   185    35    33   ar
   186    33    34   ar
