@<TRIPOS>MOLECULE
tmp/4oavC01.pdb
 121 115 0 0 0
SMALL
GASTEIGER

@<TRIPOS>ATOM
      1  N          6.1740   -2.8090   24.9840 N.3   563  SER563     -0.1217
      2  CA         6.1620   -2.9960   23.5390 C.3   563  SER563      0.1889
      3  C          4.8660   -2.4990   22.9000 C.2   563  SER563      0.2288
      4  O          4.8900   -1.9230   21.8140 O.2   563  SER563     -0.2866
      5  CB         6.4140   -4.4620   23.1790 C.3   563  SER563      0.2089
      6  OG         5.6120   -5.3210   23.9670 O.3   563  SER563     -0.2183
      7  N          5.1490    1.2210   22.2760 N.3   566  LYS566     -0.1231
      8  CA         6.0010    1.4930   21.1230 C.3   566  LYS566      0.1693
      9  C          5.2940    1.1280   19.8270 C.2   566  LYS566      0.2592
     10  O          5.2980    1.8970   18.8660 O.2   566  LYS566     -0.2718
     11  CB         7.3030    0.7050   21.2270 C.3   566  LYS566      0.0285
     12  CG         8.1160    1.0060   22.4690 C.3   566  LYS566      0.0035
     13  CD         9.2960    0.0660   22.5520 C.3   566  LYS566      0.0206
     14  CE        10.0650    0.2440   23.8370 C.3   566  LYS566      0.1093
     15  NZ        11.0770   -0.8350   23.9820 N.3   566  LYS566     -0.1314
     16  N          4.6970   -0.0590   19.8060 N.am  567  THR567     -0.1953
     17  CA         3.9140   -0.5180   18.6680 C.3   567  THR567      0.1897
     18  C          2.4420   -0.3710   19.0060 C.2   567  THR567      0.2313
     19  O          1.8280   -1.3230   19.4870 O.2   567  THR567     -0.2863
     20  CB         4.1750   -2.0040   18.3750 C.3   567  THR567      0.1794
     21  OG1        5.5770   -2.2810   18.4770 O.3   567  THR567     -0.2208
     22  CG2        3.6790   -2.3720   16.9830 C.3   567  THR567      0.0378
     23  N         13.2140   14.9760   18.7910 N.3   604  MET604     -0.1245
     24  CA        12.6650   13.6830   19.1960 C.3   604  MET604      0.1570
     25  C         11.9400   12.9880   18.0440 C.2   604  MET604      0.2261
     26  O         12.0710   11.7790   17.8570 O.2   604  MET604     -0.2867
     27  CB        11.7420   13.8360   20.4020 C.3   604  MET604      0.0387
     28  CG        12.4700   14.2240   21.6890 C.3   604  MET604      0.0595
     29  SD        13.5760   12.9440   22.3280 S.3   604  MET604     -0.1393
     30  CE        12.3910   11.7920   23.0090 C.3   604  MET604      0.0692
     31  N         13.7510   10.7610   15.2010 N.3   607  PHE607     -0.1227
     32  CA        13.9480    9.3200   15.3210 C.3   607  PHE607      0.1736
     33  C         12.8980    8.5110   14.5690 C.2   607  PHE607      0.2595
     34  O         13.0770    7.3150   14.3460 O.2   607  PHE607     -0.2718
     35  CB        13.9710    8.8940   16.7950 C.3   607  PHE607      0.0547
     36  CG        15.2150    9.3030   17.5180 C.ar  607  PHE607     -0.0202
     37  CD1       16.3280    8.4790   17.5250 C.ar  607  PHE607     -0.0042
     38  CD2       15.2780   10.5160   18.1840 C.ar  607  PHE607     -0.0042
     39  CE1       17.4820    8.8540   18.1890 C.ar  607  PHE607     -0.0003
     40  CE2       16.4300   10.9000   18.8500 C.ar  607  PHE607     -0.0003
     41  CZ        17.5330   10.0660   18.8530 C.ar  607  PHE607     -0.0000
     42  N         11.8020    9.1570   14.1820 N.am  608  TYR608     -0.1976
     43  CA        10.7170    8.4460   13.5130 C.3   608  TYR608      0.1639
     44  C         10.4020    8.9330   12.1010 C.2   608  TYR608      0.2290
     45  O          9.3760    8.5610   11.5320 O.2   608  TYR608     -0.2864
     46  CB         9.4510    8.4750   14.3660 C.3   608  TYR608      0.0560
     47  CG         9.6070    7.7570   15.6840 C.ar  608  TYR608     -0.0198
     48  CD1        9.6310    6.3690   15.7410 C.ar  608  TYR608     -0.0009
     49  CD2        9.7390    8.4640   16.8690 C.ar  608  TYR608     -0.0009
     50  CE1        9.7770    5.7030   16.9490 C.ar  608  TYR608      0.0417
     51  CE2        9.8830    7.8060   18.0860 C.ar  608  TYR608      0.0417
     52  CZ         9.9030    6.4270   18.1160 C.ar  608  TYR608      0.1957
     53  OH        10.0480    5.7720   19.3200 O.3   608  TYR608     -0.2866
     54  N         11.5780    5.5990    9.8490 N.3   611  ARG611     -0.1245
     55  CA        10.7960    4.4230   10.2020 C.3   611  ARG611      0.1563
     56  C          9.9070    4.7260   11.4000 C.2   611  ARG611      0.2260
     57  O         10.3700    5.2580   12.4090 O.2   611  ARG611     -0.2867
     58  CB        11.7260    3.2480   10.5140 C.3   611  ARG611      0.0307
     59  CG        11.0220    1.9180   10.7410 C.3   611  ARG611      0.0489
     60  CD        12.0270    0.8110   11.0410 C.3   611  ARG611      0.2205
     61  NE        11.3820   -0.4820   11.2620 N.pl3 611  ARG611     -0.0865
     62  CZ        11.5710   -1.2420   12.3380 C.cat 611  ARG611      0.5346
     63  NH1       12.3910   -0.8440   13.3020 N.pl3 611  ARG611      0.1354
     64  NH2       10.9390   -2.4040   12.4480 N.pl3 611  ARG611      0.1354
     65  N          5.2630   11.4410   17.1140 N.3   615  TYR615     -0.1241
     66  CA         4.5160   11.3600   18.3630 C.3   615  TYR615      0.1605
     67  C          3.1260   11.9590   18.2150 C.2   615  TYR615      0.2264
     68  O          2.9720   13.0550   17.6750 O.2   615  TYR615     -0.2867
     69  CB         5.2570   12.0910   19.4880 C.3   615  TYR615      0.0534
     70  CG         6.5350   11.4240   19.9380 C.ar  615  TYR615     -0.0201
     71  CD1        6.5210   10.4670   20.9430 C.ar  615  TYR615     -0.0009
     72  CD2        7.7590   11.7660   19.3740 C.ar  615  TYR615     -0.0009
     73  CE1        7.6870    9.8580   21.3680 C.ar  615  TYR615      0.0417
     74  CE2        8.9290   11.1610   19.7880 C.ar  615  TYR615      0.0417
     75  CZ         8.8860   10.2080   20.7910 C.ar  615  TYR615      0.1957
     76  OH        10.0440    9.6010   21.2160 O.3   615  TYR615     -0.2866
     77  N          6.1050    6.9510   26.1290 N.3   624  LYS624     -0.1245
     78  CA         7.1700    6.5410   25.2120 C.3   624  LYS624      0.1561
     79  C          8.1810    7.6690   25.0370 C.2   624  LYS624      0.2260
     80  O          9.3910    7.4360   25.0340 O.2   624  LYS624     -0.2867
     81  CB         6.6020    6.1310   23.8450 C.3   624  LYS624      0.0271
     82  CG         7.6010    5.3760   22.9740 C.3   624  LYS624      0.0035
     83  CD         7.0330    5.0520   21.5860 C.3   624  LYS624      0.0206
     84  CE         7.0130    6.2760   20.6790 C.3   624  LYS624      0.1093
     85  NZ         6.5780    5.9320   19.2870 N.3   624  LYS624     -0.1314
     86  N         10.3620    7.7890   28.1070 N.3   627  ARG627     -0.1231
     87  CA        11.3170    6.6890   28.0400 C.3   627  ARG627      0.1694
     88  C         12.4470    6.9780   27.0450 C.2   627  ARG627      0.2592
     89  O         13.6280    6.8560   27.3840 O.2   627  ARG627     -0.2718
     90  CB        10.6040    5.3910   27.6650 C.3   627  ARG627      0.0321
     91  CG        11.4840    4.1570   27.7420 C.3   627  ARG627      0.0489
     92  CD        11.3640    3.3260   26.4830 C.3   627  ARG627      0.2205
     93  NE        12.4230    3.6200   25.5270 N.pl3 627  ARG627     -0.0865
     94  CZ        13.3100    2.7260   25.1040 C.cat 627  ARG627      0.5346
     95  NH1       13.2590    1.4790   25.5500 N.pl3 627  ARG627      0.1354
     96  NH2       14.2420    3.0760   24.2300 N.pl3 627  ARG627      0.1354
     97  N         12.0870    7.3770   25.8260 N.am  628  ASN628     -0.1974
     98  CA        13.0870    7.6820   24.8050 C.3   628  ASN628      0.1688
     99  C         14.0370    8.8070   25.2150 C.2   628  ASN628      0.2292
    100  O         15.2520    8.6850   25.0650 O.2   628  ASN628     -0.2864
    101  CB        12.4260    8.0080   23.4570 C.3   628  ASN628      0.1181
    102  CG        11.8350    6.7800   22.7830 C.2   628  ASN628      0.2629
    103  OD1       12.2650    5.6530   23.0360 O.2   628  ASN628     -0.2716
    104  ND2       10.8480    6.9930   21.9140 N.am  628  ASN628     -0.0877
    105  N         16.6300    7.7620   27.6250 N.3   631  GLU631     -0.1231
    106  CA        17.6840    7.0110   26.9600 C.3   631  GLU631      0.1699
    107  C         18.6460    7.9500   26.2330 C.2   631  GLU631      0.2592
    108  O         19.8640    7.7620   26.2750 O.2   631  GLU631     -0.2718
    109  CB        17.0700    6.0050   25.9830 C.3   631  GLU631      0.0402
    110  CG        17.7200    4.6300   25.9960 C.3   631  GLU631      0.1161
    111  CD        17.5920    3.9200   27.3340 C.2   631  GLU631      0.3649
    112  OE1       16.6840    4.2640   28.1210 O.co2 631  GLU631     -0.2457
    113  OE2       18.4080    3.0130   27.6000 O.co2 631  GLU631     -0.2457
    114  N         18.0960    8.9670   25.5750 N.am  632  ASN632     -0.1974
    115  CA        18.9140    9.9350   24.8510 C.3   632  ASN632      0.1688
    116  C         19.8080   10.7550   25.7800 C.2   632  ASN632      0.2292
    117  O         21.0120   10.8580   25.5560 O.2   632  ASN632     -0.2864
    118  CB        18.0370   10.8550   23.9970 C.3   632  ASN632      0.1181
    119  CG        17.3020   10.1040   22.8990 C.2   632  ASN632      0.2629
    120  OD1       17.6920    8.9980   22.5210 O.2   632  ASN632     -0.2716
    121  ND2       16.2360   10.7030   22.3800 N.am  632  ASN632     -0.0877
@<TRIPOS>BOND
     1    54    55    1
     2    55    58    1
     3    55    56    1
     4    58    59    1
     5    59    60    1
     6    60    61    1
     7    61    62    2
     8    56    57    2
     9    45    44    2
    10    44    43    1
    11    62    64    1
    12    62    63    1
    13    43    42    1
    14    43    46    1
    15    42    33   am
    16    34    33    2
    17    46    47    1
    18    33    32    1
    19    31    32    1
    20    32    35    1
    21    47    48   ar
    22    47    49   ar
    23    48    50   ar
    24    35    36    1
    25    49    51   ar
    26    50    52   ar
    27    22    20    1
    28    65    66    1
    29    36    37   ar
    30    36    38   ar
    31    37    39   ar
    32    68    67    2
    33    26    25    2
    34    25    24    1
    35    51    52   ar
    36    52    53    1
    37    38    40   ar
    38    39    41   ar
    39    67    66    1
    40    66    69    1
    41    20    21    1
    42    20    17    1
    43    17    18    1
    44    17    16    1
    45    23    24    1
    46    40    41   ar
    47    10     9    2
    48    18    19    2
    49    24    27    1
    50    85    84    1
    51    72    74   ar
    52    72    70   ar
    53    69    70    1
    54    74    75   ar
    55    16     9   am
    56     9     8    1
    57    70    71   ar
    58    27    28    1
    59    84    83    1
    60    75    76    1
    61    75    73   ar
    62    71    73   ar
    63     8    11    1
    64     8     7    1
    65    11    12    1
    66    83    82    1
    67    28    29    1
    68     4     3    2
    69   104   102   am
    70    29    30    1
    71   121   119   am
    72    12    13    1
    73   120   119    2
    74    13    14    1
    75   102   103    2
    76   102   101    1
    77   119   118    1
    78     3     2    1
    79    82    81    1
    80     5     2    1
    81     5     6    1
    82   101    98    1
    83     2     1    1
    84    14    15    1
    85    81    78    1
    86   118   115    1
    87    96    94    1
    88    98    99    1
    89    98    97    1
    90   115   114    1
    91   115   116    1
    92    80    79    2
    93    79    78    1
    94   100    99    2
    95    94    93    2
    96    94    95    1
    97    78    77    1
    98    93    92    1
    99   117   116    2
   100   114   107   am
   101    97    88   am
   102   109   110    1
   103   109   106    1
   104   110   111    1
   105   107   108    2
   106   107   106    1
   107    92    91    1
   108   106   105    1
   109    88    89    2
   110    88    87    1
   111   111   113   ar
   112   111   112   ar
   113    90    91    1
   114    90    87    1
   115    87    86    1
