@<TRIPOS>MOLECULE
tmp/4oavC00.pdb
 213 201 0 0 0
SMALL
GASTEIGER

@<TRIPOS>ATOM
      1  N         20.4940   19.8160   73.8660 N.3   310  TRP310     -0.1241
      2  CA        20.7920   19.5400   75.2540 C.3   310  TRP310      0.1605
      3  C         22.1940   18.9880   75.1540 C.2   310  TRP310      0.2264
      4  O         22.5520   18.4260   74.1340 O.2   310  TRP310     -0.2867
      5  CB        19.8190   18.4940   75.7870 C.3   310  TRP310      0.0550
      6  CG        18.4630   18.6640   75.1800 C.ar  310  TRP310      0.0003
      7  CD1       17.8610   17.8440   74.2720 C.ar  310  TRP310      0.0946
      8  CD2       17.5590   19.7540   75.4000 C.ar  310  TRP310      0.0152
      9  NE1       16.6270   18.3450   73.9280 N.ar  310  TRP310     -0.2442
     10  CE2       16.4190   19.5170   74.6050 C.ar  310  TRP310      0.0810
     11  CE3       17.5980   20.9020   76.2010 C.ar  310  TRP310      0.0012
     12  CZ2       15.3270   20.3850   74.5870 C.ar  310  TRP310      0.0191
     13  CZ3       16.5140   21.7610   76.1830 C.ar  310  TRP310      0.0001
     14  CH2       15.3950   21.5000   75.3800 C.ar  310  TRP310      0.0015
     15  N         12.7530   21.2470   79.7510 N.3   338  ILE338     -0.1231
     16  CA        12.5550   21.2190   78.3030 C.3   338  ILE338      0.1692
     17  C         11.2850   21.9760   77.9040 C.2   338  ILE338      0.2592
     18  O         11.2870   22.7520   76.9480 O.2   338  ILE338     -0.2718
     19  CB        12.5100   19.7630   77.7750 C.3   338  ILE338      0.0266
     20  CG1       13.8610   19.0780   77.9980 C.3   338  ILE338      0.0019
     21  CG2       12.1350   19.7260   76.3020 C.3   338  ILE338      0.0020
     22  CD1       13.8300   17.5750   77.8340 C.3   338  ILE338      0.0001
     23  N         10.2070   21.7710   78.6550 N.am  339  ALA339     -0.1966
     24  CA         8.9280   22.4010   78.3380 C.3   339  ALA339      0.1728
     25  C          8.0000   22.4500   79.5470 C.2   339  ALA339      0.2616
     26  O          8.1480   21.6720   80.4850 O.2   339  ALA339     -0.2715
     27  CB         8.2490   21.6600   77.1990 C.3   339  ALA339      0.0334
     28  N          7.0440   23.3690   79.5150 N.am  340  ASP340     -0.1957
     29  CA         6.0020   23.4220   80.5310 C.3   340  ASP340      0.1840
     30  C          4.8960   22.4460   80.1640 C.2   340  ASP340      0.2623
     31  O          4.6660   22.1750   78.9840 O.2   340  ASP340     -0.2715
     32  CB         5.4560   24.8430   80.6810 C.3   340  ASP340      0.1450
     33  CG         6.4000   25.7470   81.4500 C.2   340  ASP340      0.3671
     34  OD1        6.9610   25.2890   82.4680 O.co2 340  ASP340     -0.2456
     35  OD2        6.5890   26.9100   81.0400 O.co2 340  ASP340     -0.2456
     36  N          4.2110   21.9260   81.1780 N.am  341  THR341     -0.1937
     37  CA         3.2490   20.8500   80.9860 C.3   341  THR341      0.2028
     38  C          2.1150   20.9870   82.0050 C.2   341  THR341      0.2642
     39  O          2.2930   21.6220   83.0420 O.2   341  THR341     -0.2714
     40  CB         3.9640   19.4770   81.0980 C.3   341  THR341      0.1808
     41  OG1        3.7930   18.7390   79.8840 O.3   341  THR341     -0.2208
     42  CG2        3.4650   18.6580   82.2840 C.3   341  THR341      0.0379
     43  N          0.9510   20.4150   81.6990 N.am  342  SER342     -0.1949
     44  CA        -0.2150   20.5360   82.5730 C.3   342  SER342      0.1924
     45  C          0.0360   20.0620   84.0110 C.2   342  SER342      0.2314
     46  O         -0.4310   20.6850   84.9630 O.2   342  SER342     -0.2863
     47  CB        -1.4170   19.8040   81.9740 C.3   342  SER342      0.2116
     48  OG        -1.9280   20.5040   80.8510 O.3   342  SER342     -0.2180
     49  N          8.5040   18.8680   81.1980 N.3   346  ILE346     -0.1245
     50  CA         9.4570   17.9100   80.6600 C.3   346  ILE346      0.1561
     51  C         10.8460   18.3650   81.0820 C.2   346  ILE346      0.2260
     52  O         11.1790   19.5410   80.9550 O.2   346  ILE346     -0.2867
     53  CB         9.4190   17.8610   79.1130 C.3   346  ILE346      0.0252
     54  CG1        7.9800   17.8150   78.6070 C.3   346  ILE346      0.0019
     55  CG2       10.2020   16.6550   78.6080 C.3   346  ILE346      0.0019
     56  CD1        7.2580   16.5400   78.9860 C.3   346  ILE346      0.0001
     57  N         14.3920   12.1950   78.4870 N.3   357  ALA357     -0.1245
     58  CA        13.4550   13.2630   78.8010 C.3   357  ALA357      0.1562
     59  C         12.4860   12.7250   79.8460 C.2   357  ALA357      0.2260
     60  O         12.0270   11.5870   79.7370 O.2   357  ALA357     -0.2867
     61  CB        12.7040   13.6950   77.5530 C.3   357  ALA357      0.0290
     62  N          8.8710   13.2030   81.7540 N.3   359  LYS359     -0.1245
     63  CA         7.5670   13.8540   81.8140 C.3   359  LYS359      0.1561
     64  C          6.9680   13.6290   83.1990 C.2   359  LYS359      0.2260
     65  O          6.8400   12.4900   83.6410 O.2   359  LYS359     -0.2867
     66  CB         6.6420   13.2930   80.7280 C.3   359  LYS359      0.0271
     67  CG         5.2930   13.9970   80.6080 C.3   359  LYS359      0.0035
     68  CD         4.5800   13.5900   79.3090 C.3   359  LYS359      0.0206
     69  CE         3.3480   14.4510   79.0390 C.3   359  LYS359      0.1093
     70  NZ         2.7690   14.2010   77.6780 N.3   359  LYS359     -0.1314
     71  N         -4.3790   11.6690   82.8780 N.3   367  ARG367     -0.1245
     72  CA        -3.2850   11.8530   81.9270 C.3   367  ARG367      0.1563
     73  C         -2.1510   10.8660   82.1880 C.2   367  ARG367      0.2260
     74  O         -1.5900   10.2940   81.2530 O.2   367  ARG367     -0.2867
     75  CB        -2.7370   13.2800   81.9890 C.3   367  ARG367      0.0307
     76  CG        -3.6030   14.3270   81.3130 C.3   367  ARG367      0.0489
     77  CD        -3.0950   15.7250   81.6350 C.3   367  ARG367      0.2205
     78  NE        -3.8020   16.7610   80.8890 N.pl3 367  ARG367     -0.0865
     79  CZ        -3.3630   17.2880   79.7500 C.cat 367  ARG367      0.5346
     80  NH1       -2.2130   16.8780   79.2250 N.pl3 367  ARG367      0.1354
     81  NH2       -4.0720   18.2280   79.1340 N.pl3 367  ARG367      0.1354
     82  N          8.6780    7.1040   70.4410 N.3   385  VAL385     -0.1245
     83  CA         9.7510    7.4140   71.3640 C.3   385  VAL385      0.1561
     84  C          9.8360    6.2090   72.3090 C.2   385  VAL385      0.2260
     85  O          8.8120    5.6560   72.7130 O.2   385  VAL385     -0.2867
     86  CB         9.5050    8.7560   72.0950 C.3   385  VAL385      0.0252
     87  CG1        8.2900    8.6750   73.0130 C.3   385  VAL385      0.0019
     88  CG2       10.7430    9.1810   72.8550 C.3   385  VAL385      0.0019
     89  N         11.5330    8.7940   78.6300 N.3   401  VAL401     -0.1231
     90  CA        11.5400    8.3790   77.2260 C.3   401  VAL401      0.1692
     91  C         12.7910    8.9330   76.5430 C.2   401  VAL401      0.2593
     92  O         13.4910    9.7540   77.1360 O.2   401  VAL401     -0.2718
     93  CB        10.2890    8.8890   76.4810 C.3   401  VAL401      0.0266
     94  CG1        9.0220    8.3010   77.1000 C.3   401  VAL401      0.0020
     95  CG2       10.2480   10.4240   76.4860 C.3   401  VAL401      0.0020
     96  N         13.0840    8.4980   75.3130 N.am  402  THR402     -0.1939
     97  CA        14.3060    8.9740   74.6600 C.3   402  THR402      0.2028
     98  C         14.3060   10.4920   74.5090 C.2   402  THR402      0.2642
     99  O         13.2890   11.1030   74.1730 O.2   402  THR402     -0.2714
    100  CB        14.6160    8.3120   73.2840 C.3   402  THR402      0.1808
    101  OG1       14.5550    9.2940   72.2430 O.3   402  THR402     -0.2208
    102  CG2       13.6730    7.1980   72.9770 C.3   402  THR402      0.0379
    103  N         15.4540   11.0880   74.7980 N.am  403  LEU403     -0.1963
    104  CA        15.6220   12.5210   74.6640 C.3   403  LEU403      0.1728
    105  C         15.8250   12.8380   73.1940 C.2   403  LEU403      0.2616
    106  O         16.7250   12.2970   72.5600 O.2   403  LEU403     -0.2715
    107  CB        16.8260   12.9890   75.4770 C.3   403  LEU403      0.0311
    108  CG        17.1800   14.4740   75.4170 C.3   403  LEU403      0.0022
    109  CD1       16.0340   15.3240   75.9440 C.3   403  LEU403      0.0001
    110  CD2       18.4530   14.7420   76.2020 C.3   403  LEU403      0.0001
    111  N         14.9670   13.6980   72.6590 N.am  404  CYS404     -0.1954
    112  CA        15.0580   14.1220   71.2700 C.3   404  CYS404      0.1843
    113  C         15.5150   15.5720   71.1990 C.2   404  CYS404      0.2625
    114  O         15.4350   16.3040   72.1880 O.2   404  CYS404     -0.2714
    115  CB        13.7150   13.9400   70.5670 C.3   404  CYS404      0.0997
    116  SG        13.2190   12.2090   70.3720 S.3   404  CYS404     -0.0797
    117  N         16.0060   15.9820   70.0320 N.am  405  GLU405     -0.1963
    118  CA        16.5960   17.3070   69.8790 C.3   405  GLU405      0.1733
    119  C         15.5590   18.4240   69.8660 C.2   405  GLU405      0.2616
    120  O         15.7250   19.4380   70.5390 O.2   405  GLU405     -0.2715
    121  CB        17.4470   17.3800   68.6090 C.3   405  GLU405      0.0429
    122  CG        18.7140   16.5460   68.6570 C.3   405  GLU405      0.1163
    123  CD        19.6260   16.9450   69.7950 C.2   405  GLU405      0.3649
    124  OE1       20.4470   17.8650   69.6060 O.co2 405  GLU405     -0.2457
    125  OE2       19.5210   16.3380   70.8800 O.co2 405  GLU405     -0.2457
    126  N         14.4910   18.2340   69.0990 N.am  406  GLN406     -0.1963
    127  CA        13.5080   19.2880   68.8900 C.3   406  GLN406      0.1733
    128  C         12.2480   18.6890   68.2940 C.2   406  GLN406      0.2617
    129  O         12.2170   17.5070   67.9600 O.2   406  GLN406     -0.2715
    130  CB        14.0700   20.3520   67.9420 C.3   406  GLN406      0.0408
    131  CG        14.5060   19.7930   66.5870 C.3   406  GLN406      0.0908
    132  CD        15.0220   20.8600   65.6360 C.2   406  GLN406      0.2608
    133  OE1       14.9490   22.0560   65.9210 O.2   406  GLN406     -0.2717
    134  NE2       15.5490   20.4270   64.4950 N.am  406  GLN406     -0.0878
    135  N         11.2030   19.5000   68.1690 N.am  407  THR407     -0.1951
    136  CA         9.9520   19.0320   67.5870 C.3   407  THR407      0.1897
    137  C          9.9670   19.2230   66.0770 C.2   407  THR407      0.2313
    138  O         10.8700   19.8580   65.5300 O.2   407  THR407     -0.2863
    139  CB         8.7400   19.7820   68.1620 C.3   407  THR407      0.1794
    140  OG1        8.8190   21.1650   67.7970 O.3   407  THR407     -0.2208
    141  CG2        8.7030   19.6610   69.6770 C.3   407  THR407      0.0378
    142  N         -3.9310   12.8980   69.4640 N.3   445  ASP445     -0.1239
    143  CA        -3.2870   14.2060   69.5610 C.3   445  ASP445      0.1674
    144  C         -2.1600   14.3500   68.5390 C.2   445  ASP445      0.2266
    145  O         -1.1180   14.9410   68.8230 O.2   445  ASP445     -0.2867
    146  CB        -2.7740   14.4500   70.9880 C.3   445  ASP445      0.1410
    147  CG        -2.4400   15.9120   71.2530 C.2   445  ASP445      0.3668
    148  OD1       -3.0280   16.7900   70.5870 O.co2 445  ASP445     -0.2456
    149  OD2       -1.5850   16.1840   72.1260 O.co2 445  ASP445     -0.2456
    150  N         -0.1140   15.9530   66.0850 N.3   447  GLN447     -0.1245
    151  CA         0.1570   17.3590   65.8150 C.3   447  GLN447      0.1566
    152  C          1.6710   17.5720   65.8550 C.2   447  GLN447      0.2260
    153  O          2.3740   16.8290   66.5390 O.2   447  GLN447     -0.2867
    154  CB        -0.5420   18.2370   66.8550 C.3   447  GLN447      0.0367
    155  CG         0.0570   18.1410   68.2420 C.3   447  GLN447      0.0905
    156  CD        -0.2150   19.3730   69.0720 C.2   447  GLN447      0.2608
    157  OE1       -0.9880   20.2450   68.6750 O.2   447  GLN447     -0.2717
    158  NE2        0.4250   19.4560   70.2320 N.am  447  GLN447     -0.0878
    159  N          3.8760   19.3550   67.2830 N.3   449  GLN449     -0.1231
    160  CA         4.6020   19.4660   68.5450 C.3   449  GLN449      0.1698
    161  C          4.8050   18.1090   69.2120 C.2   449  GLN449      0.2592
    162  O          5.6180   17.9770   70.1300 O.2   449  GLN449     -0.2718
    163  CB         3.8920   20.4340   69.4940 C.3   449  GLN449      0.0381
    164  CG         4.2830   21.8970   69.2980 C.3   449  GLN449      0.0905
    165  CD         3.1030   22.8430   69.4100 C.2   449  GLN449      0.2608
    166  OE1        1.9710   22.4760   69.0920 O.2   449  GLN449     -0.2717
    167  NE2        3.3600   24.0700   69.8580 N.am  449  GLN449     -0.0878
    168  N          4.0640   17.1060   68.7470 N.am  450  ASN450     -0.1974
    169  CA         4.1840   15.7530   69.2800 C.3   450  ASN450      0.1688
    170  C          5.0330   14.8510   68.3980 C.2   450  ASN450      0.2292
    171  O          5.2050   13.6660   68.6890 O.2   450  ASN450     -0.2864
    172  CB         2.8080   15.1250   69.5020 C.3   450  ASN450      0.1181
    173  CG         2.0750   15.7420   70.6640 C.2   450  ASN450      0.2629
    174  OD1        2.6890   16.3420   71.5470 O.2   450  ASN450     -0.2716
    175  ND2        0.7540   15.5870   70.6830 N.am  450  ASN450     -0.0877
    176  N          8.7480   14.2840   67.3390 N.3   452  LEU452     -0.1245
    177  CA        10.0640   14.6680   67.8350 C.3   452  LEU452      0.1561
    178  C         11.1680   14.2360   66.8900 C.2   452  LEU452      0.2260
    179  O         11.1260   13.1450   66.3210 O.2   452  LEU452     -0.2867
    180  CB        10.3040   14.0730   69.2190 C.3   452  LEU452      0.0270
    181  CG         9.1870   14.3290   70.2280 C.3   452  LEU452      0.0019
    182  CD1        9.5940   13.7980   71.5940 C.3   452  LEU452      0.0001
    183  CD2        8.8430   15.8140   70.2980 C.3   452  LEU452      0.0001
    184  N          5.3810   10.9310   69.9180 N.3   462  ALA462     -0.1231
    185  CA         5.4020   11.0250   71.3760 C.3   462  ALA462      0.1694
    186  C          4.0890   11.5790   71.9080 C.2   462  ALA462      0.2592
    187  O          3.1610   11.8420   71.1420 O.2   462  ALA462     -0.2718
    188  CB         6.5690   11.8890   71.8480 C.3   462  ALA462      0.0304
    189  N          4.0280   11.7390   73.2280 N.am  463  ASP463     -0.1974
    190  CA         2.8720   12.3060   73.9250 C.3   463  ASP463      0.1709
    191  C          1.6270   11.4370   73.7960 C.2   463  ASP463      0.2293
    192  O          0.8660   11.5540   72.8370 O.2   463  ASP463     -0.2864
    193  CB         2.5910   13.7370   73.4510 C.3   463  ASP463      0.1436
    194  CG         1.5020   14.4140   74.2550 C.2   463  ASP463      0.3671
    195  OD1        1.0920   13.8550   75.2910 O.co2 463  ASP463     -0.2456
    196  OD2        1.0620   15.5130   73.8570 O.co2 463  ASP463     -0.2456
    197  N         -0.6510   10.9790   76.5270 N.3   465  ASP465     -0.1225
    198  CA        -1.5270   11.1760   77.6840 C.3   465  ASP465      0.1805
    199  C         -2.9780   11.4780   77.2990 C.2   465  ASP465      0.2597
    200  O         -3.8130   11.7360   78.1630 O.2   465  ASP465     -0.2718
    201  CB        -0.9550   12.1970   78.6880 C.3   465  ASP465      0.1424
    202  CG        -0.9770   13.6290   78.1710 C.2   465  ASP465      0.3668
    203  OD1       -1.1930   13.8460   76.9590 O.co2 465  ASP465     -0.2456
    204  OD2       -0.7670   14.5470   78.9930 O.co2 465  ASP465     -0.2456
    205  N         -3.2690   11.4310   75.9990 N.am  466  LYS466     -0.1979
    206  CA        -4.6460   11.5110   75.5110 C.3   466  LYS466      0.1596
    207  C         -5.0130   10.3030   74.6470 C.2   466  LYS466      0.2287
    208  O         -6.0890   10.2600   74.0460 O.2   466  LYS466     -0.2864
    209  CB        -4.8850   12.8140   74.7430 C.3   466  LYS466      0.0298
    210  CG        -4.8940   14.0530   75.6270 C.3   466  LYS466      0.0038
    211  CD        -5.2720   15.2980   74.8440 C.3   466  LYS466      0.0206
    212  CE        -5.3650   16.5100   75.7590 C.3   466  LYS466      0.1093
    213  NZ        -5.7390   17.7400   75.0100 N.3   466  LYS466     -0.1314
@<TRIPOS>BOND
     1   134   132   am
     2   138   137    2
     3   132   133    2
     4   132   131    1
     5   151   152    1
     6   151   150    1
     7   151   154    1
     8   152   153    2
     9   137   136    1
    10   179   178    2
    11   131   130    1
    12   154   155    1
    13   178   177    1
    14   159   160    1
    15   176   177    1
    16   136   139    1
    17   136   135    1
    18   140   139    1
    19   177   180    1
    20   130   127    1
    21   129   128    2
    22   139   141    1
    23   135   128   am
    24   155   156    1
    25   128   127    1
    26   170   171    2
    27   170   169    1
    28   144   145    2
    29   144   143    1
    30   160   161    1
    31   160   163    1
    32   121   122    1
    33   121   118    1
    34   122   123    1
    35   157   156    2
    36   168   161   am
    37   168   169    1
    38   127   126    1
    39   156   158   am
    40   166   165    2
    41   126   119   am
    42   161   162    2
    43   180   181    1
    44   169   172    1
    45   164   165    1
    46   164   163    1
    47   165   167   am
    48   142   143    1
    49   172   173    1
    50   143   146    1
    51   124   123   ar
    52   123   125   ar
    53   119   118    1
    54   119   120    2
    55   118   117    1
    56   184   185    1
    57   117   113   am
    58   181   183    1
    59   181   182    1
    60   116   115    1
    61    82    83    1
    62   115   112    1
    63   148   147   ar
    64   173   175   am
    65   173   174    2
    66   146   147    1
    67   187   186    2
    68   113   112    1
    69   113   114    2
    70   147   149   ar
    71   112   111    1
    72    83    86    1
    73    83    84    1
    74   185   188    1
    75   185   186    1
    76   186   189   am
    77    86    88    1
    78    86    87    1
    79   101   100    1
    80    84    85    2
    81   106   105    2
    82   111   105   am
    83   192   191    2
    84   102   100    1
    85   105   104    1
    86   189   190    1
    87   100    97    1
    88   193   190    1
    89   193   194    1
    90   191   190    1
    91   196   194   ar
    92     1     2    1
    93     9     7   ar
    94     9    10   ar
    95   208   207    2
    96     4     3    2
    97    99    98    2
    98   194   195   ar
    99     7     6   ar
   100    98    97    1
   101    98   103   am
   102    12    10   ar
   103    12    14   ar
   104    10     8   ar
   105   207   206    1
   106    97    96    1
   107   104   103    1
   108   104   107    1
   109   209   206    1
   110   209   210    1
   111   211   210    1
   112   211   212    1
   113   213   212    1
   114     3     2    1
   115     6     8   ar
   116     6     5    1
   117     2     5    1
   118    96    91   am
   119    14    13   ar
   120     8    11   ar
   121   108   107    1
   122   108   109    1
   123   108   110    1
   124   206   205    1
   125   205   199   am
   126    13    11   ar
   127    21    19    1
   128    93    95    1
   129    93    94    1
   130    93    90    1
   131   197   198    1
   132    91    92    2
   133    91    90    1
   134    18    17    2
   135   203   202   ar
   136    27    24    1
   137    90    89    1
   138   199   198    1
   139   199   200    2
   140    61    58    1
   141    70    69    1
   142   198   201    1
   143    19    20    1
   144    19    16    1
   145    22    20    1
   146    17    16    1
   147    17    23   am
   148   202   201    1
   149   202   204   ar
   150    16    15    1
   151    24    23    1
   152    24    25    1
   153    57    58    1
   154    54    56    1
   155    54    53    1
   156    55    53    1
   157    58    59    1
   158    31    30    2
   159    69    68    1
   160    53    50    1
   161    81    79    1
   162    80    79    1
   163    68    67    1
   164    28    25   am
   165    28    29    1
   166    25    26    2
   167    60    59    2
   168    79    78    2
   169    41    40    1
   170    30    29    1
   171    30    36   am
   172    29    32    1
   173    67    66    1
   174    50    51    1
   175    50    49    1
   176    32    33    1
   177    66    63    1
   178    48    47    1
   179    78    77    1
   180    52    51    2
   181    37    40    1
   182    37    36    1
   183    37    38    1
   184    35    33   ar
   185    40    42    1
   186    74    73    2
   187    76    77    1
   188    76    75    1
   189    33    34   ar
   190    43    38   am
   191    43    44    1
   192    62    63    1
   193    63    64    1
   194    72    75    1
   195    72    73    1
   196    72    71    1
   197    47    44    1
   198    38    39    2
   199    44    45    1
   200    64    65    2
   201    45    46    2
