@<TRIPOS>MOLECULE
tmp/4ob6A00.pdb
 143 134 0 0 0
SMALL
GASTEIGER

@<TRIPOS>ATOM
      1  N        122.5140   85.5030   -3.2940 N.3    25  LEU25      -0.1245
      2  CA       122.4740   86.9410   -3.0830 C.3    25  LEU25       0.1561
      3  C        123.8710   87.5350   -2.9310 C.2    25  LEU25       0.2260
      4  O        124.1700   88.6070   -3.4680 O.2    25  LEU25      -0.2867
      5  CB       121.6530   87.2230   -1.8220 C.3    25  LEU25       0.0270
      6  CG       121.1790   88.6500   -1.5750 C.3    25  LEU25       0.0019
      7  CD1      120.2220   89.0910   -2.6640 C.3    25  LEU25       0.0001
      8  CD2      120.5120   88.7170   -0.2140 C.3    25  LEU25       0.0001
      9  N        115.6300   92.4990   -3.2140 N.3    37  LEU37      -0.1245
     10  CA       114.7240   92.7730   -2.0990 C.3    37  LEU37       0.1561
     11  C        113.5900   93.6900   -2.5300 C.2    37  LEU37       0.2260
     12  O        112.4350   93.4710   -2.1760 O.2    37  LEU37      -0.2867
     13  CB       115.4840   93.3950   -0.9200 C.3    37  LEU37       0.0270
     14  CG       114.6330   93.8320    0.2740 C.3    37  LEU37       0.0019
     15  CD1      113.9160   92.6460    0.9180 C.3    37  LEU37       0.0001
     16  CD2      115.4930   94.5870    1.3010 C.3    37  LEU37       0.0001
     17  N        116.5830   96.7010    8.4310 N.3    87  GLY87      -0.1210
     18  CA       117.5220   95.6150    8.2080 C.3    87  GLY87       0.1956
     19  C        117.8800   95.4910    6.7420 C.2    87  GLY87       0.2612
     20  O        117.6260   96.3980    5.9280 O.2    87  GLY87      -0.2717
     21  N        118.4820   94.3590    6.3950 N.am   88  GLY88      -0.1942
     22  CA       119.0280   94.1930    5.0640 C.3    88  GLY88       0.2014
     23  C        120.5280   93.9500    5.0650 C.2    88  GLY88       0.2639
     24  O        121.1800   94.0880    4.0290 O.2    88  GLY88      -0.2714
     25  N        121.0940   93.6050    6.2190 N.am   89  GLY89      -0.1954
     26  CA       122.4970   93.2110    6.2640 C.3    89  GLY89       0.1869
     27  C        123.4880   94.3270    5.9720 C.2    89  GLY89       0.2309
     28  O        124.6070   94.0680    5.5110 O.2    89  GLY89      -0.2863
     29  N        121.6990   95.9560    2.0010 N.3    92  LEU92      -0.1245
     30  CA       120.3810   96.0830    1.3900 C.3    92  LEU92       0.1561
     31  C        119.4270   96.8660    2.2720 C.2    92  LEU92       0.2260
     32  O        119.7560   97.2190    3.4060 O.2    92  LEU92      -0.2867
     33  CB       119.7750   94.6960    1.1470 C.3    92  LEU92       0.0270
     34  CG       120.7530   93.5780    0.7940 C.3    92  LEU92       0.0019
     35  CD1      120.0430   92.2470    0.6820 C.3    92  LEU92       0.0001
     36  CD2      121.4440   93.9220   -0.4990 C.3    92  LEU92       0.0001
     37  N        114.7620   95.6380   12.7910 N.3   159  ASN159     -0.1225
     38  CA       114.8130   94.2210   12.4380 C.3   159  ASN159      0.1785
     39  C        116.2010   93.8160   11.9480 C.2   159  ASN159      0.2597
     40  O        116.7960   94.5080   11.1240 O.2   159  ASN159     -0.2718
     41  CB       113.7900   93.9010   11.3430 C.3   159  ASN159      0.1169
     42  CG       113.9920   94.7430   10.0830 C.2   159  ASN159      0.2627
     43  OD1      113.9930   95.9800   10.1350 O.2   159  ASN159     -0.2716
     44  ND2      114.1580   94.0690    8.9420 N.am  159  ASN159     -0.0877
     45  N        116.7130   92.7070   12.4750 N.am  160  ALA160     -0.1966
     46  CA       117.9580   92.0940   11.9790 C.3   160  ALA160      0.1728
     47  C        119.1610   93.0040   12.2220 C.2   160  ALA160      0.2616
     48  O        119.4400   93.2950   13.3780 O.2   160  ALA160     -0.2715
     49  CB       117.8120   91.6670   10.5220 C.3   160  ALA160      0.0334
     50  N        119.8780   93.4740   11.1940 N.am  161  VAL161     -0.1977
     51  CA       120.9230   94.4570   11.5090 C.3   161  VAL161      0.1596
     52  C        120.3160   95.7470   12.0330 C.2   161  VAL161      0.2287
     53  O        120.9980   96.5380   12.6900 O.2   161  VAL161     -0.2864
     54  CB       121.9040   94.7690   10.3480 C.3   161  VAL161      0.0276
     55  CG1      122.5850   93.5070    9.8780 C.3   161  VAL161      0.0022
     56  CG2      121.1900   95.4860    9.2100 C.3   161  VAL161      0.0022
     57  N        120.9110   90.9500   14.9810 N.3   190  VAL190     -0.1245
     58  CA       122.2950   90.5110   14.8570 C.3   190  VAL190      0.1561
     59  C        123.0120   91.0480   16.0870 C.2   190  VAL190      0.2260
     60  O        122.9250   92.2400   16.3680 O.2   190  VAL190     -0.2867
     61  CB       122.9190   91.1320   13.6020 C.3   190  VAL190      0.0252
     62  CG1      124.4190   90.8870   13.5630 C.3   190  VAL190      0.0019
     63  CG2      122.2500   90.5690   12.3550 C.3   190  VAL190      0.0019
     64  N        116.1110   80.7710    4.1600 N.3   208  PHE208     -0.1227
     65  CA       116.0700   82.1660    3.7170 C.3   208  PHE208      0.1736
     66  C        117.3770   82.9150    3.9870 C.2   208  PHE208      0.2595
     67  O        118.1530   83.1380    3.0540 O.2   208  PHE208     -0.2718
     68  CB       114.8390   82.9010    4.2680 C.3   208  PHE208      0.0547
     69  CG       114.7860   84.3500    3.8900 C.ar  208  PHE208     -0.0202
     70  CD1      114.7030   84.7300    2.5590 C.ar  208  PHE208     -0.0042
     71  CD2      114.8120   85.3320    4.8690 C.ar  208  PHE208     -0.0042
     72  CE1      114.6590   86.0740    2.2070 C.ar  208  PHE208     -0.0003
     73  CE2      114.7650   86.6740    4.5290 C.ar  208  PHE208     -0.0003
     74  CZ       114.6880   87.0450    3.1950 C.ar  208  PHE208     -0.0000
     75  N        117.6270   83.2920    5.2410 N.am  209  LEU209     -0.1980
     76  CA       118.9110   83.8930    5.6130 C.3   209  LEU209      0.1596
     77  C        119.9380   82.7900    5.8020 C.2   209  LEU209      0.2287
     78  O        119.7210   81.8680    6.5900 O.2   209  LEU209     -0.2864
     79  CB       118.7860   84.6900    6.9120 C.3   209  LEU209      0.0297
     80  CG       120.1010   85.2440    7.4800 C.3   209  LEU209      0.0022
     81  CD1      120.6820   86.3000    6.5510 C.3   209  LEU209      0.0001
     82  CD2      119.8920   85.8140    8.8790 C.3   209  LEU209      0.0001
     83  N        125.2860   84.5490    3.5390 N.3   213  MET213     -0.1230
     84  CA       124.8250   85.9340    3.4870 C.3   213  MET213      0.1702
     85  C        125.3400   86.7050    4.6880 C.2   213  MET213      0.2592
     86  O        125.8250   87.8310    4.5530 O.2   213  MET213     -0.2718
     87  CB       123.3000   85.9990    3.4680 C.3   213  MET213      0.0401
     88  CG       122.6900   85.5570    2.1690 C.3   213  MET213      0.0596
     89  SD       120.9370   85.2240    2.4070 S.3   213  MET213     -0.1393
     90  CE       120.5760   84.3110    0.9190 C.3   213  MET213      0.0692
     91  N        125.2400   86.1040    5.8670 N.am  214  MET214     -0.1979
     92  CA       125.6250   86.8120    7.0870 C.3   214  MET214      0.1605
     93  C        127.0990   87.1850    7.0760 C.2   214  MET214      0.2287
     94  O        127.4750   88.2640    7.5230 O.2   214  MET214     -0.2864
     95  CB       125.3250   85.9810    8.3400 C.3   214  MET214      0.0413
     96  CG       123.8680   86.0190    8.7960 C.3   214  MET214      0.0598
     97  SD       123.2350   87.7020    9.0480 S.3   214  MET214     -0.1393
     98  CE       124.4920   88.4240   10.0960 C.3   214  MET214      0.0692
     99  N        127.4340   90.0720    4.6090 N.3   217  PHE217     -0.1241
    100  CA       126.9180   91.2800    5.2350 C.3   217  PHE217      0.1605
    101  C        127.9660   91.8820    6.1640 C.2   217  PHE217      0.2264
    102  O        128.2880   93.0580    6.0500 O.2   217  PHE217     -0.2867
    103  CB       125.6600   90.9600    6.0490 C.3   217  PHE217      0.0534
    104  CG       124.4470   90.6280    5.2200 C.ar  217  PHE217     -0.0203
    105  CD1      124.3120   91.0850    3.9130 C.ar  217  PHE217     -0.0042
    106  CD2      123.4170   89.8710    5.7720 C.ar  217  PHE217     -0.0042
    107  CE1      123.1720   90.7870    3.1700 C.ar  217  PHE217     -0.0003
    108  CE2      122.2720   89.5670    5.0390 C.ar  217  PHE217     -0.0003
    109  CZ       122.1490   90.0200    3.7390 C.ar  217  PHE217     -0.0000
    110  N        120.3960   83.4680   13.4040 N.3   259  LEU259     -0.1245
    111  CA       120.5990   84.4850   14.4400 C.3   259  LEU259      0.1561
    112  C        119.8430   84.2060   15.7420 C.2   259  LEU259      0.2260
    113  O        119.9700   84.9620   16.6990 O.2   259  LEU259     -0.2867
    114  CB       120.1470   85.8540   13.9260 C.3   259  LEU259      0.0270
    115  CG       120.7780   86.3260   12.6170 C.3   259  LEU259      0.0019
    116  CD1      120.2000   87.6640   12.2580 C.3   259  LEU259      0.0001
    117  CD2      122.3100   86.4190   12.7280 C.3   259  LEU259      0.0001
    118  N        113.7820   83.5450    9.8510 N.3   287  HIS287     -0.1226
    119  CA       114.3570   84.8710   10.0690 C.3   287  HIS287      0.1752
    120  C        113.5220   85.9970    9.4730 C.2   287  HIS287      0.2596
    121  O        113.1400   85.9430    8.3010 O.2   287  HIS287     -0.2718
    122  CB       115.7470   84.9360    9.4370 C.3   287  HIS287      0.0759
    123  CG       116.3510   86.3010    9.4890 C.ar  287  HIS287      0.0818
    124  ND1      116.8190   86.8630   10.6610 N.ar  287  HIS287     -0.2268
    125  CD2      116.5350   87.2310    8.5260 C.ar  287  HIS287      0.1154
    126  CE1      117.2680   88.0800   10.4110 C.ar  287  HIS287      0.1986
    127  NE2      117.1060   88.3270    9.1210 N.ar  287  HIS287     -0.2212
    128  N        113.2680   87.0140   10.2970 N.am  288  ASP288     -0.1974
    129  CA       112.6510   88.2670    9.8750 C.3   288  ASP288      0.1709
    130  C        111.3030   88.0800    9.1870 C.2   288  ASP288      0.2293
    131  O        111.0010   88.7420    8.1870 O.2   288  ASP288     -0.2864
    132  CB       113.6100   89.0610    8.9910 C.3   288  ASP288      0.1436
    133  CG       113.5250   90.5420    9.2390 C.2   288  ASP288      0.3671
    134  OD1      112.6350   90.9870   10.0070 O.co2 288  ASP288     -0.2456
    135  OD2      114.3420   91.2640    8.6490 O.co2 288  ASP288     -0.2456
    136  N        109.4620   91.3090    8.3780 N.3   291  LEU291     -0.1245
    137  CA       109.8080   92.1220    7.2160 C.3   291  LEU291      0.1561
    138  C        109.0910   91.6040    5.9720 C.2   291  LEU291      0.2260
    139  O        108.5190   92.3800    5.1980 O.2   291  LEU291     -0.2867
    140  CB       111.3140   92.0640    6.9620 C.3   291  LEU291      0.0270
    141  CG       111.7530   92.7240    5.6540 C.3   291  LEU291      0.0019
    142  CD1      111.3870   94.2180    5.6390 C.3   291  LEU291      0.0001
    143  CD2      113.2530   92.5420    5.4250 C.3   291  LEU291      0.0001
@<TRIPOS>BOND
     1     4     3    2
     2     1     2    1
     3     9    10    1
     4     2     3    1
     5     2     5    1
     6     7     6    1
     7    11    12    2
     8    11    10    1
     9    10    13    1
    10     5     6    1
    11     6     8    1
    12    13    14    1
    13    36    34    1
    14    14    15    1
    15    14    16    1
    16    35    34    1
    17    34    33    1
    18    90    89    1
    19    33    30    1
    20    30    29    1
    21    30    31    1
    22    88    89    1
    23    88    87    1
    24    72    70   ar
    25    72    74   ar
    26    31    32    2
    27    70    69   ar
    28    67    66    2
    29   107   109   ar
    30   107   105   ar
    31    74    73   ar
    32    87    84    1
    33    84    83    1
    34    84    85    1
    35    65    66    1
    36    65    64    1
    37    65    68    1
    38   109   108   ar
    39    69    68    1
    40    69    71   ar
    41   105   104   ar
    42    66    75   am
    43    24    23    2
    44    73    71   ar
    45    86    85    2
    46    99   100    1
    47    85    91   am
    48   108   106   ar
    49    22    23    1
    50    22    21    1
    51    23    25   am
    52   139   138    2
    53   104   106   ar
    54   104   103    1
    55   100   103    1
    56   100   101    1
    57    75    76    1
    58   143   141    1
    59    28    27    2
    60    76    77    1
    61    76    79    1
    62   142   141    1
    63   141   140    1
    64    77    78    2
    65    91    92    1
    66    20    19    2
    67    27    26    1
    68   138   137    1
    69   102   101    2
    70    25    26    1
    71    21    19   am
    72    81    80    1
    73    19    18    1
    74    79    80    1
    75   140   137    1
    76    93    92    1
    77    93    94    2
    78    92    95    1
    79   137   136    1
    80    80    82    1
    81   131   130    2
    82    18    17    1
    83   121   120    2
    84    95    96    1
    85   125   127   ar
    86   125   123   ar
    87   135   133   ar
    88    96    97    1
    89    44    42   am
    90   132   133    1
    91   132   129    1
    92    97    98    1
    93   127   126   ar
    94   130   129    1
    95    56    54    1
    96   133   134   ar
    97   122   123    1
    98   122   119    1
    99   120   119    1
   100   120   128   am
   101   123   124   ar
   102   118   119    1
   103   129   128    1
   104    55    54    1
   105    42    43    2
   106    42    41    1
   107    54    51    1
   108   126   124   ar
   109    49    46    1
   110    40    39    2
   111    50    51    1
   112    50    47   am
   113    41    38    1
   114    51    52    1
   115    39    38    1
   116    39    45   am
   117    46    47    1
   118    46    45    1
   119    52    53    2
   120    47    48    2
   121   116   115    1
   122    63    61    1
   123    38    37    1
   124   115   117    1
   125   115   114    1
   126   110   111    1
   127    62    61    1
   128    61    58    1
   129   114   111    1
   130   111   112    1
   131    58    57    1
   132    58    59    1
   133   112   113    2
   134    59    60    2
