@<TRIPOS>MOLECULE
tmp/4ob6A01.pdb
 111 102 0 0 0
SMALL
GASTEIGER

@<TRIPOS>ATOM
      1  N        106.7170   78.9380    1.1620 N.3    13  PHE13      -0.1241
      2  CA       107.5600   80.0600    0.7430 C.3    13  PHE13       0.1605
      3  C        108.9950   79.6040    0.4800 C.2    13  PHE13       0.2264
      4  O        109.5860   79.9490   -0.5470 O.2    13  PHE13      -0.2867
      5  CB       107.5030   81.1590    1.8170 C.3    13  PHE13       0.0534
      6  CG       108.5090   82.2620    1.6430 C.ar   13  PHE13      -0.0203
      7  CD1      108.3000   83.2670    0.7120 C.ar   13  PHE13      -0.0042
      8  CD2      109.6440   82.3160    2.4440 C.ar   13  PHE13      -0.0042
      9  CE1      109.2220   84.3030    0.5670 C.ar   13  PHE13      -0.0003
     10  CE2      110.5720   83.3480    2.3010 C.ar   13  PHE13      -0.0003
     11  CZ       110.3570   84.3370    1.3600 C.ar   13  PHE13      -0.0000
     12  N        111.1610   79.5730   -3.0990 N.3    17  LEU17      -0.1245
     13  CA       112.5000   80.1480   -3.2560 C.3    17  LEU17       0.1561
     14  C        113.4690   79.1460   -3.8740 C.2    17  LEU17       0.2260
     15  O        114.2440   79.4950   -4.7700 O.2    17  LEU17      -0.2867
     16  CB       113.0660   80.6210   -1.9160 C.3    17  LEU17       0.0270
     17  CG       112.3950   81.8140   -1.2440 C.3    17  LEU17       0.0019
     18  CD1      113.2220   82.2710   -0.0490 C.3    17  LEU17       0.0001
     19  CD2      112.1800   82.9490   -2.2330 C.3    17  LEU17       0.0001
     20  N        115.7630   78.9370   -8.5330 N.3    21  GLY21      -0.1225
     21  CA       116.8170   79.5400   -7.7280 C.3    21  GLY21       0.1811
     22  C        117.2600   80.9650   -8.0090 C.2    21  GLY21       0.2280
     23  O        116.7490   81.9070   -7.4030 O.2    21  GLY21      -0.2866
     24  N        121.0900   83.3080   -8.7390 N.3    23  LYS23      -0.1245
     25  CA       122.4050   83.3230   -8.1030 C.3    23  LYS23       0.1561
     26  C        122.2480   83.6270   -6.6230 C.2    23  LYS23       0.2260
     27  O        121.3400   84.3690   -6.2470 O.2    23  LYS23      -0.2867
     28  CB       123.2840   84.4060   -8.7130 C.3    23  LYS23       0.0271
     29  CG       123.2130   84.5360  -10.2160 C.3    23  LYS23       0.0035
     30  CD       124.0340   85.7400  -10.6570 C.3    23  LYS23       0.0206
     31  CE       125.3350   85.8190   -9.8640 C.3    23  LYS23       0.1093
     32  NZ       126.1620   87.0180  -10.1830 N.3    23  LYS23      -0.1314
     33  N        122.5140   85.5030   -3.2940 N.3    25  LEU25      -0.1245
     34  CA       122.4740   86.9410   -3.0830 C.3    25  LEU25       0.1561
     35  C        123.8710   87.5350   -2.9310 C.2    25  LEU25       0.2260
     36  O        124.1700   88.6070   -3.4680 O.2    25  LEU25      -0.2867
     37  CB       121.6530   87.2230   -1.8220 C.3    25  LEU25       0.0270
     38  CG       121.1790   88.6500   -1.5750 C.3    25  LEU25       0.0019
     39  CD1      120.2220   89.0910   -2.6640 C.3    25  LEU25       0.0001
     40  CD2      120.5120   88.7170   -0.2140 C.3    25  LEU25       0.0001
     41  N        116.8970   92.8690   -5.7330 N.3    36  VAL36      -0.1231
     42  CA       116.2300   91.6080   -5.4000 C.3    36  VAL36       0.1692
     43  C        115.2150   91.8100   -4.2740 C.2    36  VAL36       0.2591
     44  O        114.0690   91.3630   -4.3710 O.2    36  VAL36      -0.2718
     45  CB       117.2370   90.5030   -5.0250 C.3    36  VAL36       0.0266
     46  CG1      116.5220   89.2710   -4.4780 C.3    36  VAL36       0.0020
     47  CG2      118.0730   90.1400   -6.2380 C.3    36  VAL36       0.0020
     48  N        115.6300   92.4990   -3.2140 N.am   37  LEU37      -0.1980
     49  CA       114.7240   92.7730   -2.0990 C.3    37  LEU37       0.1596
     50  C        113.5900   93.6900   -2.5300 C.2    37  LEU37       0.2287
     51  O        112.4350   93.4710   -2.1760 O.2    37  LEU37      -0.2864
     52  CB       115.4840   93.3950   -0.9200 C.3    37  LEU37       0.0297
     53  CG       114.6330   93.8320    0.2740 C.3    37  LEU37       0.0022
     54  CD1      113.9160   92.6460    0.9180 C.3    37  LEU37       0.0001
     55  CD2      115.4930   94.5870    1.3010 C.3    37  LEU37       0.0001
     56  N        111.1050   91.6770   -4.6090 N.3    40  ALA40      -0.1231
     57  CA       110.3660   90.6870   -3.8430 C.3    40  ALA40       0.1694
     58  C        109.3010   91.3430   -2.9750 C.2    40  ALA40       0.2591
     59  O        108.1760   90.8490   -2.8810 O.2    40  ALA40      -0.2718
     60  CB       111.3130   89.8610   -3.0000 C.3    40  ALA40       0.0304
     61  N        109.6560   92.4530   -2.3340 N.am   41  GLN41      -0.1979
     62  CA       108.7110   93.1350   -1.4600 C.3    41  GLN41       0.1601
     63  C        107.5590   93.7340   -2.2640 C.2    41  GLN41       0.2287
     64  O        106.4350   93.8430   -1.7800 O.2    41  GLN41      -0.2864
     65  CB       109.4270   94.1940   -0.6140 C.3    41  GLN41       0.0394
     66  CG       110.3540   93.5900    0.4420 C.3    41  GLN41       0.0908
     67  CD       109.5820   92.9100    1.5620 C.2    41  GLN41       0.2608
     68  OE1      109.1010   91.7830    1.4040 O.2    41  GLN41      -0.2717
     69  NE2      109.4580   93.5930    2.7010 N.am   41  GLN41      -0.0878
     70  N        121.6990   95.9560    2.0010 N.3    92  LEU92      -0.1245
     71  CA       120.3810   96.0830    1.3900 C.3    92  LEU92       0.1561
     72  C        119.4270   96.8660    2.2720 C.2    92  LEU92       0.2260
     73  O        119.7560   97.2190    3.4060 O.2    92  LEU92      -0.2867
     74  CB       119.7750   94.6960    1.1470 C.3    92  LEU92       0.0270
     75  CG       120.7530   93.5780    0.7940 C.3    92  LEU92       0.0019
     76  CD1      120.0430   92.2470    0.6820 C.3    92  LEU92       0.0001
     77  CD2      121.4440   93.9220   -0.4990 C.3    92  LEU92       0.0001
     78  N        116.1110   80.7710    4.1600 N.3   208  PHE208     -0.1241
     79  CA       116.0700   82.1660    3.7170 C.3   208  PHE208      0.1605
     80  C        117.3770   82.9150    3.9870 C.2   208  PHE208      0.2264
     81  O        118.1530   83.1380    3.0540 O.2   208  PHE208     -0.2867
     82  CB       114.8390   82.9010    4.2680 C.3   208  PHE208      0.0534
     83  CG       114.7860   84.3500    3.8900 C.ar  208  PHE208     -0.0203
     84  CD1      114.7030   84.7300    2.5590 C.ar  208  PHE208     -0.0042
     85  CD2      114.8120   85.3320    4.8690 C.ar  208  PHE208     -0.0042
     86  CE1      114.6590   86.0740    2.2070 C.ar  208  PHE208     -0.0003
     87  CE2      114.7650   86.6740    4.5290 C.ar  208  PHE208     -0.0003
     88  CZ       114.6880   87.0450    3.1950 C.ar  208  PHE208     -0.0000
     89  N        125.2860   84.5490    3.5390 N.3   213  MET213     -0.1245
     90  CA       124.8250   85.9340    3.4870 C.3   213  MET213      0.1570
     91  C        125.3400   86.7050    4.6880 C.2   213  MET213      0.2261
     92  O        125.8250   87.8310    4.5530 O.2   213  MET213     -0.2867
     93  CB       123.3000   85.9990    3.4680 C.3   213  MET213      0.0387
     94  CG       122.6900   85.5570    2.1690 C.3   213  MET213      0.0595
     95  SD       120.9370   85.2240    2.4070 S.3   213  MET213     -0.1393
     96  CE       120.5760   84.3110    0.9190 C.3   213  MET213      0.0692
     97  N        109.1300   90.2840    5.7980 N.3   292  LEU292     -0.1245
     98  CA       108.7930   89.6520    4.5180 C.3   292  LEU292      0.1561
     99  C        107.3240   89.8190    4.1180 C.2   292  LEU292      0.2260
    100  O        106.4180   89.2760    4.7520 O.2   292  LEU292     -0.2867
    101  CB       109.1840   88.1690    4.5350 C.3   292  LEU292      0.0270
    102  CG       110.6620   87.9010    4.7920 C.3   292  LEU292      0.0019
    103  CD1      110.9240   86.4040    4.8400 C.3   292  LEU292      0.0001
    104  CD2      111.4970   88.5520    3.7080 C.3   292  LEU292      0.0001
    105  N        105.6380   88.5520    1.5890 N.3   294  PRO294     -0.2116
    106  CA       104.9120   87.3100    1.2800 C.3   294  PRO294      0.1372
    107  C        104.4080   86.5460    2.5150 C.2   294  PRO294      0.2244
    108  O        103.5360   85.6810    2.3700 O.2   294  PRO294     -0.2868
    109  CB       105.9580   86.4680    0.5380 C.3   294  PRO294      0.0268
    110  CG       106.8860   87.4600   -0.0670 C.3   294  PRO294      0.0207
    111  CD       106.9560   88.5900    0.9190 C.3   294  PRO294      0.0892
@<TRIPOS>BOND
     1    30    29    1
     2    30    31    1
     3    29    28    1
     4    32    31    1
     5    24    25    1
     6    28    25    1
     7    20    21    1
     8    25    26    1
     9    22    21    1
    10    22    23    2
    11    26    27    2
    12    47    45    1
    13    41    42    1
    14    42    45    1
    15    42    43    1
    16    45    46    1
    17    15    14    2
    18    56    57    1
    19    44    43    2
    20    43    48   am
    21    14    13    1
    22    57    60    1
    23    57    58    1
    24    36    35    2
    25    33    34    1
    26    13    12    1
    27    13    16    1
    28    48    49    1
    29    34    35    1
    30    34    37    1
    31    58    59    2
    32    58    61   am
    33    39    38    1
    34    50    51    2
    35    50    49    1
    36    61    62    1
    37    63    64    2
    38    63    62    1
    39    19    17    1
    40    49    52    1
    41    16    17    1
    42    37    38    1
    43    38    40    1
    44    62    65    1
    45    17    18    1
    46    52    53    1
    47    65    66    1
    48     4     3    2
    49    77    75    1
    50   110   109    1
    51   110   111    1
    52    53    54    1
    53    53    55    1
    54    66    67    1
    55     3     2    1
    56   109   106    1
    57     9     7   ar
    58     9    11   ar
    59    76    75    1
    60     7     6   ar
    61     2     1    1
    62     2     5    1
    63    75    74    1
    64    96    95    1
    65   111   105    1
    66    74    71    1
    67   106   105    1
    68   106   107    1
    69    11    10   ar
    70    71    70    1
    71    71    72    1
    72    68    67    2
    73    67    69   am
    74     6     5    1
    75     6     8   ar
    76    94    95    1
    77    94    93    1
    78    86    84   ar
    79    86    88   ar
    80    72    73    2
    81    10     8   ar
    82   108   107    2
    83    84    83   ar
    84    81    80    2
    85    88    87   ar
    86    93    90    1
    87    90    89    1
    88    90    91    1
    89   104   102    1
    90    79    80    1
    91    79    78    1
    92    79    82    1
    93    83    82    1
    94    83    85   ar
    95    99    98    1
    96    99   100    2
    97    98   101    1
    98    98    97    1
    99    87    85   ar
   100   101   102    1
   101    92    91    2
   102   102   103    1
