@<TRIPOS>MOLECULE
tmp/4obaC00.pdb
 170 164 0 0 0
SMALL
GASTEIGER

@<TRIPOS>ATOM
      1  N         24.2230    5.6710   -0.8130 N.3     6  GLN6       -0.1245
      2  CA        24.8110    6.0010   -2.1140 C.3     6  GLN6        0.1566
      3  C         23.8420    5.7480   -3.2810 C.2     6  GLN6        0.2260
      4  O         24.0430    6.2620   -4.3830 O.2     6  GLN6       -0.2867
      5  CB        26.1180    5.2240   -2.3220 C.3     6  GLN6        0.0367
      6  CG        27.1670    5.4390   -1.2380 C.3     6  GLN6        0.0905
      7  CD        28.0730    6.6350   -1.4910 C.2     6  GLN6        0.2608
      8  OE1       27.6490    7.7890   -1.4130 O.2     6  GLN6       -0.2717
      9  NE2       29.3380    6.3610   -1.7780 N.am    6  GLN6       -0.0878
     10  N         27.9530   12.8150   -5.2310 N.3    36  LEU36      -0.1231
     11  CA        29.2240   12.8620   -4.4980 C.3    36  LEU36       0.1693
     12  C         30.4160   12.8220   -5.4390 C.2    36  LEU36       0.2592
     13  O         31.4080   13.5220   -5.2240 O.2    36  LEU36      -0.2718
     14  CB        29.3100   11.7300   -3.4640 C.3    36  LEU36       0.0284
     15  CG        28.5560   11.8780   -2.1350 C.3    36  LEU36       0.0019
     16  CD1       29.2750   12.8240   -1.1860 C.3    36  LEU36       0.0001
     17  CD2       27.1290   12.3380   -2.3270 C.3    36  LEU36       0.0001
     18  N         30.3120   12.0260   -6.4990 N.am   37  PHE37      -0.1976
     19  CA        31.3860   11.9690   -7.4780 C.3    37  PHE37       0.1639
     20  C         31.5440   13.2860   -8.2280 C.2    37  PHE37       0.2290
     21  O         32.6520   13.8160   -8.3180 O.2    37  PHE37      -0.2864
     22  CB        31.1920   10.8330   -8.4790 C.3    37  PHE37       0.0560
     23  CG        32.1720   10.8710   -9.6230 C.ar   37  PHE37      -0.0200
     24  CD1       33.4780   10.4140   -9.4550 C.ar   37  PHE37      -0.0042
     25  CD2       31.8020   11.4020  -10.8620 C.ar   37  PHE37      -0.0042
     26  CE1       34.3890   10.4590  -10.5030 C.ar   37  PHE37      -0.0003
     27  CE2       32.7160   11.4530  -11.9100 C.ar   37  PHE37      -0.0003
     28  CZ        34.0080   10.9760  -11.7340 C.ar   37  PHE37      -0.0000
     29  N         30.5020   16.2730   -7.4340 N.3    39  LEU39      -0.1231
     30  CA        30.9530   17.2920   -6.4810 C.3    39  LEU39       0.1693
     31  C         32.4320   17.1470   -6.1910 C.2    39  LEU39       0.2593
     32  O         33.1500   18.1380   -6.1610 O.2    39  LEU39      -0.2718
     33  CB        30.1650   17.2390   -5.1710 C.3    39  LEU39       0.0284
     34  CG        29.0110   18.2230   -4.9700 C.3    39  LEU39       0.0019
     35  CD1       28.2160   17.8570   -3.7280 C.3    39  LEU39       0.0001
     36  CD2       29.5380   19.6450   -4.8410 C.3    39  LEU39       0.0001
     37  N         32.8790   15.9100   -5.9810 N.am   40  GLY40      -0.1942
     38  CA        34.3120   15.6300   -5.8110 C.3    40  GLY40       0.2014
     39  C         35.1050   16.1370   -7.0000 C.2    40  GLY40       0.2638
     40  O         36.1490   16.7870   -6.8380 O.2    40  GLY40      -0.2714
     41  N         34.5980   15.8530   -8.2000 N.am   41  GLN41      -0.1977
     42  CA        35.2210   16.3270   -9.4310 C.3    41  GLN41       0.1601
     43  C         35.2640   17.8440   -9.5190 C.2    41  GLN41       0.2287
     44  O         36.2750   18.4080   -9.9340 O.2    41  GLN41      -0.2864
     45  CB        34.5240   15.7400  -10.6660 C.3    41  GLN41       0.0394
     46  CG        34.9310   14.3090  -10.9930 C.3    41  GLN41       0.0908
     47  CD        36.4430   14.1260  -11.1260 C.2    41  GLN41       0.2608
     48  OE1       37.1700   15.0430  -11.5150 O.2    41  GLN41      -0.2717
     49  NE2       36.9170   12.9390  -10.7970 N.am   41  GLN41      -0.0878
     50  N         35.2790   19.9360   -6.9530 N.3    43  ILE43      -0.1231
     51  CA        36.2720   20.3800   -5.9590 C.3    43  ILE43       0.1692
     52  C         37.7150   20.1450   -6.4440 C.2    43  ILE43       0.2591
     53  O         38.5760   21.0240   -6.2990 O.2    43  ILE43      -0.2718
     54  CB        36.0200   19.7230   -4.5750 C.3    43  ILE43       0.0266
     55  CG1       34.6650   20.1760   -4.0070 C.3    43  ILE43       0.0019
     56  CG2       37.1350   20.0560   -3.5990 C.3    43  ILE43       0.0020
     57  CD1       34.0930   19.2700   -2.9350 C.3    43  ILE43       0.0001
     58  N         37.9640   18.9760   -7.0420 N.am   44  MET44      -0.1979
     59  CA        39.2990   18.6130   -7.5420 C.3    44  MET44       0.1605
     60  C         39.7690   19.4420   -8.7420 C.2    44  MET44       0.2287
     61  O         40.9050   19.9310   -8.7660 O.2    44  MET44      -0.2864
     62  CB        39.3520   17.1220   -7.8930 C.3    44  MET44       0.0413
     63  CG        39.4580   16.1680   -6.7100 C.3    44  MET44       0.0598
     64  SD        40.8650   16.4560   -5.6130 S.3    44  MET44      -0.1393
     65  CE        42.2640   15.9270   -6.5920 C.3    44  MET44       0.0692
     66  N         40.8260   21.7530   -3.0410 N.3    49  TYR49      -0.1241
     67  CA        41.3470   20.7690   -2.0860 C.3    49  TYR49       0.1605
     68  C         42.8350   20.4380   -2.3220 C.2    49  TYR49       0.2264
     69  O         43.2010   19.9240   -3.3800 O.2    49  TYR49      -0.2867
     70  CB        40.4780   19.5060   -2.1330 C.3    49  TYR49       0.0534
     71  CG        40.9600   18.3490   -1.2870 C.ar   49  TYR49      -0.0201
     72  CD1       41.2320   17.1110   -1.8660 C.ar   49  TYR49      -0.0009
     73  CD2       41.1240   18.4820    0.0900 C.ar   49  TYR49      -0.0009
     74  CE1       41.6690   16.0410   -1.0990 C.ar   49  TYR49       0.0417
     75  CE2       41.5600   17.4200    0.8650 C.ar   49  TYR49       0.0417
     76  CZ        41.8270   16.2010    0.2670 C.ar   49  TYR49       0.1957
     77  OH        42.2600   15.1480    1.0340 O.3    49  TYR49      -0.2866
     78  N         43.3470   17.7240    5.1750 N.3    51  HIS51      -0.1241
     79  CA        42.1860   17.1120    4.5460 C.3    51  HIS51       0.1621
     80  C         41.0500   18.0970    4.4240 C.2    51  HIS51       0.2264
     81  O         39.8820   17.7510    4.5980 O.2    51  HIS51      -0.2867
     82  CB        41.7590   15.8700    5.3280 C.3    51  HIS51       0.0745
     83  CG        42.6910   14.6910    5.1540 C.ar   51  HIS51       0.0817
     84  ND1       42.5430   13.7950    4.1570 N.ar   51  HIS51      -0.2268
     85  CD2       43.8060   14.2880    5.8840 C.ar   51  HIS51       0.1154
     86  CE1       43.5120   12.8630    4.2480 C.ar   51  HIS51       0.1986
     87  NE2       44.2850   13.1660    5.3040 N.ar   51  HIS51      -0.2212
     88  N         38.8100   21.1780    2.4370 N.3    53  VAL53      -0.1245
     89  CA        38.3300   21.8940    1.2580 C.3    53  VAL53       0.1561
     90  C         38.1490   23.3550    1.6480 C.2    53  VAL53       0.2260
     91  O         37.5450   23.6480    2.6840 O.2    53  VAL53      -0.2867
     92  CB        36.9770   21.3340    0.7580 C.3    53  VAL53       0.0252
     93  CG1       36.4880   22.1030   -0.4670 C.3    53  VAL53       0.0019
     94  CG2       37.0960   19.8600    0.4170 C.3    53  VAL53       0.0019
     95  N         26.8750   25.3720    0.6390 N.3    64  PHE64      -0.1241
     96  CA        27.0230   24.6180    1.8780 C.3    64  PHE64       0.1605
     97  C         26.8860   25.5190    3.1070 C.2    64  PHE64       0.2264
     98  O         26.6040   25.0450    4.2130 O.2    64  PHE64      -0.2867
     99  CB        28.3810   23.9210    1.8900 C.3    64  PHE64       0.0534
    100  CG        28.4040   22.6060    1.1660 C.ar   64  PHE64      -0.0203
    101  CD1       27.4010   22.2610    0.2670 C.ar   64  PHE64      -0.0042
    102  CD2       29.4490   21.7150    1.3770 C.ar   64  PHE64      -0.0042
    103  CE1       27.4350   21.0420   -0.4010 C.ar   64  PHE64      -0.0003
    104  CE2       29.4890   20.4980    0.7170 C.ar   64  PHE64      -0.0003
    105  CZ        28.4820   20.1620   -0.1750 C.ar   64  PHE64      -0.0000
    106  N         35.5310   22.9170    5.0480 N.3    69  PHE69      -0.1241
    107  CA        35.1080   21.6640    5.6750 C.3    69  PHE69       0.1605
    108  C         36.1060   20.5400    5.4070 C.2    69  PHE69       0.2264
    109  O         36.9370   20.6390    4.4980 O.2    69  PHE69      -0.2867
    110  CB        33.6900   21.2640    5.2140 C.3    69  PHE69       0.0534
    111  CG        33.5860   20.9240    3.7540 C.ar   69  PHE69      -0.0203
    112  CD1       33.7330   19.6100    3.3210 C.ar   69  PHE69      -0.0042
    113  CD2       33.3100   21.9150    2.8090 C.ar   69  PHE69      -0.0042
    114  CE1       33.6230   19.2910    1.9760 C.ar   69  PHE69      -0.0003
    115  CE2       33.2050   21.6000    1.4640 C.ar   69  PHE69      -0.0003
    116  CZ        33.3600   20.2840    1.0500 C.ar   69  PHE69      -0.0000
    117  N         37.1410   16.6960    4.2610 N.3    71  VAL71      -0.1231
    118  CA        36.7120   15.6380    3.3470 C.3    71  VAL71       0.1692
    119  C         36.4450   14.3260    4.0870 C.2    71  VAL71       0.2591
    120  O         35.8670   13.3980    3.5180 O.2    71  VAL71      -0.2718
    121  CB        37.7210   15.3970    2.1980 C.3    71  VAL71       0.0266
    122  CG1       37.8230   16.6180    1.2970 C.3    71  VAL71       0.0020
    123  CG2       39.0940   15.0110    2.7320 C.3    71  VAL71       0.0020
    124  N         36.8620   14.2630    5.3530 N.am   72  LYS72      -0.1980
    125  CA        36.7010   13.0580    6.1770 C.3    72  LYS72       0.1596
    126  C         35.4160   13.0330    7.0120 C.2    72  LYS72       0.2287
    127  O         35.0340   11.9830    7.5370 O.2    72  LYS72      -0.2864
    128  CB        37.9270   12.8390    7.0720 C.3    72  LYS72       0.0298
    129  CG        39.1630   12.3840    6.3150 C.3    72  LYS72       0.0038
    130  CD        40.1150   11.5970    7.2030 C.3    72  LYS72       0.0206
    131  CE        40.9910   10.6870    6.3560 C.3    72  LYS72       0.1093
    132  NZ        41.8640    9.7970    7.1690 N.3    72  LYS72      -0.1314
    133  N         32.0750   12.7470    6.6770 N.3    74  HIS74      -0.1241
    134  CA        31.0950   12.3200    5.6770 C.3    74  HIS74       0.1621
    135  C         29.6820   12.6160    6.0780 C.2    74  HIS74       0.2264
    136  O         28.8810   13.0590    5.2500 O.2    74  HIS74      -0.2867
    137  CB        31.2620   10.8360    5.3750 C.3    74  HIS74       0.0745
    138  CG        32.5230   10.5120    4.6120 C.ar   74  HIS74       0.0817
    139  ND1       32.6150    9.4600    3.7810 N.ar   74  HIS74      -0.2268
    140  CD2       33.7600   11.1540    4.5720 C.ar   74  HIS74       0.1154
    141  CE1       33.8460    9.4220    3.2440 C.ar   74  HIS74       0.1986
    142  NE2       34.5440   10.4590    3.7270 N.ar   74  HIS74      -0.2212
    143  N         29.0080   16.2590    5.4450 N.3    77  ILE77      -0.1231
    144  CA        28.9090   16.4890    4.0000 C.3    77  ILE77       0.1692
    145  C         27.5300   16.0690    3.4820 C.2    77  ILE77       0.2592
    146  O         26.8750   16.8340    2.7790 O.2    77  ILE77      -0.2718
    147  CB        30.0440   15.7870    3.2150 C.3    77  ILE77       0.0266
    148  CG1       31.3880   16.4510    3.5330 C.3    77  ILE77       0.0019
    149  CG2       29.7970   15.8760    1.7130 C.3    77  ILE77       0.0020
    150  CD1       32.6050   15.6750    3.0760 C.3    77  ILE77       0.0001
    151  N         27.0820   14.8760    3.8680 N.am   78  TYR78      -0.1976
    152  CA        25.7390   14.4070    3.5100 C.3    78  TYR78       0.1639
    153  C         24.6460   15.3890    3.9260 C.2    78  TYR78       0.2290
    154  O         23.7110   15.6380    3.1640 O.2    78  TYR78      -0.2864
    155  CB        25.4610   13.0320    4.1160 C.3    78  TYR78       0.0560
    156  CG        25.8550   11.8920    3.2210 C.ar   78  TYR78      -0.0198
    157  CD1       27.0400   11.1870    3.4390 C.ar   78  TYR78      -0.0009
    158  CD2       25.0460   11.5120    2.1510 C.ar   78  TYR78      -0.0009
    159  CE1       27.4060   10.1350    2.6190 C.ar   78  TYR78       0.0417
    160  CE2       25.4080   10.4660    1.3190 C.ar   78  TYR78       0.0417
    161  CZ        26.5840    9.7800    1.5610 C.ar   78  TYR78       0.1957
    162  OH        26.9370    8.7350    0.7440 O.3    78  TYR78      -0.2866
    163  N         24.7510   18.5550    1.6430 N.3    81  ILE81      -0.1245
    164  CA        24.2430   18.2050    0.3110 C.3    81  ILE81       0.1561
    165  C         22.7200   18.0260    0.3220 C.2    81  ILE81       0.2260
    166  O         22.0290   18.5090   -0.5760 O.2    81  ILE81      -0.2867
    167  CB        24.9250   16.9280   -0.2450 C.3    81  ILE81       0.0252
    168  CG1       26.4220   17.1520   -0.4650 C.3    81  ILE81       0.0019
    169  CG2       24.2840   16.4730   -1.5550 C.3    81  ILE81       0.0019
    170  CD1       27.1690   15.8840   -0.8350 C.3    81  ILE81       0.0001
@<TRIPOS>BOND
     1    27    28   ar
     2    27    25   ar
     3    28    26   ar
     4    48    47    2
     5    47    46    1
     6    47    49   am
     7    46    45    1
     8    25    23   ar
     9    45    42    1
    10    26    24   ar
    11    44    43    2
    12    23    24   ar
    13    23    22    1
    14    43    42    1
    15    42    41    1
    16    61    60    2
    17    60    59    1
    18    22    19    1
    19    21    20    2
    20    20    19    1
    21    41    39   am
    22    62    59    1
    23    62    63    1
    24    59    58    1
    25    19    18    1
    26    29    30    1
    27    58    52   am
    28    39    40    2
    29    39    38    1
    30    50    51    1
    31    63    64    1
    32    65    64    1
    33    18    12   am
    34    30    31    1
    35    30    33    1
    36    52    53    2
    37    52    51    1
    38    31    32    2
    39    31    37   am
    40    37    38    1
    41    51    54    1
    42    12    13    2
    43    12    11    1
    44    10    11    1
    45    33    34    1
    46    34    36    1
    47    34    35    1
    48    54    55    1
    49    54    56    1
    50    11    14    1
    51     4     3    2
    52    55    57    1
    53    14    15    1
    54    69    68    2
    55     3     2    1
    56    66    67    1
    57    17    15    1
    58     5     2    1
    59     5     6    1
    60    68    67    1
    61    15    16    1
    62    70    67    1
    63    70    71    1
    64     2     1    1
    65    72    71   ar
    66    72    74   ar
    67     9     7   am
    68   169   167    1
    69     7     8    2
    70     7     6    1
    71    71    73   ar
    72    74    76   ar
    73   170   168    1
    74   166   165    2
    75    93    92    1
    76   168   167    1
    77   103   105   ar
    78   103   101   ar
    79   167   164    1
    80   105   104   ar
    81    73    75   ar
    82    76    75   ar
    83    76    77    1
    84   101   100   ar
    85   164   165    1
    86   164   163    1
    87    94    92    1
    88    95    96    1
    89   104   102   ar
    90   162   161    1
    91    92    89    1
    92   116   115   ar
    93   116   114   ar
    94   100   102   ar
    95   100    99    1
    96    89    90    1
    97    89    88    1
    98   122   121    1
    99   160   161   ar
   100   160   158   ar
   101   115   113   ar
   102   161   159   ar
   103    90    91    2
   104   149   147    1
   105    96    99    1
   106    96    97    1
   107   114   112   ar
   108   158   156   ar
   109   121   123    1
   110   121   118    1
   111   159   157   ar
   112   146   145    2
   113   113   111   ar
   114   150   148    1
   115    97    98    2
   116   154   153    2
   117   147   148    1
   118   147   144    1
   119   156   157   ar
   120   156   155    1
   121   141   142   ar
   122   141   139   ar
   123   112   111   ar
   124   118   119    1
   125   118   117    1
   126   145   151   am
   127   145   144    1
   128   152   151    1
   129   152   153    1
   130   152   155    1
   131   120   119    2
   132   142   140   ar
   133   111   110    1
   134   139   138   ar
   135   144   143    1
   136   119   124   am
   137    84    86   ar
   138    84    83   ar
   139    86    87   ar
   140    80    79    1
   141    80    81    2
   142   109   108    2
   143    79    78    1
   144    79    82    1
   145   140   138   ar
   146   138   137    1
   147   106   107    1
   148    83    82    1
   149    83    85   ar
   150   110   107    1
   151   136   135    2
   152    87    85   ar
   153   124   125    1
   154   137   134    1
   155   108   107    1
   156   134   135    1
   157   134   133    1
   158   125   126    1
   159   125   128    1
   160   129   128    1
   161   129   130    1
   162   131   132    1
   163   131   130    1
   164   126   127    2
