@<TRIPOS>MOLECULE
tmp/4obbA00.pdb
 101 93 0 0 0
SMALL
GASTEIGER

@<TRIPOS>ATOM
      1  N         23.7180   23.7940   19.2010 N.3    18  LEU18      -0.1245
      2  CA        22.8520   24.8720   18.7480 C.3    18  LEU18       0.1561
      3  C         23.6970   26.0140   18.1670 C.2    18  LEU18       0.2260
      4  O         23.3510   26.6060   17.1380 O.2    18  LEU18      -0.2867
      5  CB        21.9850   25.3510   19.9160 C.3    18  LEU18       0.0270
      6  CG        21.1550   24.1900   20.4870 C.3    18  LEU18       0.0019
      7  CD1       20.8510   24.3310   21.9730 C.3    18  LEU18       0.0001
      8  CD2       19.8750   24.0070   19.6870 C.3    18  LEU18       0.0001
      9  N         24.3680   28.9130   14.3310 N.3    22  GLN22      -0.1245
     10  CA        24.3680   30.3570   14.4600 C.3    22  GLN22       0.1566
     11  C         25.6280   30.9340   13.8460 C.2    22  GLN22       0.2260
     12  O         25.5830   31.9640   13.1840 O.2    22  GLN22      -0.2867
     13  CB        24.2790   30.7510   15.9270 C.3    22  GLN22       0.0367
     14  CG        23.0880   30.1420   16.6160 C.3    22  GLN22       0.0905
     15  CD        23.0210   30.5390   18.0660 C.2    22  GLN22       0.2608
     16  OE1       23.9250   30.2370   18.8320 O.2    22  GLN22      -0.2717
     17  NE2       21.9570   31.2440   18.4460 N.am   22  GLN22      -0.0878
     18  N         24.2440   32.3680   23.0930 N.3    78  THR78      -0.1203
     19  CA        23.3440   31.3280   22.6130 C.3    78  THR78       0.1994
     20  C         22.1640   31.0640   23.5510 C.2    78  THR78       0.2618
     21  O         21.0370   30.8970   23.0920 O.2    78  THR78      -0.2717
     22  CB        24.1190   30.0270   22.3310 C.3    78  THR78       0.1784
     23  OG1       25.0720   30.2810   21.2930 O.3    78  THR78      -0.2211
     24  CG2       23.1760   28.8930   21.9040 C.3    78  THR78       0.0376
     25  N         22.4100   31.0340   24.8600 N.am   79  LEU79      -0.1965
     26  CA        21.3660   30.6320   25.8060 C.3    79  LEU79       0.1728
     27  C         20.8540   31.7610   26.6850 C.2    79  LEU79       0.2616
     28  O         21.6380   32.5890   27.1440 O.2    79  LEU79      -0.2715
     29  CB        21.8990   29.5440   26.7330 C.3    79  LEU79       0.0311
     30  CG        22.3310   28.2300   26.0790 C.3    79  LEU79       0.0022
     31  CD1       22.8330   27.2960   27.1730 C.3    79  LEU79       0.0001
     32  CD2       21.1840   27.6010   25.3060 C.3    79  LEU79       0.0001
     33  N         19.5510   31.7560   26.9670 N.am   80  SER80      -0.1950
     34  CA        18.9960   32.6760   27.9580 C.3    80  SER80       0.1924
     35  C         19.6820   32.5060   29.3150 C.2    80  SER80       0.2314
     36  O         19.9030   33.4870   30.0240 O.2    80  SER80      -0.2863
     37  CB        17.4880   32.4880   28.1230 C.3    80  SER80       0.2116
     38  OG        16.7810   32.8590   26.9470 O.3    80  SER80      -0.2180
     39  N         18.8390   34.0620   19.9100 N.3   101  SER101     -0.1217
     40  CA        18.2160   32.7880   20.2570 C.3   101  SER101      0.1889
     41  C         17.8950   32.7570   21.7370 C.2   101  SER101      0.2288
     42  O         18.0110   31.7160   22.3740 O.2   101  SER101     -0.2866
     43  CB        19.1880   31.6480   19.9560 C.3   101  SER101      0.2089
     44  OG        20.4140   31.8560   20.6400 O.3   101  SER101     -0.2183
     45  N         15.0080   33.1290   24.1780 N.3   103  THR103     -0.1218
     46  CA        13.5580   33.1870   24.0620 C.3   103  THR103      0.1862
     47  C         12.8280   33.1620   25.3950 C.2   103  THR103      0.2287
     48  O         11.6000   33.1450   25.4250 O.2   103  THR103     -0.2866
     49  CB        13.0220   32.0590   23.1580 C.3   103  THR103      0.1770
     50  OG1       13.3170   30.7870   23.7500 O.3   103  THR103     -0.2211
     51  CG2       13.6740   32.1350   21.7820 C.3   103  THR103      0.0375
     52  N         18.0100   24.9800   33.5250 N.3   150  ASP150     -0.1239
     53  CA        18.1520   25.8920   32.3880 C.3   150  ASP150      0.1674
     54  C         17.0370   26.9410   32.3270 C.2   150  ASP150      0.2266
     55  O         15.8460   26.6060   32.3220 O.2   150  ASP150     -0.2867
     56  CB        18.2120   25.0850   31.0870 C.3   150  ASP150      0.1410
     57  CG        18.3030   25.9620   29.8640 C.2   150  ASP150      0.3668
     58  OD1       19.3970   26.5210   29.6070 O.co2 150  ASP150     -0.2456
     59  OD2       17.2800   26.0880   29.1580 O.co2 150  ASP150     -0.2456
     60  N         15.8700   29.0180   30.0400 N.3   152  PHE152     -0.1241
     61  CA        14.9430   28.9290   28.9180 C.3   152  PHE152      0.1605
     62  C         13.9470   27.7850   29.1030 C.2   152  PHE152      0.2264
     63  O         12.7530   27.9520   28.8830 O.2   152  PHE152     -0.2867
     64  CB        15.7130   28.7470   27.6040 C.3   152  PHE152      0.0534
     65  CG        14.9770   27.9250   26.5770 C.ar  152  PHE152     -0.0203
     66  CD1       13.9360   28.4700   25.8440 C.ar  152  PHE152     -0.0042
     67  CD2       15.3300   26.6010   26.3540 C.ar  152  PHE152     -0.0042
     68  CE1       13.2540   27.7070   24.9120 C.ar  152  PHE152     -0.0003
     69  CE2       14.6540   25.8360   25.4260 C.ar  152  PHE152     -0.0003
     70  CZ        13.6160   26.3860   24.7010 C.ar  152  PHE152     -0.0000
     71  N         17.6310   21.0830   26.0210 N.3   204  LEU204     -0.1245
     72  CA        18.5230   21.4400   24.9300 C.3   204  LEU204      0.1561
     73  C         18.6850   20.2350   24.0000 C.2   204  LEU204      0.2260
     74  O         17.8870   19.3030   24.0550 O.2   204  LEU204     -0.2867
     75  CB        19.8500   21.9800   25.4700 C.3   204  LEU204      0.0270
     76  CG        19.6640   23.1950   26.3970 C.3   204  LEU204      0.0019
     77  CD1       21.0060   23.7550   26.8620 C.3   204  LEU204      0.0001
     78  CD2       18.8280   24.2950   25.7380 C.3   204  LEU204      0.0001
     79  N         12.2010   24.7350   21.6910 N.3   228  ASN228     -0.1225
     80  CA        13.1990   25.4150   20.8640 C.3   228  ASN228      0.1785
     81  C         14.6110   24.8440   21.0210 C.2   228  ASN228      0.2597
     82  O         15.4270   24.9200   20.0960 O.2   228  ASN228     -0.2718
     83  CB        13.2030   26.9110   21.1930 C.3   228  ASN228      0.1169
     84  CG        13.7560   27.7610   20.0640 C.2   228  ASN228      0.2627
     85  OD1       13.4330   27.5510   18.8910 O.2   228  ASN228     -0.2716
     86  ND2       14.5760   28.7460   20.4180 N.am  228  ASN228     -0.0877
     87  N         14.9050   24.2690   22.1860 N.am  229  GLY229     -0.1957
     88  CA        16.2180   23.6870   22.4180 C.3   229  GLY229      0.1869
     89  C         16.4910   22.4040   21.6480 C.2   229  GLY229      0.2309
     90  O         17.6420   21.9570   21.5570 O.2   229  GLY229     -0.2863
     91  N         17.8650   28.7100   13.5870 N.3   279  PHE279     -0.1241
     92  CA        18.9590   29.3870   14.2910 C.3   279  PHE279      0.1605
     93  C         19.9230   30.1150   13.3630 C.2   279  PHE279      0.2264
     94  O         20.4540   31.1620   13.7300 O.2   279  PHE279     -0.2867
     95  CB        19.6920   28.4380   15.2460 C.3   279  PHE279      0.0534
     96  CG        18.8490   28.0070   16.4030 C.ar  279  PHE279     -0.0203
     97  CD1       18.1640   28.9510   17.1610 C.ar  279  PHE279     -0.0042
     98  CD2       18.7120   26.6570   16.7290 C.ar  279  PHE279     -0.0042
     99  CE1       17.3670   28.5580   18.2230 C.ar  279  PHE279     -0.0003
    100  CE2       17.9060   26.2580   17.7870 C.ar  279  PHE279     -0.0003
    101  CZ        17.2320   27.2130   18.5340 C.ar  279  PHE279     -0.0000
@<TRIPOS>BOND
     1    12    11    2
     2    93    94    2
     3    93    92    1
     4    91    92    1
     5    11    10    1
     6    92    95    1
     7     9    10    1
     8    10    13    1
     9    95    96    1
    10    13    14    1
    11    96    98   ar
    12    96    97   ar
    13    14    15    1
    14    98   100   ar
    15     4     3    2
    16    97    99   ar
    17   100   101   ar
    18    15    17   am
    19    15    16    2
    20     3     2    1
    21    99   101   ar
    22     2     1    1
    23     2     5    1
    24    85    84    2
    25     8     6    1
    26    39    40    1
    27     5     6    1
    28    43    40    1
    29    43    44    1
    30    84    86   am
    31    84    83    1
    32    82    81    2
    33    40    41    1
    34     6     7    1
    35    80    81    1
    36    80    83    1
    37    80    79    1
    38    81    87   am
    39    23    22    1
    40    90    89    2
    41    89    88    1
    42    41    42    2
    43    51    49    1
    44    24    22    1
    45    87    88    1
    46    22    19    1
    47    19    18    1
    48    19    20    1
    49    21    20    2
    50    49    50    1
    51    49    46    1
    52    20    25   am
    53    73    74    2
    54    73    72    1
    55    46    45    1
    56    46    47    1
    57    70    68   ar
    58    70    69   ar
    59    25    26    1
    60    68    66   ar
    61    72    75    1
    62    72    71    1
    63    32    30    1
    64    47    48    2
    65    69    67   ar
    66    75    76    1
    67    78    76    1
    68    26    27    1
    69    26    29    1
    70    66    65   ar
    71    30    29    1
    72    30    31    1
    73    67    65   ar
    74    76    77    1
    75    65    64    1
    76    27    33   am
    77    27    28    2
    78    38    37    1
    79    33    34    1
    80    64    61    1
    81    34    37    1
    82    34    35    1
    83    63    62    2
    84    61    62    1
    85    61    60    1
    86    59    57   ar
    87    35    36    2
    88    58    57   ar
    89    57    56    1
    90    56    53    1
    91    55    54    2
    92    54    53    1
    93    53    52    1
