@<TRIPOS>MOLECULE
tmp/4obcA00.pdb
 91 87 0 0 0
SMALL
GASTEIGER

@<TRIPOS>ATOM
      1  N         42.7950  -30.2300   23.0240 N.3    19  GLU19      -0.1245
      2  CA        43.8820  -30.1050   24.0100 C.3    19  GLU19       0.1567
      3  C         45.0790  -29.2420   23.5800 C.2    19  GLU19       0.2260
      4  O         45.6510  -29.4330   22.4950 O.2    19  GLU19      -0.2867
      5  CB        44.3580  -31.5070   24.4420 C.3    19  GLU19       0.0388
      6  CG        44.5090  -32.5340   23.2920 C.3    19  GLU19       0.1160
      7  CD        44.8380  -33.9390   23.8020 C.2    19  GLU19       0.3649
      8  OE1       44.5190  -34.2370   24.9790 O.co2  19  GLU19      -0.2457
      9  OE2       45.4130  -34.7460   23.0320 O.co2  19  GLU19      -0.2457
     10  N         48.7600  -32.2170   16.3150 N.3    40  CYS40      -0.1235
     11  CA        47.5350  -33.0020   16.2710 C.3    40  CYS40       0.1677
     12  C         46.5060  -32.3340   15.3740 C.2    40  CYS40       0.2270
     13  O         46.2420  -31.1230   15.5180 O.2    40  CYS40      -0.2867
     14  CB        46.9350  -33.0990   17.6660 C.3    40  CYS40       0.0956
     15  SG        45.6560  -34.3680   17.8370 S.3    40  CYS40      -0.0801
     16  N         41.2510  -36.9070   15.6910 N.3   143  ASN143     -0.1225
     17  CA        42.4840  -36.3510   16.2710 C.3   143  ASN143      0.1785
     18  C         43.6410  -37.3150   16.1270 C.2   143  ASN143      0.2597
     19  O         43.6840  -38.3470   16.7880 O.2   143  ASN143     -0.2718
     20  CB        42.3040  -35.9670   17.7510 C.3   143  ASN143      0.1169
     21  CG        41.2150  -34.8930   17.9680 C.2   143  ASN143      0.2627
     22  OD1       40.4470  -34.9670   18.9250 O.2   143  ASN143     -0.2716
     23  ND2       41.1510  -33.9090   17.0760 N.am  143  ASN143     -0.0877
     24  N         44.5650  -36.9880   15.2330 N.am  144  GLU144     -0.1965
     25  CA        45.7370  -37.8020   15.0040 C.3   144  GLU144      0.1733
     26  C         46.9800  -36.9250   14.9590 C.2   144  GLU144      0.2616
     27  O         46.8940  -35.7220   14.6490 O.2   144  GLU144     -0.2715
     28  CB        45.6010  -38.5680   13.7130 C.3   144  GLU144      0.0429
     29  CG        44.5030  -39.5940   13.7350 C.3   144  GLU144      0.1163
     30  CD        44.3390  -40.2620   12.3980 C.2   144  GLU144      0.3649
     31  OE1       43.9710  -39.5670   11.4140 O.co2 144  GLU144     -0.2457
     32  OE2       44.5970  -41.4830   12.3310 O.co2 144  GLU144     -0.2457
     33  N         48.1170  -37.5400   15.2950 N.am  145  VAL145     -0.1977
     34  CA        49.3670  -36.8400   15.5080 C.3   145  VAL145      0.1596
     35  C         50.3390  -37.1840   14.4130 C.2   145  VAL145      0.2287
     36  O         50.4740  -38.3490   14.0340 O.2   145  VAL145     -0.2864
     37  CB        49.9920  -37.1840   16.9100 C.3   145  VAL145      0.0276
     38  CG1       51.4630  -36.6780   17.0290 C.3   145  VAL145      0.0022
     39  CG2       49.1040  -36.6590   18.0380 C.3   145  VAL145      0.0022
     40  N         54.3840  -39.5900   17.5470 N.3   395  ARG395     -0.1245
     41  CA        53.3670  -40.0540   18.4750 C.3   395  ARG395      0.1563
     42  C         53.9980  -40.4130   19.8020 C.2   395  ARG395      0.2260
     43  O         53.3340  -40.4140   20.8290 O.2   395  ARG395     -0.2867
     44  CB        52.5800  -41.2200   17.8940 C.3   395  ARG395      0.0307
     45  CG        51.6280  -40.7200   16.8340 C.3   395  ARG395      0.0489
     46  CD        50.9200  -41.7650   16.0430 C.3   395  ARG395      0.2205
     47  NE        50.2880  -41.0590   14.9310 N.pl3 395  ARG395     -0.0865
     48  CZ        49.4430  -41.5980   14.0590 C.cat 395  ARG395      0.5346
     49  NH1       49.0920  -42.8720   14.1620 N.pl3 395  ARG395      0.1354
     50  NH2       48.9680  -40.8550   13.0800 N.pl3 395  ARG395      0.1354
     51  N         53.7280  -37.1980   21.9780 N.3   398  TRP398     -0.1241
     52  CA        52.4820  -36.4930   22.2130 C.3   398  TRP398      0.1605
     53  C         52.0960  -36.6950   23.6740 C.2   398  TRP398      0.2264
     54  O         51.7990  -37.8010   24.0860 O.2   398  TRP398     -0.2867
     55  CB        51.3780  -36.9310   21.2240 C.3   398  TRP398      0.0550
     56  CG        50.1890  -36.0990   21.3720 C.ar  398  TRP398      0.0003
     57  CD1       49.0330  -36.4310   22.0440 C.ar  398  TRP398      0.0946
     58  CD2       50.0200  -34.7470   20.9140 C.ar  398  TRP398      0.0152
     59  NE1       48.1480  -35.3780   22.0020 N.ar  398  TRP398     -0.2442
     60  CE2       48.7240  -34.3290   21.3210 C.ar  398  TRP398      0.0810
     61  CE3       50.8230  -33.8560   20.1750 C.ar  398  TRP398      0.0012
     62  CZ2       48.2160  -33.0460   21.0290 C.ar  398  TRP398      0.0191
     63  CZ3       50.3160  -32.5940   19.8740 C.ar  398  TRP398      0.0001
     64  CH2       49.0180  -32.1990   20.3070 C.ar  398  TRP398      0.0015
     65  N         45.5800  -35.2140   29.1790 N.3   402  ARG402     -0.1231
     66  CA        44.6800  -36.3500   28.9520 C.3   402  ARG402      0.1694
     67  C         45.3450  -37.5780   28.3080 C.2   402  ARG402      0.2592
     68  O         44.8260  -38.6850   28.4330 O.2   402  ARG402     -0.2718
     69  CB        43.4250  -35.9140   28.1470 C.3   402  ARG402      0.0321
     70  CG        42.3520  -35.0990   28.8200 C.3   402  ARG402      0.0489
     71  CD        41.0320  -35.3210   28.1530 C.3   402  ARG402      0.2205
     72  NE        40.9740  -34.8040   26.8090 N.pl3 402  ARG402     -0.0865
     73  CZ        40.6340  -33.5740   26.4180 C.cat 402  ARG402      0.5346
     74  NH1       40.3220  -32.6320   27.3070 N.pl3 402  ARG402      0.1354
     75  NH2       40.5720  -33.2960   25.1090 N.pl3 402  ARG402      0.1354
     76  N         46.4770  -37.3900   27.6260 N.am  403  HIS403     -0.1976
     77  CA        47.1380  -38.4950   26.8920 C.3   403  HIS403      0.1656
     78  C         48.5990  -38.6700   27.2870 C.2   403  HIS403      0.2291
     79  O         49.3560  -37.6940   27.3710 O.2   403  HIS403     -0.2864
     80  CB        47.0480  -38.2990   25.3750 C.3   403  HIS403      0.0771
     81  CG        47.6530  -39.4180   24.5720 C.ar  403  HIS403      0.0820
     82  ND1       47.0010  -40.6170   24.3430 N.ar  403  HIS403     -0.2267
     83  CD2       48.8430  -39.5120   23.9250 C.ar  403  HIS403      0.1154
     84  CE1       47.7620  -41.4000   23.5970 C.ar  403  HIS403      0.1986
     85  NE2       48.8850  -40.7530   23.3310 N.ar  403  HIS403     -0.2212
     86  N         51.7670  -45.9190   23.1560 N.3   408  SER408     -0.1217
     87  CA        52.2740  -45.7410   21.8200 C.3   408  SER408      0.1889
     88  C         53.7020  -46.3160   21.7000 C.2   408  SER408      0.2288
     89  O         53.9720  -47.1000   20.7770 O.2   408  SER408     -0.2866
     90  CB        52.1880  -44.2590   21.4430 C.3   408  SER408      0.2089
     91  OG        53.1430  -43.9130   20.4580 O.3   408  SER408     -0.2183
@<TRIPOS>BOND
     1    31    30   ar
     2    32    30   ar
     3    30    29    1
     4    50    48    1
     5    28    29    1
     6    28    25    1
     7    36    35    2
     8    48    49    1
     9    48    47    2
    10    35    34    1
    11    27    26    2
    12    47    46    1
    13    26    25    1
    14    26    33   am
    15    25    24    1
    16    24    18   am
    17    33    34    1
    18    12    13    2
    19    12    11    1
    20    34    37    1
    21    16    17    1
    22    46    45    1
    23    18    17    1
    24    18    19    2
    25    17    20    1
    26    11    10    1
    27    11    14    1
    28    45    44    1
    29    37    38    1
    30    37    39    1
    31    23    21   am
    32    40    41    1
    33    14    15    1
    34    20    21    1
    35    44    41    1
    36    21    22    2
    37    41    42    1
    38    42    43    2
    39    63    61   ar
    40    63    64   ar
    41    61    58   ar
    42    64    62   ar
    43    91    90    1
    44    89    88    2
    45    58    60   ar
    46    58    56   ar
    47    62    60   ar
    48    55    56    1
    49    55    52    1
    50    60    59   ar
    51    56    57   ar
    52    90    87    1
    53    88    87    1
    54    87    86    1
    55    51    52    1
    56    59    57   ar
    57    52    53    1
    58     4     3    2
    59     1     2    1
    60     9     7   ar
    61     6     7    1
    62     6     5    1
    63    85    84   ar
    64    85    83   ar
    65     3     2    1
    66    84    82   ar
    67    53    54    2
    68     7     8   ar
    69    83    81   ar
    70     2     5    1
    71    82    81   ar
    72    81    80    1
    73    75    73    1
    74    80    77    1
    75    73    72    2
    76    73    74    1
    77    72    71    1
    78    77    78    1
    79    77    76    1
    80    78    79    2
    81    76    67   am
    82    69    70    1
    83    69    66    1
    84    71    70    1
    85    67    68    2
    86    67    66    1
    87    66    65    1
