@<TRIPOS>MOLECULE
tmp/4obdD00.pdb
 131 124 0 0 0
SMALL
GASTEIGER

@<TRIPOS>ATOM
      1  N        -15.6120  -20.4560  -25.8280 N.3     8  ARG8       -0.1245
      2  CA       -14.7740  -19.4140  -26.4300 C.3     8  ARG8        0.1563
      3  C        -13.6860  -19.9640  -27.3310 C.2     8  ARG8        0.2260
      4  O        -12.9380  -20.8760  -26.9200 O.2     8  ARG8       -0.2867
      5  CB       -14.1060  -18.5960  -25.3270 C.3     8  ARG8        0.0307
      6  CG       -15.0470  -17.7310  -24.5300 C.3     8  ARG8        0.0489
      7  CD       -14.2420  -16.8890  -23.5510 C.3     8  ARG8        0.2205
      8  NE       -15.0990  -15.9610  -22.8300 N.pl3   8  ARG8       -0.0865
      9  CZ       -14.6960  -14.7950  -22.3200 C.cat   8  ARG8        0.5346
     10  NH1      -13.4290  -14.4130  -22.4330 N.pl3   8  ARG8        0.1354
     11  NH2      -15.5460  -14.0360  -21.6360 N.pl3   8  ARG8        0.1354
     12  N         -8.1820  -14.8340  -28.1950 N.3    23  LEU23      -0.1245
     13  CA        -9.5740  -15.0660  -28.5590 C.3    23  LEU23       0.1561
     14  C         -9.7420  -14.7330  -30.0390 C.2    23  LEU23       0.2260
     15  O         -9.4550  -13.6210  -30.4920 O.2    23  LEU23      -0.2867
     16  CB       -10.4770  -14.1710  -27.7060 C.3    23  LEU23       0.0270
     17  CG       -11.9940  -14.2910  -27.8470 C.3    23  LEU23       0.0019
     18  CD1      -12.5300  -15.6850  -27.5630 C.3    23  LEU23       0.0001
     19  CD2      -12.6830  -13.2700  -26.9560 C.3    23  LEU23       0.0001
     20  N        -11.6460  -13.3440  -32.8220 N.3    25  ASN25      -0.1240
     21  CA       -12.7360  -12.4350  -32.6000 C.3    25  ASN25       0.1653
     22  C        -13.2040  -11.7660  -33.8960 C.2    25  ASN25       0.2266
     23  O        -12.6220  -10.7670  -34.3290 O.2    25  ASN25      -0.2867
     24  CB       -12.3140  -11.3830  -31.5690 C.3    25  ASN25       0.1155
     25  CG       -13.4400  -10.4800  -31.1600 C.2    25  ASN25       0.2627
     26  OD1      -14.5310  -10.4990  -31.7350 O.2    25  ASN25      -0.2716
     27  ND2      -13.1510   -9.6100  -30.1940 N.am   25  ASN25      -0.0877
     28  N        -15.7140  -10.0630  -34.2360 N.3    27  GLY27      -0.1210
     29  CA       -16.2220   -8.7660  -33.8450 C.3    27  GLY27       0.1956
     30  C        -15.2040   -7.6750  -33.6030 C.2    27  GLY27       0.2612
     31  O        -15.5650   -6.5880  -33.1940 O.2    27  GLY27      -0.2717
     32  N        -13.9340   -7.9710  -33.8330 N.am   28  ALA28      -0.1965
     33  CA       -12.8480   -7.0150  -33.7110 C.3    28  ALA28       0.1728
     34  C        -12.2740   -6.6760  -35.0750 C.2    28  ALA28       0.2616
     35  O        -11.8860   -7.5700  -35.8140 O.2    28  ALA28      -0.2715
     36  CB       -11.7520   -7.6000  -32.8490 C.3    28  ALA28       0.0334
     37  N        -12.1810   -5.3910  -35.3910 N.am   29  ASP29      -0.1957
     38  CA       -11.5130   -4.9890  -36.6420 C.3    29  ASP29       0.1840
     39  C        -10.0400   -5.3280  -36.6220 C.2    29  ASP29       0.2622
     40  O         -9.4550   -5.7350  -37.6420 O.2    29  ASP29      -0.2715
     41  CB       -11.6970   -3.4820  -36.8590 C.3    29  ASP29       0.1450
     42  CG       -13.1300   -3.0980  -37.1360 C.2    29  ASP29       0.3671
     43  OD1      -13.9330   -3.9470  -37.5810 O.co2  29  ASP29      -0.2456
     44  OD2      -13.4400   -1.9050  -36.9610 O.co2  29  ASP29      -0.2456
     45  N         -9.4390   -5.1760  -35.4440 N.am   30  ASN30      -0.1972
     46  CA        -7.9960   -5.2120  -35.2840 C.3    30  ASN30       0.1688
     47  C         -7.5880   -6.1940  -34.1860 C.2    30  ASN30       0.2292
     48  O         -8.3840   -6.5120  -33.3100 O.2    30  ASN30      -0.2864
     49  CB        -7.4830   -3.8180  -34.8830 C.3    30  ASN30       0.1181
     50  CG        -8.0100   -2.7010  -35.7680 C.2    30  ASN30       0.2629
     51  OD1       -8.6290   -1.7360  -35.2920 O.2    30  ASN30      -0.2716
     52  ND2       -7.7490   -2.8150  -37.0670 N.am   30  ASN30      -0.0877
     53  N         -5.4870   -6.9620  -30.8330 N.3    32  VAL32      -0.1245
     54  CA        -5.0890   -6.1950  -29.6630 C.3    32  VAL32       0.1561
     55  C         -4.5810   -7.1260  -28.5860 C.2    32  VAL32       0.2260
     56  O         -5.2620   -8.0850  -28.2500 O.2    32  VAL32      -0.2867
     57  CB        -6.2730   -5.4180  -29.0420 C.3    32  VAL32       0.0252
     58  CG1       -5.7330   -4.4780  -27.9750 C.3    32  VAL32       0.0019
     59  CG2       -7.0280   -4.6580  -30.1100 C.3    32  VAL32       0.0019
     60  N         -6.8280    5.0270  -30.6480 N.3    46  MET46      -0.1230
     61  CA        -7.9480    4.6560  -29.7490 C.3    46  MET46       0.1702
     62  C         -8.7360    3.5110  -30.3650 C.2    46  MET46       0.2592
     63  O         -8.9830    3.5150  -31.5750 O.2    46  MET46      -0.2718
     64  CB        -8.9340    5.8060  -29.5300 C.3    46  MET46       0.0401
     65  CG        -8.4360    7.0010  -28.7390 C.3    46  MET46       0.0596
     66  SD        -7.7830    6.6980  -27.0860 S.3    46  MET46      -0.1393
     67  CE        -9.2010    6.4890  -26.0220 C.3    46  MET46       0.0692
     68  N         -9.1080    2.5320  -29.5480 N.am   47  ILE47      -0.1966
     69  CA       -10.0710    1.5260  -29.9850 C.3    47  ILE47       0.1727
     70  C        -11.2920    1.4690  -29.0860 C.2    47  ILE47       0.2617
     71  O        -11.2050    1.6380  -27.8660 O.2    47  ILE47      -0.2715
     72  CB        -9.4610    0.1270  -30.1270 C.3    47  ILE47       0.0290
     73  CG1       -8.8590   -0.3630  -28.8120 C.3    47  ILE47       0.0022
     74  CG2       -8.4390    0.1450  -31.2440 C.3    47  ILE47       0.0023
     75  CD1       -8.2340   -1.7320  -28.9110 C.3    47  ILE47       0.0001
     76  N        -12.4380    1.3320  -29.7300 N.am   48  GLY48      -0.1940
     77  CA       -13.7010    1.3210  -29.0250 C.3    48  GLY48       0.2014
     78  C        -14.4130   -0.0090  -29.0720 C.2    48  GLY48       0.2639
     79  O        -14.3780   -0.7410  -30.0680 O.2    48  GLY48      -0.2714
     80  N        -15.2310   -0.2210  -28.0600 N.am   49  GLY49      -0.1939
     81  CA       -16.2970   -1.1880  -28.1860 C.3    49  GLY49       0.2014
     82  C        -17.3600   -0.9380  -27.1490 C.2    49  GLY49       0.2638
     83  O        -17.6990    0.1900  -26.8690 O.2    49  GLY49      -0.2714
     84  N        -17.7640   -2.0070  -26.4850 N.am   50  ILE50      -0.1977
     85  CA       -18.8260   -1.9650  -25.4970 C.3    50  ILE50       0.1596
     86  C        -18.2420   -1.2530  -24.2720 C.2    50  ILE50       0.2287
     87  O        -17.1230   -1.5410  -23.8610 O.2    50  ILE50      -0.2864
     88  CB       -19.3040   -3.4080  -25.1970 C.3    50  ILE50       0.0276
     89  CG1      -20.4250   -3.8020  -26.1770 C.3    50  ILE50       0.0022
     90  CG2      -19.7900   -3.5470  -23.7640 C.3    50  ILE50       0.0022
     91  CD1      -20.5690   -5.2900  -26.3940 C.3    50  ILE50       0.0001
     92  N        -13.9360    3.5900  -25.2650 N.3    53  PHE53      -0.1241
     93  CA       -12.6820    3.3930  -25.9860 C.3    53  PHE53       0.1605
     94  C        -11.5230    3.2040  -25.0280 C.2    53  PHE53       0.2264
     95  O        -11.5660    3.6550  -23.8770 O.2    53  PHE53      -0.2867
     96  CB       -12.3770    4.5350  -26.9560 C.3    53  PHE53       0.0534
     97  CG       -13.2570    4.5790  -28.1740 C.ar   53  PHE53      -0.0203
     98  CD1      -14.6410    4.5220  -28.0650 C.ar   53  PHE53      -0.0042
     99  CD2      -12.7030    4.6880  -29.4270 C.ar   53  PHE53      -0.0042
    100  CE1      -15.4490    4.5680  -29.1800 C.ar   53  PHE53      -0.0003
    101  CE2      -13.5100    4.7700  -30.5480 C.ar   53  PHE53      -0.0003
    102  CZ       -14.8850    4.6950  -30.4290 C.ar   53  PHE53      -0.0000
    103  N         -6.5540   -4.1280  -22.8810 N.3    80  THR80      -0.1204
    104  CA        -7.6030   -5.0140  -23.2920 C.3    80  THR80       0.1979
    105  C         -7.6730   -6.1230  -22.2600 C.2    80  THR80       0.2460
    106  O         -6.6450   -6.6460  -21.8460 O.2    80  THR80      -0.2732
    107  CB        -7.3130   -5.6610  -24.6730 C.3    80  THR80       0.1783
    108  OG1       -8.3770   -6.5590  -24.9760 O.3    80  THR80      -0.2211
    109  CG2       -6.0360   -6.4550  -24.6710 C.3    80  THR80       0.0376
    110  N         -8.8960   -6.4900  -21.8400 N.am   81  PRO81      -0.2717
    111  CA        -9.1530   -7.6100  -20.9450 C.3    81  PRO81       0.1535
    112  C         -8.4900   -8.9150  -21.3550 C.2    81  PRO81       0.2598
    113  O         -8.0180   -9.6490  -20.5050 O.2    81  PRO81      -0.2715
    114  CB       -10.6610   -7.7860  -21.0490 C.3    81  PRO81       0.0310
    115  CG       -11.1520   -6.4350  -21.3440 C.3    81  PRO81       0.0237
    116  CD       -10.1360   -5.8480  -22.2820 C.3    81  PRO81       0.0939
    117  N         -8.5060   -9.2600  -22.6410 N.am   82  VAL82      -0.1978
    118  CA        -7.8880  -10.5110  -23.0660 C.3    82  VAL82       0.1596
    119  C         -7.2120  -10.2710  -24.4040 C.2    82  VAL82       0.2287
    120  O         -7.5470   -9.3060  -25.0850 O.2    82  VAL82      -0.2864
    121  CB        -8.9280  -11.6350  -23.2430 C.3    82  VAL82       0.0276
    122  CG1       -9.7260  -11.8190  -21.9640 C.3    82  VAL82       0.0022
    123  CG2       -9.8690  -11.3390  -24.3960 C.3    82  VAL82       0.0022
    124  N         -6.8060  -10.4840  -28.1840 N.3    84  ILE84      -0.1245
    125  CA        -7.8170  -10.5870  -29.2160 C.3    84  ILE84       0.1561
    126  C         -7.2000  -10.6480  -30.6270 C.2    84  ILE84       0.2260
    127  O         -6.4310   -9.7710  -31.0360 O.2    84  ILE84      -0.2867
    128  CB        -8.7850   -9.3800  -29.1410 C.3    84  ILE84       0.0252
    129  CG1       -9.6550   -9.4580  -27.8950 C.3    84  ILE84       0.0019
    130  CG2       -9.6530   -9.2460  -30.3850 C.3    84  ILE84       0.0019
    131  CD1      -10.3490   -8.1380  -27.6310 C.3    84  ILE84       0.0001
@<TRIPOS>BOND
     1    40    39    2
     2    43    42   ar
     3    42    44   ar
     4    42    41    1
     5    52    50   am
     6    41    38    1
     7    38    39    1
     8    38    37    1
     9    39    45   am
    10    35    34    2
    11    50    51    2
    12    50    49    1
    13    45    46    1
    14    37    34   am
    15    46    49    1
    16    46    47    1
    17    34    33    1
    18    23    22    2
    19    28    29    1
    20    47    48    2
    21    22    21    1
    22    29    30    1
    23    32    33    1
    24    32    30   am
    25    33    36    1
    26    30    31    2
    27    20    21    1
    28    21    24    1
    29    26    25    2
    30    63    62    2
    31    24    25    1
    32    74    72    1
    33    25    27   am
    34   127   126    2
    35    53    54    1
    36    60    61    1
    37   126   125    1
    38   101   102   ar
    39   101    99   ar
    40    15    14    2
    41   102   100   ar
    42   130   128    1
    43    62    61    1
    44    62    68   am
    45    72    69    1
    46    72    73    1
    47    59    57    1
    48    79    78    2
    49    14    13    1
    50    69    68    1
    51    69    70    1
    52    61    64    1
    53    76    70   am
    54    76    77    1
    55    54    57    1
    56    54    55    1
    57    64    65    1
    58    99    97   ar
    59   125   128    1
    60   125   124    1
    61   100    98   ar
    62   128   129    1
    63    70    71    2
    64    78    77    1
    65    78    80   am
    66    57    58    1
    67    75    73    1
    68    65    66    1
    69    55    56    2
    70    13    12    1
    71    13    16    1
    72    81    80    1
    73    81    82    1
    74    97    98   ar
    75    97    96    1
    76   129   131    1
    77    17    16    1
    78    17    18    1
    79    17    19    1
    80     3     4    2
    81     3     2    1
    82    82    83    2
    83    82    84   am
    84    66    67    1
    85    96    93    1
    86    84    85    1
    87     2     1    1
    88     2     5    1
    89    91    89    1
    90    89    88    1
    91    93    92    1
    92    93    94    1
    93    85    88    1
    94    85    86    1
    95     5     6    1
    96    88    90    1
    97   120   119    2
    98    94    95    2
    99   108   107    1
   100   107   109    1
   101   107   104    1
   102     6     7    1
   103   119   118    1
   104   123   121    1
   105    86    87    2
   106     7     8    1
   107   104   103    1
   108   104   105    1
   109   121   118    1
   110   121   122    1
   111   118   117    1
   112     8     9    2
   113   117   112   am
   114    10     9    1
   115     9    11    1
   116   116   110    1
   117   116   115    1
   118   105   106    2
   119   105   110   am
   120   110   111    1
   121   112   111    1
   122   112   113    2
   123   115   114    1
   124   114   111    1
