@<TRIPOS>MOLECULE
tmp/4obfC00.pdb
 126 120 0 0 0
SMALL
GASTEIGER

@<TRIPOS>ATOM
      1  N        -18.8920  -23.4240  -29.1760 N.3     6  TRP6       -0.1241
      2  CA       -19.5350  -23.7190  -27.8910 C.3     6  TRP6        0.1605
      3  C        -18.7080  -23.1740  -26.7420 C.2     6  TRP6        0.2264
      4  O        -19.2550  -22.6640  -25.7600 O.2     6  TRP6       -0.2867
      5  CB       -19.7160  -25.2340  -27.6970 C.3     6  TRP6        0.0550
      6  CG       -20.8140  -25.8530  -28.4820 C.ar    6  TRP6        0.0003
      7  CD1      -20.8230  -26.1000  -29.8210 C.ar    6  TRP6        0.0946
      8  CD2      -22.0350  -26.3900  -27.9650 C.ar    6  TRP6        0.0152
      9  NE1      -22.0010  -26.7080  -30.1830 N.ar    6  TRP6       -0.2442
     10  CE2      -22.7570  -26.9130  -29.0590 C.ar    6  TRP6        0.0810
     11  CE3      -22.5810  -26.4940  -26.6840 C.ar    6  TRP6        0.0012
     12  CZ2      -24.0080  -27.5230  -28.9120 C.ar    6  TRP6        0.0191
     13  CZ3      -23.8350  -27.1030  -26.5400 C.ar    6  TRP6        0.0001
     14  CH2      -24.5160  -27.6320  -27.6470 C.ar    6  TRP6        0.0015
     15  N        -15.1510  -20.4370  -26.0300 N.3     8  ARG8       -0.1245
     16  CA       -14.3600  -19.3530  -26.6310 C.3     8  ARG8        0.1563
     17  C        -13.2670  -19.8940  -27.5360 C.2     8  ARG8        0.2260
     18  O        -12.5480  -20.8430  -27.1680 O.2     8  ARG8       -0.2867
     19  CB       -13.7170  -18.4910  -25.5450 C.3     8  ARG8        0.0307
     20  CG       -14.7100  -17.6570  -24.7900 C.3     8  ARG8        0.0489
     21  CD       -14.0210  -16.7230  -23.8240 C.3     8  ARG8        0.2205
     22  NE       -15.0040  -16.0110  -23.0310 N.pl3   8  ARG8       -0.0865
     23  CZ       -14.7290  -15.0750  -22.1270 C.cat   8  ARG8        0.5346
     24  NH1      -13.4760  -14.6940  -21.9100 N.pl3   8  ARG8        0.1354
     25  NH2      -15.7170  -14.5240  -21.4310 N.pl3   8  ARG8        0.1354
     26  N         -7.7470  -14.8330  -28.4630 N.3    23  LEU23      -0.1245
     27  CA        -9.1300  -15.0800  -28.8470 C.3    23  LEU23       0.1561
     28  C         -9.3250  -14.7450  -30.3240 C.2    23  LEU23       0.2260
     29  O         -9.0460  -13.6140  -30.7670 O.2    23  LEU23      -0.2867
     30  CB       -10.0580  -14.2090  -27.9960 C.3    23  LEU23       0.0270
     31  CG       -11.5650  -14.3460  -28.1990 C.3    23  LEU23       0.0019
     32  CD1      -12.0960  -15.6990  -27.7640 C.3    23  LEU23       0.0001
     33  CD2      -12.3330  -13.2120  -27.4950 C.3    23  LEU23       0.0001
     34  N        -11.3180  -13.5210  -33.0060 N.3    25  ASN25      -0.1240
     35  CA       -12.3950  -12.5510  -32.7950 C.3    25  ASN25       0.1653
     36  C        -12.8820  -11.8590  -34.0850 C.2    25  ASN25       0.2266
     37  O        -12.2930  -10.8810  -34.5550 O.2    25  ASN25      -0.2867
     38  CB       -11.8480  -11.4990  -31.8160 C.3    25  ASN25       0.1155
     39  CG       -12.8870  -10.5040  -31.3600 C.2    25  ASN25       0.2627
     40  OD1      -14.0750  -10.5920  -31.9130 O.2    25  ASN25      -0.2716
     41  ND2      -12.6340   -9.7060  -30.4390 N.am   25  ASN25      -0.0877
     42  N        -15.4350  -10.1330  -34.4450 N.3    27  GLY27      -0.1210
     43  CA       -15.9160   -8.8020  -34.1110 C.3    27  GLY27       0.1956
     44  C        -14.8530   -7.7590  -33.8400 C.2    27  GLY27       0.2612
     45  O        -15.1980   -6.6490  -33.4110 O.2    27  GLY27      -0.2717
     46  N        -13.5970   -8.0920  -34.1160 N.am   28  ALA28      -0.1965
     47  CA       -12.4790   -7.1710  -33.9920 C.3    28  ALA28       0.1728
     48  C        -11.8840   -6.8300  -35.3660 C.2    28  ALA28       0.2616
     49  O        -11.5320   -7.7280  -36.1120 O.2    28  ALA28      -0.2715
     50  CB       -11.4090   -7.7670  -33.0840 C.3    28  ALA28       0.0334
     51  N        -11.7840   -5.5460  -35.6990 N.am   29  ASP29      -0.1957
     52  CA       -11.1820   -5.1330  -36.9760 C.3    29  ASP29       0.1840
     53  C         -9.6950   -5.4760  -37.0030 C.2    29  ASP29       0.2622
     54  O         -9.1440   -5.8600  -38.0360 O.2    29  ASP29      -0.2715
     55  CB       -11.3300   -3.6190  -37.2290 C.3    29  ASP29       0.1450
     56  CG       -12.7780   -3.1530  -37.3840 C.2    29  ASP29       0.3671
     57  OD1      -13.6980   -3.9700  -37.5960 O.co2  29  ASP29      -0.2456
     58  OD2      -13.0050   -1.9340  -37.2650 O.co2  29  ASP29      -0.2456
     59  N         -9.0730   -5.3050  -35.8470 N.am   30  ASN30      -0.1972
     60  CA        -7.6320   -5.3620  -35.6900 C.3    30  ASN30       0.1688
     61  C         -7.1790   -6.2990  -34.5960 C.2    30  ASN30       0.2292
     62  O         -7.9590   -6.7240  -33.8450 O.2    30  ASN30      -0.2864
     63  CB        -7.0890   -3.9970  -35.3260 C.3    30  ASN30       0.1181
     64  CG        -7.6350   -2.9210  -36.1710 C.2    30  ASN30       0.2629
     65  OD1       -8.3310   -2.0630  -35.7090 O.2    30  ASN30      -0.2716
     66  ND2       -7.3250   -2.9660  -37.4270 N.am   30  ASN30      -0.0877
     67  N         -5.0330   -7.0200  -31.1700 N.3    32  VAL32      -0.1245
     68  CA        -4.6870   -6.2160  -30.0200 C.3    32  VAL32       0.1561
     69  C         -4.2320   -7.1640  -28.9420 C.2    32  VAL32       0.2260
     70  O         -4.9720   -8.0810  -28.5860 O.2    32  VAL32      -0.2867
     71  CB        -5.8990   -5.4710  -29.4680 C.3    32  VAL32       0.0252
     72  CG1       -5.4290   -4.4200  -28.4660 C.3    32  VAL32       0.0019
     73  CG2       -6.6700   -4.9350  -30.6330 C.3    32  VAL32       0.0019
     74  N         -8.8620    2.5970  -29.8750 N.3    47  ILE47      -0.1231
     75  CA        -9.8160    1.6290  -30.3980 C.3    47  ILE47       0.1692
     76  C        -11.0170    1.4710  -29.4730 C.2    47  ILE47       0.2593
     77  O        -10.9470    1.7030  -28.2610 O.2    47  ILE47      -0.2718
     78  CB        -9.1660    0.2620  -30.6310 C.3    47  ILE47       0.0266
     79  CG1       -8.5280   -0.2510  -29.3450 C.3    47  ILE47       0.0019
     80  CG2       -8.1530    0.3330  -31.8060 C.3    47  ILE47       0.0020
     81  CD1       -8.0180   -1.7220  -29.4500 C.3    47  ILE47       0.0001
     82  N        -12.1360    1.1280  -30.0840 N.am   48  GLY48      -0.1942
     83  CA       -13.4190    1.2820  -29.4420 C.3    48  GLY48       0.2014
     84  C        -14.1660   -0.0280  -29.4860 C.2    48  GLY48       0.2639
     85  O        -14.0900   -0.7590  -30.4650 O.2    48  GLY48      -0.2714
     86  N        -14.8690   -0.3340  -28.4020 N.am   49  GLY49      -0.1939
     87  CA       -15.9300   -1.3160  -28.4550 C.3    49  GLY49       0.2014
     88  C        -17.0390   -1.0690  -27.4510 C.2    49  GLY49       0.2638
     89  O        -17.4260    0.0780  -27.1830 O.2    49  GLY49      -0.2714
     90  N        -17.5440   -2.1610  -26.8900 N.am   50  ILE50      -0.1977
     91  CA       -18.5650   -2.0800  -25.8570 C.3    50  ILE50       0.1596
     92  C        -17.8970   -1.4200  -24.6600 C.2    50  ILE50       0.2287
     93  O        -16.8150   -1.8100  -24.2590 O.2    50  ILE50      -0.2864
     94  CB       -19.1120   -3.4800  -25.4820 C.3    50  ILE50       0.0276
     95  CG1      -20.2530   -3.8560  -26.4330 C.3    50  ILE50       0.0022
     96  CG2      -19.6330   -3.4830  -24.0270 C.3    50  ILE50       0.0022
     97  CD1      -20.7540   -5.2840  -26.2570 C.3    50  ILE50       0.0001
     98  N         -6.1810   -4.1760  -23.2840 N.3    80  THR80      -0.1204
     99  CA        -7.2540   -5.0610  -23.6530 C.3    80  THR80       0.1979
    100  C         -7.3770   -6.1020  -22.5580 C.2    80  THR80       0.2460
    101  O         -6.3580   -6.6130  -22.0690 O.2    80  THR80      -0.2732
    102  CB        -7.0240   -5.7390  -25.0400 C.3    80  THR80       0.1783
    103  OG1       -8.0650   -6.6890  -25.2790 O.3    80  THR80      -0.2211
    104  CG2       -5.6870   -6.4830  -25.1350 C.3    80  THR80       0.0376
    105  N         -8.6220   -6.4830  -22.2340 N.am   81  PRO81      -0.2717
    106  CA        -8.8550   -7.5470  -21.2600 C.3    81  PRO81       0.1535
    107  C         -8.3220   -8.9040  -21.6780 C.2    81  PRO81       0.2598
    108  O         -8.0400   -9.6960  -20.7960 O.2    81  PRO81      -0.2715
    109  CB       -10.3850   -7.6040  -21.1430 C.3    81  PRO81       0.0310
    110  CG       -10.8890   -6.3720  -21.7220 C.3    81  PRO81       0.0237
    111  CD        -9.8810   -5.9200  -22.7340 C.3    81  PRO81       0.0939
    112  N         -8.2050   -9.1780  -22.9820 N.am   82  VAL82      -0.1978
    113  CA        -7.6780  -10.4480  -23.4810 C.3    82  VAL82       0.1596
    114  C         -6.9590  -10.1930  -24.7910 C.2    82  VAL82       0.2287
    115  O         -7.3010   -9.2420  -25.4950 O.2    82  VAL82      -0.2864
    116  CB        -8.7940  -11.4950  -23.7460 C.3    82  VAL82       0.0276
    117  CG1       -9.5150  -11.8250  -22.4530 C.3    82  VAL82       0.0022
    118  CG2       -9.7740  -11.0320  -24.8270 C.3    82  VAL82       0.0022
    119  N         -6.3530  -10.4900  -28.5320 N.3    84  ILE84      -0.1245
    120  CA        -7.3500  -10.6250  -29.5870 C.3    84  ILE84       0.1561
    121  C         -6.7040  -10.7050  -30.9720 C.2    84  ILE84       0.2260
    122  O         -5.9650   -9.7930  -31.3810 O.2    84  ILE84      -0.2867
    123  CB        -8.3180   -9.3990  -29.6090 C.3    84  ILE84       0.0252
    124  CG1       -9.2820   -9.4400  -28.4260 C.3    84  ILE84       0.0019
    125  CG2       -9.0610   -9.3470  -30.9190 C.3    84  ILE84       0.0019
    126  CD1       -9.9230   -8.0820  -28.0830 C.3    84  ILE84       0.0001
@<TRIPOS>BOND
     1    54    53    2
     2    57    56   ar
     3    66    64   am
     4    56    58   ar
     5    56    55    1
     6    55    52    1
     7    53    52    1
     8    53    59   am
     9    52    51    1
    10    64    65    2
    11    64    63    1
    12    49    48    2
    13    59    60    1
    14    51    48   am
    15    60    63    1
    16    60    61    1
    17    48    47    1
    18    61    62    2
    19    37    36    2
    20    42    43    1
    21    46    47    1
    22    46    44   am
    23    43    44    1
    24    36    35    1
    25    47    50    1
    26    44    45    2
    27    34    35    1
    28    35    38    1
    29    40    39    2
    30    38    39    1
    31    80    78    1
    32   122   121    2
    33    39    41   am
    34    67    68    1
    35   121   120    1
    36   125   123    1
    37    29    28    2
    38    73    71    1
    39    78    75    1
    40    78    79    1
    41    85    84    2
    42    75    74    1
    43    75    76    1
    44    28    27    1
    45     9     7   ar
    46     9    10   ar
    47    82    76   am
    48    82    83    1
    49    68    71    1
    50    68    69    1
    51     7     6   ar
    52   123   120    1
    53   123   124    1
    54   120   119    1
    55    84    83    1
    56    84    86   am
    57    76    77    2
    58    71    72    1
    59    81    79    1
    60     1     2    1
    61    10    12   ar
    62    10     8   ar
    63    69    70    2
    64    12    14   ar
    65    27    26    1
    66    27    30    1
    67     6     8   ar
    68     6     5    1
    69    87    86    1
    70    87    88    1
    71   124   126    1
    72    31    30    1
    73    31    32    1
    74    31    33    1
    75     8    11   ar
    76     2     5    1
    77     2     3    1
    78    14    13   ar
    79    17    18    2
    80    17    16    1
    81    88    89    2
    82    88    90   am
    83    90    91    1
    84     3     4    2
    85    11    13   ar
    86    16    15    1
    87    16    19    1
    88    95    97    1
    89    95    94    1
    90    91    94    1
    91    91    92    1
    92    19    20    1
    93   115   114    2
    94    94    96    1
    95   103   102    1
    96   104   102    1
    97   102    99    1
    98   118   116    1
    99   114   113    1
   100    20    21    1
   101    92    93    2
   102    21    22    1
   103   116   113    1
   104   116   117    1
   105    99    98    1
   106    99   100    1
   107   113   112    1
   108    22    23    2
   109   112   107   am
   110   111   105    1
   111   111   110    1
   112   100   105   am
   113   100   101    2
   114   105   106    1
   115    23    24    1
   116    23    25    1
   117   110   109    1
   118   107   106    1
   119   107   108    2
   120   106   109    1
