@<TRIPOS>MOLECULE
tmp/4obfA00.pdb
 116 109 0 0 0
SMALL
GASTEIGER

@<TRIPOS>ATOM
      1  N         -5.8800    6.4040    2.0630 N.3     8  ARG8       -0.1245
      2  CA        -6.6030    5.1850    1.6460 C.3     8  ARG8        0.1563
      3  C         -7.7660    5.5540    0.7250 C.2     8  ARG8        0.2260
      4  O         -8.5110    6.4990    1.0450 O.2     8  ARG8       -0.2867
      5  CB        -7.1810    4.4550    2.8540 C.3     8  ARG8        0.0307
      6  CG        -6.1470    3.7960    3.7290 C.3     8  ARG8        0.0489
      7  CD        -6.7770    3.3520    5.0370 C.3     8  ARG8        0.2205
      8  NE        -5.7700    2.7400    5.9040 N.pl3   8  ARG8       -0.0865
      9  CZ        -5.8700    2.6220    7.2260 C.cat   8  ARG8        0.5346
     10  NH1       -6.9470    3.0370    7.8790 N.pl3   8  ARG8        0.1354
     11  NH2       -4.8850    2.0780    7.9100 N.pl3   8  ARG8        0.1354
     12  N        -13.1600    0.4500    0.5450 N.3    23  LEU23      -0.1245
     13  CA       -11.7840    0.6430    0.1300 C.3    23  LEU23       0.1561
     14  C        -11.6110    0.0500   -1.2750 C.2    23  LEU23       0.2260
     15  O        -11.9410   -1.1230   -1.5000 O.2    23  LEU23      -0.2867
     16  CB       -10.8670   -0.0580    1.1410 C.3    23  LEU23       0.0270
     17  CG        -9.3680    0.0720    0.8920 C.3    23  LEU23       0.0019
     18  CD1       -8.8400    1.3800    1.4020 C.3    23  LEU23       0.0001
     19  CD2       -8.6150   -1.0430    1.5770 C.3    23  LEU23       0.0001
     20  N         -9.6000   -1.7240   -3.6950 N.3    25  ASN25      -0.1240
     21  CA        -8.4890   -2.5970   -3.3630 C.3    25  ASN25       0.1653
     22  C         -8.0670   -3.4040   -4.5970 C.2    25  ASN25       0.2266
     23  O         -8.5960   -4.4910   -4.8570 O.2    25  ASN25      -0.2867
     24  CB        -8.9360   -3.5210   -2.2420 C.3    25  ASN25       0.1155
     25  CG        -7.8310   -4.2960   -1.6310 C.2    25  ASN25       0.2627
     26  OD1       -8.0580   -4.9720   -0.5940 O.2    25  ASN25      -0.2716
     27  ND2       -6.6740   -4.3280   -2.2910 N.am   25  ASN25      -0.0877
     28  N         -5.5030   -5.1020   -4.7090 N.3    27  GLY27      -0.1210
     29  CA        -4.9220   -6.3120   -4.1330 C.3    27  GLY27       0.1956
     30  C         -5.9550   -7.3320   -3.7040 C.2    27  GLY27       0.2612
     31  O         -5.6010   -8.3360   -3.0790 O.2    27  GLY27      -0.2717
     32  N         -7.2280   -7.1090   -4.0520 N.am   28  ALA28      -0.1965
     33  CA        -8.2790   -8.1040   -3.7730 C.3    28  ALA28       0.1728
     34  C         -8.8990   -8.6040   -5.0700 C.2    28  ALA28       0.2616
     35  O         -9.3250   -7.8180   -5.9070 O.2    28  ALA28      -0.2715
     36  CB        -9.3590   -7.5290   -2.8550 C.3    28  ALA28       0.0334
     37  N         -8.9550   -9.9240   -5.2220 N.am   29  ASP29      -0.1957
     38  CA        -9.5670  -10.5050   -6.4080 C.3    29  ASP29       0.1840
     39  C        -11.0710  -10.2020   -6.4090 C.2    29  ASP29       0.2622
     40  O        -11.6680   -9.9990   -7.4720 O.2    29  ASP29      -0.2715
     41  CB        -9.3860  -12.0290   -6.4420 C.3    29  ASP29       0.1450
     42  CG        -7.9270  -12.4800   -6.5080 C.2    29  ASP29       0.3671
     43  OD1       -7.0490  -11.7020   -6.9270 O.co2  29  ASP29      -0.2456
     44  OD2       -7.6830  -13.6860   -6.2520 O.co2  29  ASP29      -0.2456
     45  N        -11.6670  -10.2310   -5.2290 N.am   30  ASN30      -0.1972
     46  CA       -13.1100  -10.1710   -5.0920 C.3    30  ASN30       0.1688
     47  C        -13.5780   -9.1650   -4.0720 C.2    30  ASN30       0.2292
     48  O        -12.8460   -8.7830   -3.2740 O.2    30  ASN30      -0.2864
     49  CB       -13.6690  -11.5070   -4.6390 C.3    30  ASN30       0.1181
     50  CG       -13.0890  -12.6430   -5.3580 C.2    30  ASN30       0.2629
     51  OD1      -12.3740  -13.4200   -4.8010 O.2    30  ASN30      -0.2716
     52  ND2      -13.4050  -12.7530   -6.6050 N.am   30  ASN30      -0.0877
     53  N        -15.5910   -7.9160   -0.8700 N.3    32  VAL32      -0.1245
     54  CA       -16.0850   -8.4380    0.4010 C.3    32  VAL32       0.1561
     55  C        -16.4860   -7.2730    1.2880 C.2    32  VAL32       0.2260
     56  O        -15.7000   -6.3450    1.5120 O.2    32  VAL32      -0.2867
     57  CB       -15.0910   -9.3840    1.0930 C.3    32  VAL32       0.0252
     58  CG1      -13.7490   -8.6670    1.3350 C.3    32  VAL32       0.0019
     59  CG2      -15.7120   -9.9940    2.4010 C.3    32  VAL32       0.0019
     60  N        -11.8300  -16.9330    2.0910 N.3    47  ILE47      -0.1231
     61  CA       -10.9240  -16.0430    1.3850 C.3    47  ILE47       0.1692
     62  C         -9.7530  -15.7950    2.3220 C.2    47  ILE47       0.2593
     63  O         -9.9000  -15.8410    3.5420 O.2    47  ILE47      -0.2718
     64  CB       -11.5690  -14.6960    1.0080 C.3    47  ILE47       0.0266
     65  CG1      -12.1490  -14.0050    2.2460 C.3    47  ILE47       0.0019
     66  CG2      -12.6750  -14.8830   -0.0620 C.3    47  ILE47       0.0020
     67  CD1      -12.7260  -12.6340    1.9460 C.3    47  ILE47       0.0001
     68  N         -8.5880  -15.6370    1.7200 N.am   48  GLY48      -0.1942
     69  CA        -7.3490  -15.5490    2.4680 C.3    48  GLY48       0.2014
     70  C         -6.5320  -14.3410    2.0770 C.2    48  GLY48       0.2639
     71  O         -6.5990  -13.8320    0.9450 O.2    48  GLY48      -0.2714
     72  N         -5.6270  -14.0050    2.9830 N.am   49  GLY49      -0.1939
     73  CA        -4.5300  -13.1050    2.6500 C.3    49  GLY49       0.2014
     74  C         -3.5890  -12.9960    3.8240 C.2    49  GLY49       0.2638
     75  O         -3.2900  -13.9870    4.4560 O.2    49  GLY49      -0.2714
     76  N         -3.1190  -11.7860    4.1190 N.am   50  ILE50      -0.1977
     77  CA        -2.1880  -11.5710    5.2190 C.3    50  ILE50       0.1596
     78  C         -2.9450  -11.8920    6.5110 C.2    50  ILE50       0.2287
     79  O         -4.0500  -11.4000    6.7380 O.2    50  ILE50      -0.2864
     80  CB        -1.6920  -10.0880    5.2650 C.3    50  ILE50       0.0276
     81  CG1       -0.6030   -9.8810    4.2190 C.3    50  ILE50       0.0022
     82  CG2       -1.1150   -9.7760    6.6340 C.3    50  ILE50       0.0022
     83  CD1       -0.0860   -8.4760    4.1000 C.3    50  ILE50       0.0001
     84  N         -7.0710  -16.9060    6.7510 N.3    53  PHE53      -0.1241
     85  CA        -8.3540  -17.0190    6.0340 C.3    53  PHE53       0.1605
     86  C         -9.5190  -16.6570    6.9570 C.2    53  PHE53       0.2264
     87  O         -9.4460  -16.8410    8.1820 O.2    53  PHE53      -0.2867
     88  CB        -8.5300  -18.4400    5.4790 C.3    53  PHE53       0.0534
     89  CG        -7.7120  -18.7300    4.2560 C.ar   53  PHE53      -0.0203
     90  CD1       -6.3360  -18.8730    4.3440 C.ar   53  PHE53      -0.0042
     91  CD2       -8.3170  -18.8470    3.0150 C.ar   53  PHE53      -0.0042
     92  CE1       -5.5860  -19.0580    3.2100 C.ar   53  PHE53      -0.0003
     93  CE2       -7.5750  -19.0440    1.8810 C.ar   53  PHE53      -0.0003
     94  CZ        -6.2010  -19.1550    1.9750 C.ar   53  PHE53      -0.0000
     95  N        -12.1600   -6.5900    7.9900 N.3    81  PRO81      -0.2102
     96  CA       -11.9550   -5.4070    8.8220 C.3    81  PRO81       0.1504
     97  C        -12.5180   -4.1290    8.2110 C.2    81  PRO81       0.2575
     98  O        -12.8470   -3.2060    8.9500 O.2    81  PRO81      -0.2718
     99  CB       -10.4240   -5.3030    8.9250 C.3    81  PRO81       0.0282
    100  CG        -9.9250   -6.6640    8.6870 C.3    81  PRO81       0.0208
    101  CD       -10.8830   -7.2570    7.6730 C.3    81  PRO81       0.0893
    102  N        -12.6030   -4.0700    6.8760 N.am   82  VAL82      -0.1980
    103  CA       -13.1430   -2.8900    6.1880 C.3    82  VAL82       0.1595
    104  C        -13.8810   -3.3920    4.9350 C.2    82  VAL82       0.2287
    105  O        -13.5290   -4.4650    4.4290 O.2    82  VAL82      -0.2864
    106  CB       -12.0260   -1.8990    5.8030 C.3    82  VAL82       0.0276
    107  CG1      -11.0590   -2.5060    4.8350 C.3    82  VAL82       0.0022
    108  CG2      -12.5940   -0.6350    5.1790 C.3    82  VAL82       0.0022
    109  N        -14.4910   -3.7780    1.2090 N.3    84  ILE84      -0.1245
    110  CA       -13.4560   -3.8840    0.1960 C.3    84  ILE84       0.1561
    111  C        -14.0730   -4.1060   -1.1790 C.2    84  ILE84       0.2260
    112  O        -14.8130   -5.0780   -1.3960 O.2    84  ILE84      -0.2867
    113  CB       -12.4760   -5.0580    0.5020 C.3    84  ILE84       0.0252
    114  CG1      -11.5000   -4.6320    1.5910 C.3    84  ILE84       0.0019
    115  CG2      -11.7150   -5.4170   -0.7810 C.3    84  ILE84       0.0019
    116  CD1      -10.7740   -5.8030    2.2800 C.3    84  ILE84       0.0001
@<TRIPOS>BOND
     1    40    39    2
     2    43    42   ar
     3    52    50   am
     4    42    41    1
     5    42    44   ar
     6    41    38    1
     7    39    38    1
     8    39    45   am
     9    38    37    1
    10    35    34    2
    11    50    51    2
    12    50    49    1
    13    45    46    1
    14    37    34   am
    15    46    49    1
    16    46    47    1
    17    34    33    1
    18    23    22    2
    19    28    29    1
    20    22    21    1
    21    29    30    1
    22    47    48    2
    23    32    33    1
    24    32    30   am
    25    33    36    1
    26    30    31    2
    27    20    21    1
    28    21    24    1
    29    27    25   am
    30    24    25    1
    31    25    26    2
    32    15    14    2
    33   112   111    2
    34    14    13    1
    35   111   110    1
    36    53    54    1
    37   115   113    1
    38    66    64    1
    39    13    12    1
    40    13    16    1
    41   110   113    1
    42   110   109    1
    43    54    57    1
    44    54    55    1
    45   113   114    1
    46     3     4    2
    47     3     2    1
    48    17    16    1
    49    17    18    1
    50    17    19    1
    51    71    70    2
    52    64    61    1
    53    64    65    1
    54    57    58    1
    55    57    59    1
    56    55    56    2
    57    61    60    1
    58    61    62    1
    59   114   116    1
    60     2     1    1
    61     2     5    1
    62    68    62   am
    63    68    69    1
    64    93    94   ar
    65    93    91   ar
    66    67    65    1
    67    94    92   ar
    68    70    69    1
    69    70    72   am
    70    62    63    2
    71    73    72    1
    72    73    74    1
    73     5     6    1
    74    91    89   ar
    75    92    90   ar
    76     6     7    1
    77    74    76   am
    78    74    75    2
    79    83    81    1
    80    76    77    1
    81    81    80    1
    82    89    90   ar
    83    89    88    1
    84   105   104    2
    85   107   106    1
    86   104   103    1
    87     7     8    1
    88   108   106    1
    89    77    80    1
    90    77    78    1
    91    80    82    1
    92    88    85    1
    93   106   103    1
    94     8     9    2
    95    85    84    1
    96    85    86    1
    97   103   102    1
    98    78    79    2
    99   102    97   am
   100    86    87    2
   101     9    10    1
   102     9    11    1
   103   101    95    1
   104   101   100    1
   105    95    96    1
   106    97    96    1
   107    97    98    2
   108   100    99    1
   109    96    99    1
