@<TRIPOS>MOLECULE
tmp/4obgD00.pdb
 135 127 0 0 0
SMALL
GASTEIGER

@<TRIPOS>ATOM
      1  N        -15.2540  -20.4500  -26.0220 N.3     8  ARG8       -0.1245
      2  CA       -14.4370  -19.4210  -26.6740 C.3     8  ARG8        0.1563
      3  C        -13.3670  -20.0300  -27.6010 C.2     8  ARG8        0.2260
      4  O        -12.7150  -21.0440  -27.2640 O.2     8  ARG8       -0.2867
      5  CB       -13.7680  -18.5440  -25.6170 C.3     8  ARG8        0.0307
      6  CG       -14.7440  -17.6860  -24.8720 C.3     8  ARG8        0.0489
      7  CD       -14.0490  -16.7300  -23.9170 C.3     8  ARG8        0.2205
      8  NE       -15.0200  -15.9200  -23.1890 N.pl3   8  ARG8       -0.0865
      9  CZ       -14.7090  -14.9410  -22.3410 C.cat   8  ARG8        0.5346
     10  NH1      -13.4390  -14.6050  -22.1370 N.pl3   8  ARG8        0.1354
     11  NH2      -15.6700  -14.2940  -21.6910 N.pl3   8  ARG8        0.1354
     12  N         -7.8700  -14.8390  -28.4940 N.3    23  LEU23      -0.1245
     13  CA        -9.2450  -15.0820  -28.9350 C.3    23  LEU23       0.1561
     14  C         -9.4090  -14.7770  -30.4350 C.2    23  LEU23       0.2260
     15  O         -9.1000  -13.6820  -30.9100 O.2    23  LEU23      -0.2867
     16  CB       -10.1970  -14.2170  -28.1010 C.3    23  LEU23       0.0270
     17  CG       -11.7070  -14.4000  -28.2740 C.3    23  LEU23       0.0019
     18  CD1      -12.1660  -15.7410  -27.7440 C.3    23  LEU23       0.0001
     19  CD2      -12.4690  -13.2760  -27.5550 C.3    23  LEU23       0.0001
     20  N        -11.5150  -13.5120  -33.1070 N.3    25  ASN25      -0.1240
     21  CA       -12.5750  -12.5520  -32.8750 C.3    25  ASN25       0.1653
     22  C        -13.0420  -11.8820  -34.1580 C.2    25  ASN25       0.2266
     23  O        -12.4830  -10.8610  -34.5600 O.2    25  ASN25      -0.2867
     24  CB       -12.0530  -11.4960  -31.9150 C.3    25  ASN25       0.1155
     25  CG       -13.1200  -10.5710  -31.4140 C.2    25  ASN25       0.2627
     26  OD1      -14.2700  -10.5820  -31.8690 O.2    25  ASN25      -0.2716
     27  ND2      -12.7420   -9.7520  -30.4320 N.am   25  ASN25      -0.0877
     28  N        -15.5210  -10.1670  -34.4090 N.3    27  GLY27      -0.1210
     29  CA       -16.0250   -8.8580  -34.0130 C.3    27  GLY27       0.1956
     30  C        -15.0220   -7.7280  -33.9000 C.2    27  GLY27       0.2612
     31  O        -15.3690   -6.6290  -33.4940 O.2    27  GLY27      -0.2717
     32  N        -13.7610   -8.0310  -34.1590 N.am   28  ALA28      -0.1965
     33  CA       -12.6570   -7.1110  -34.0170 C.3    28  ALA28       0.1728
     34  C        -12.0260   -6.8530  -35.3840 C.2    28  ALA28       0.2616
     35  O        -11.6340   -7.7920  -36.0970 O.2    28  ALA28      -0.2715
     36  CB       -11.6250   -7.6850  -33.1280 C.3    28  ALA28       0.0334
     37  N        -11.8350   -5.5760  -35.6710 N.am   29  ASP29      -0.1957
     38  CA       -11.2220   -5.1330  -36.9270 C.3    29  ASP29       0.1840
     39  C         -9.7370   -5.4450  -36.9450 C.2    29  ASP29       0.2622
     40  O         -9.1690   -5.8060  -37.9830 O.2    29  ASP29      -0.2715
     41  CB       -11.4000   -3.6220  -37.1030 C.3    29  ASP29       0.1450
     42  CG       -12.8610   -3.1810  -37.2510 C.2    29  ASP29       0.3671
     43  OD1      -13.7850   -4.0160  -37.3990 O.co2  29  ASP29      -0.2456
     44  OD2      -13.0670   -1.9510  -37.3640 O.co2  29  ASP29      -0.2456
     45  N         -9.1190   -5.3130  -35.7710 N.am   30  ASN30      -0.1972
     46  CA        -7.6830   -5.3450  -35.6230 C.3    30  ASN30       0.1688
     47  C         -7.2860   -6.3600  -34.5540 C.2    30  ASN30       0.2292
     48  O         -8.1430   -6.8880  -33.8340 O.2    30  ASN30      -0.2864
     49  CB        -7.1710   -3.9580  -35.2340 C.3    30  ASN30       0.1181
     50  CG        -7.8080   -2.8490  -36.0490 C.2    30  ASN30       0.2629
     51  OD1       -8.4670   -1.9540  -35.5070 O.2    30  ASN30      -0.2716
     52  ND2       -7.6030   -2.8920  -37.3550 N.am   30  ASN30      -0.0877
     53  N         -5.1950   -7.0840  -31.1560 N.3    32  VAL32      -0.1245
     54  CA        -4.8250   -6.3290  -29.9830 C.3    32  VAL32       0.1561
     55  C         -4.2620   -7.2650  -28.9200 C.2    32  VAL32       0.2260
     56  O         -4.9060   -8.2570  -28.5590 O.2    32  VAL32      -0.2867
     57  CB        -6.0230   -5.5400  -29.4010 C.3    32  VAL32       0.0252
     58  CG1       -5.4950   -4.3870  -28.5720 C.3    32  VAL32       0.0019
     59  CG2       -6.9550   -5.1070  -30.5330 C.3    32  VAL32       0.0019
     60  N         -6.6270    5.0410  -30.6880 N.3    46  MET46      -0.1230
     61  CA        -7.7520    4.6460  -29.8310 C.3    46  MET46       0.1702
     62  C         -8.5040    3.5680  -30.5650 C.2    46  MET46       0.2592
     63  O         -8.7240    3.6770  -31.7690 O.2    46  MET46      -0.2718
     64  CB        -8.7280    5.7900  -29.5710 C.3    46  MET46       0.0401
     65  CG        -8.1370    6.9700  -28.8840 C.3    46  MET46       0.0596
     66  SD        -7.6480    6.6750  -27.1960 S.3    46  MET46      -0.1393
     67  CE        -9.1850    6.3590  -26.3270 C.3    46  MET46       0.0692
     68  N         -8.9260    2.5500  -29.8350 N.am   47  ILE47      -0.1966
     69  CA        -9.8510    1.5830  -30.3990 C.3    47  ILE47       0.1727
     70  C        -11.0790    1.4510  -29.5050 C.2    47  ILE47       0.2617
     71  O        -11.0060    1.6270  -28.3000 O.2    47  ILE47      -0.2715
     72  CB        -9.1980    0.2140  -30.6330 C.3    47  ILE47       0.0290
     73  CG1       -8.5000   -0.3030  -29.3720 C.3    47  ILE47       0.0022
     74  CG2       -8.2700    0.2770  -31.8590 C.3    47  ILE47       0.0023
     75  CD1       -8.1420   -1.7990  -29.4360 C.3    47  ILE47       0.0001
     76  N        -12.2100    1.1760  -30.1350 N.am   48  GLY48      -0.1940
     77  CA       -13.5100    1.3090  -29.4930 C.3    48  GLY48       0.2014
     78  C        -14.2300   -0.0200  -29.4340 C.2    48  GLY48       0.2639
     79  O        -14.0620   -0.8620  -30.3030 O.2    48  GLY48      -0.2714
     80  N        -14.9780   -0.2260  -28.3560 N.am   49  GLY49      -0.1939
     81  CA       -15.8740   -1.3730  -28.2510 C.3    49  GLY49       0.2014
     82  C        -17.0990   -1.0890  -27.4120 C.2    49  GLY49       0.2638
     83  O        -17.5130    0.0640  -27.2440 O.2    49  GLY49      -0.2714
     84  N        -17.6480   -2.1510  -26.8370 N.am   50  ILE50      -0.1977
     85  CA       -18.6620   -2.0310  -25.8060 C.3    50  ILE50       0.1596
     86  C        -17.9860   -1.4060  -24.5960 C.2    50  ILE50       0.2287
     87  O        -16.8980   -1.8050  -24.2100 O.2    50  ILE50      -0.2864
     88  CB       -19.2520   -3.4150  -25.4510 C.3    50  ILE50       0.0276
     89  CG1      -20.3230   -3.7970  -26.4700 C.3    50  ILE50       0.0022
     90  CG2      -19.8960   -3.4120  -24.0680 C.3    50  ILE50       0.0022
     91  CD1      -20.8000   -5.2140  -26.3030 C.3    50  ILE50       0.0001
     92  N        -13.7160    3.4300  -25.5140 N.3    53  PHE53      -0.1241
     93  CA       -12.4420    3.2520  -26.2220 C.3    53  PHE53       0.1605
     94  C        -11.2730    3.1210  -25.2460 C.2    53  PHE53       0.2264
     95  O        -11.2890    3.7160  -24.1790 O.2    53  PHE53      -0.2867
     96  CB       -12.1490    4.4190  -27.1670 C.3    53  PHE53       0.0534
     97  CG       -12.9560    4.4290  -28.4300 C.ar   53  PHE53      -0.0203
     98  CD1      -14.3410    4.4020  -28.3950 C.ar   53  PHE53      -0.0042
     99  CD2      -12.3470    4.6550  -29.6460 C.ar   53  PHE53      -0.0042
    100  CE1      -15.0710    4.5130  -29.5390 C.ar   53  PHE53      -0.0003
    101  CE2      -13.0800    4.7430  -30.7950 C.ar   53  PHE53      -0.0003
    102  CZ       -14.4490    4.6890  -30.7360 C.ar   53  PHE53      -0.0000
    103  N         -8.6770   -6.5660  -22.2000 N.3    81  PRO81      -0.2102
    104  CA        -8.8860   -7.6220  -21.2140 C.3    81  PRO81       0.1504
    105  C         -8.3500   -8.9820  -21.6400 C.2    81  PRO81       0.2575
    106  O         -8.0380   -9.7940  -20.7750 O.2    81  PRO81      -0.2718
    107  CB       -10.4080   -7.6790  -21.0400 C.3    81  PRO81       0.0282
    108  CG       -10.9980   -6.7130  -22.0190 C.3    81  PRO81       0.0208
    109  CD        -9.9060   -5.8200  -22.5080 C.3    81  PRO81       0.0893
    110  N         -8.3280   -9.2660  -22.9420 N.am   82  VAL82      -0.1980
    111  CA        -7.7230  -10.4880  -23.4580 C.3    82  VAL82       0.1595
    112  C         -7.0140  -10.2080  -24.7850 C.2    82  VAL82       0.2287
    113  O         -7.3820   -9.2750  -25.5010 O.2    82  VAL82      -0.2864
    114  CB        -8.7830  -11.5820  -23.7380 C.3    82  VAL82       0.0276
    115  CG1       -9.6740  -11.7890  -22.5170 C.3    82  VAL82       0.0022
    116  CG2       -9.6170  -11.2120  -24.9860 C.3    82  VAL82       0.0022
    117  N         -6.4730  -10.4990  -28.5840 N.3    84  ILE84      -0.1245
    118  CA        -7.4920  -10.6460  -29.6220 C.3    84  ILE84       0.1561
    119  C         -6.8370  -10.7160  -30.9900 C.2    84  ILE84       0.2260
    120  O         -6.0650   -9.8090  -31.3580 O.2    84  ILE84      -0.2867
    121  CB        -8.4650   -9.4370  -29.5520 C.3    84  ILE84       0.0252
    122  CG1       -9.4120   -9.5950  -28.3660 C.3    84  ILE84       0.0019
    123  CG2       -9.1720   -9.2310  -30.8810 C.3    84  ILE84       0.0019
    124  CD1      -10.1320   -8.2930  -27.9910 C.3    84  ILE84       0.0001
    125  N         -9.8990   -9.4900  -37.5790 N.3    87  ARG87      -0.1245
    126  CA       -10.1840   -9.8480  -38.9660 C.3    87  ARG87       0.1563
    127  C         -8.9840   -9.5680  -39.8620 C.2    87  ARG87       0.2260
    128  O         -8.8490  -10.1870  -40.9320 O.2    87  ARG87      -0.2867
    129  CB       -11.3880   -9.0550  -39.4610 C.3    87  ARG87       0.0307
    130  CG       -12.6920   -9.5050  -38.8510 C.3    87  ARG87       0.0489
    131  CD       -13.9070   -8.8850  -39.5340 C.3    87  ARG87       0.2205
    132  NE       -13.9650   -7.4330  -39.3760 N.pl3  87  ARG87      -0.0865
    133  CZ       -13.5290   -6.5510  -40.2740 C.cat  87  ARG87       0.5346
    134  NH1      -13.0060   -6.9490  -41.4230 N.pl3  87  ARG87       0.1354
    135  NH2      -13.6300   -5.2560  -40.0360 N.pl3  87  ARG87       0.1354
@<TRIPOS>BOND
     1   134   133    1
     2   128   127    2
     3   133   135    1
     4   133   132    2
     5   127   126    1
     6   131   132    1
     7   131   130    1
     8   129   126    1
     9   129   130    1
    10   126   125    1
    11    40    39    2
    12    43    42   ar
    13    44    42   ar
    14    52    50   am
    15    42    41    1
    16    41    38    1
    17    39    38    1
    18    39    45   am
    19    38    37    1
    20    35    34    2
    21    50    51    2
    22    50    49    1
    23    45    46    1
    24    37    34   am
    25    46    49    1
    26    46    47    1
    27    34    33    1
    28    23    22    2
    29    47    48    2
    30    28    29    1
    31    32    33    1
    32    32    30   am
    33    22    21    1
    34    33    36    1
    35    29    30    1
    36    30    31    2
    37    20    21    1
    38    21    24    1
    39    24    25    1
    40    26    25    2
    41    74    72    1
    42    63    62    2
    43    25    27   am
    44   120   119    2
    45    53    54    1
    46   119   118    1
    47    15    14    2
    48   123   121    1
    49   101   102   ar
    50   101    99   ar
    51   102   100   ar
    52    60    61    1
    53    72    69    1
    54    72    73    1
    55    62    68   am
    56    62    61    1
    57    59    57    1
    58    14    13    1
    59    69    68    1
    60    69    70    1
    61    79    78    2
    62    76    70   am
    63    76    77    1
    64    54    57    1
    65    54    55    1
    66    61    64    1
    67    99    97   ar
    68   118   121    1
    69   118   117    1
    70    64    65    1
    71   121   122    1
    72   100    98   ar
    73    70    71    2
    74    77    78    1
    75    75    73    1
    76    78    80   am
    77    57    58    1
    78    13    12    1
    79    13    16    1
    80    55    56    2
    81    65    66    1
    82    97    98   ar
    83    97    96    1
    84   122   124    1
    85    80    81    1
    86    17    16    1
    87    17    18    1
    88    17    19    1
    89    81    82    1
    90     3     4    2
    91     3     2    1
    92    82    83    2
    93    82    84   am
    94    66    67    1
    95    96    93    1
    96    84    85    1
    97     2     1    1
    98     2     5    1
    99    89    91    1
   100    89    88    1
   101    93    92    1
   102    93    94    1
   103    85    88    1
   104    85    86    1
   105     5     6    1
   106   113   112    2
   107    88    90    1
   108    94    95    2
   109   116   114    1
   110     6     7    1
   111   112   111    1
   112    86    87    2
   113     7     8    1
   114   114   111    1
   115   114   115    1
   116   111   110    1
   117     8     9    2
   118   110   105   am
   119   109   103    1
   120   109   108    1
   121     9    10    1
   122     9    11    1
   123   103   104    1
   124   108   107    1
   125   105   104    1
   126   105   106    2
   127   104   107    1
