@<TRIPOS>MOLECULE
tmp/4obkA00.pdb
 105 98 0 0 0
SMALL
GASTEIGER

@<TRIPOS>ATOM
      1  N         21.6580   -5.4080    2.9970 N.3     8  ARG8       -0.1245
      2  CA        22.3780   -4.6520    4.0240 C.3     8  ARG8        0.1563
      3  C         23.4800   -3.7650    3.4450 C.2     8  ARG8        0.2260
      4  O         24.2570   -4.1990    2.5870 O.2     8  ARG8       -0.2867
      5  CB        23.0060   -5.5770    5.0600 C.3     8  ARG8        0.0307
      6  CG        22.0330   -6.3720    5.8640 C.3     8  ARG8        0.0489
      7  CD        22.7570   -7.2430    6.8770 C.3     8  ARG8        0.2205
      8  NE        21.7700   -7.8290    7.7560 N.pl3   8  ARG8       -0.0865
      9  CZ        22.0430   -8.5800    8.8130 C.cat   8  ARG8        0.5346
     10  NH1       23.2980   -8.9170    9.0830 N.pl3   8  ARG8        0.1354
     11  NH2       21.0450   -9.1160    9.4950 N.pl3   8  ARG8        0.1354
     12  N         28.6270   -2.3320    8.7200 N.3    23  LEU23      -0.1245
     13  CA        27.2990   -1.9220    8.2800 C.3    23  LEU23       0.1561
     14  C         27.0860   -0.4380    8.5110 C.2    23  LEU23       0.2260
     15  O         27.2690    0.0210    9.6320 O.2    23  LEU23      -0.2867
     16  CB        26.2770   -2.7090    9.1020 C.3    23  LEU23       0.0270
     17  CG        24.7890   -2.5010    8.9100 C.3    23  LEU23       0.0019
     18  CD1       24.4020   -3.0160    7.5590 C.3    23  LEU23       0.0001
     19  CD2       24.0520   -3.2700   10.0040 C.3    23  LEU23       0.0001
     20  N         24.9280    2.3680    9.5260 N.3    25  ASN25      -0.1240
     21  CA        23.7700    2.2170   10.4220 C.3    25  ASN25       0.1653
     22  C         23.2730    3.5460   10.9580 C.2    25  ASN25       0.2266
     23  O         23.7510    4.0390   11.9810 O.2    25  ASN25      -0.2867
     24  CB        24.1910    1.3260   11.5850 C.3    25  ASN25       0.1155
     25  CG        23.0640    0.9560   12.4950 C.2    25  ASN25       0.2627
     26  OD1       21.9190    1.3710   12.3510 O.2    25  ASN25      -0.2716
     27  ND2       23.3710    0.0230   13.3910 N.am   25  ASN25      -0.0877
     28  N         20.6930    3.9850   12.5370 N.3    27  GLY27      -0.1210
     29  CA        20.0020    3.7440   13.7930 C.3    27  GLY27       0.1956
     30  C         20.9340    3.5920   14.9680 C.2    27  GLY27       0.2612
     31  O         20.4740    3.2540   16.0640 O.2    27  GLY27      -0.2717
     32  N         22.2190    3.8640   14.7750 N.am   28  ALA28      -0.1965
     33  CA        23.1740    3.7860   15.8570 C.3    28  ALA28       0.1728
     34  C         23.7630    5.1520   16.1500 C.2    28  ALA28       0.2616
     35  O         24.2410    5.8230   15.2470 O.2    28  ALA28      -0.2715
     36  CB        24.2650    2.8220   15.5050 C.3    28  ALA28       0.0334
     37  N         23.7790    5.5490   17.4010 N.am   29  ASP29      -0.1957
     38  CA        24.4370    6.7980   17.7800 C.3    29  ASP29       0.1840
     39  C         25.9350    6.6940   17.5370 C.2    29  ASP29       0.2622
     40  O         26.5910    7.7040   17.1710 O.2    29  ASP29      -0.2715
     41  CB        24.2160    7.0830   19.2610 C.3    29  ASP29       0.1450
     42  CG        22.7590    7.3570   19.6300 C.2    29  ASP29       0.3671
     43  OD1       21.9230    7.6770   18.7580 O.co2  29  ASP29      -0.2456
     44  OD2       22.4480    7.2870   20.8460 O.co2  29  ASP29      -0.2456
     45  N         26.4800    5.5130   17.8180 N.am   30  ASP30      -0.1971
     46  CA        27.9210    5.3070   17.9660 C.3    30  ASP30       0.1709
     47  C         28.3730    4.1770   17.0430 C.2    30  ASP30       0.2293
     48  O         27.5680    3.3780   16.5560 O.2    30  ASP30      -0.2864
     49  CB        28.2350    4.9170   19.4170 C.3    30  ASP30       0.1436
     50  CG        27.7170    5.9250   20.4310 C.2    30  ASP30       0.3671
     51  OD1       28.0160    7.1400   20.2860 O.co2  30  ASP30      -0.2456
     52  OD2       27.0110    5.5250   21.3950 O.co2  30  ASP30      -0.2456
     53  N         30.4240    0.7330   16.6280 N.3    32  VAL32      -0.1245
     54  CA        30.6930   -0.4110   17.5080 C.3    32  VAL32       0.1561
     55  C         31.2930   -1.5370   16.6650 C.2    32  VAL32       0.2260
     56  O         30.6610   -2.0070   15.6950 O.2    32  VAL32      -0.2867
     57  CB        29.4110   -0.9000   18.2490 C.3    32  VAL32       0.0252
     58  CG1       29.8320   -1.9060   19.3040 C.3    32  VAL32       0.0019
     59  CG2       28.6080    0.2900   18.7960 C.3    32  VAL32       0.0019
     60  N         26.5100    0.4880   26.4310 N.3    47  ILE47      -0.1231
     61  CA        25.6200    0.9870   25.4090 C.3    47  ILE47       0.1692
     62  C         24.4180    0.0780   25.3180 C.2    47  ILE47       0.2593
     63  O         24.4960   -1.0610   25.7530 O.2    47  ILE47      -0.2718
     64  CB        26.2860    1.0520   24.0140 C.3    47  ILE47       0.0266
     65  CG1       26.8260   -0.3240   23.6380 C.3    47  ILE47       0.0019
     66  CG2       27.3220    2.1760   23.9780 C.3    47  ILE47       0.0020
     67  CD1       27.1870   -0.4690   22.1920 C.3    47  ILE47       0.0001
     68  N         23.3330    0.5800   24.7440 N.am   48  GLY48      -0.1942
     69  CA        22.0710   -0.1820   24.6430 C.3    48  GLY48       0.2014
     70  C         21.7610   -0.5170   23.2050 C.2    48  GLY48       0.2639
     71  O         22.1560    0.2100   22.2820 O.2    48  GLY48      -0.2714
     72  N         21.0320   -1.6020   22.9860 N.am   49  GLY49      -0.1939
     73  CA        20.5110   -1.9110   21.6660 C.3    49  GLY49       0.2014
     74  C         19.1240   -2.4770   21.8050 C.2    49  GLY49       0.2638
     75  O         18.4810   -2.3080   22.8320 O.2    49  GLY49      -0.2714
     76  N         18.7020   -3.2050   20.7780 N.am   50  ILE50      -0.1977
     77  CA        17.3550   -3.7150   20.7110 C.3    50  ILE50       0.1596
     78  C         17.1010   -4.6980   21.8370 C.2    50  ILE50       0.2287
     79  O         15.9780   -4.7520   22.3290 O.2    50  ILE50      -0.2864
     80  CB        17.0950   -4.3350   19.3170 C.3    50  ILE50       0.0276
     81  CG1       15.6120   -4.5150   19.0210 C.3    50  ILE50       0.0022
     82  CG2       17.7590   -5.6730   19.1250 C.3    50  ILE50       0.0022
     83  CD1       14.8860   -3.2030   19.0270 C.3    50  ILE50       0.0001
     84  N         26.9420   -8.0870   17.3000 N.3    81  PRO81      -0.2102
     85  CA        26.9110   -9.1680   16.2980 C.3    81  PRO81       0.1504
     86  C         27.5820   -8.8730   14.9650 C.2    81  PRO81       0.2575
     87  O         27.9080   -9.7740   14.1950 O.2    81  PRO81      -0.2718
     88  CB        25.4180   -9.4050   16.0430 C.3    81  PRO81       0.0282
     89  CG        24.7400   -8.8110   17.2180 C.3    81  PRO81       0.0208
     90  CD        25.5760   -7.6380   17.6330 C.3    81  PRO81       0.0893
     91  N         27.6900   -7.6000   14.6290 N.am   82  VAL82      -0.1980
     92  CA        28.2390   -7.1830   13.3520 C.3    82  VAL82       0.1595
     93  C         28.9500   -5.8480   13.5920 C.2    82  VAL82       0.2287
     94  O         28.5620   -5.0550   14.4640 O.2    82  VAL82      -0.2864
     95  CB        27.1740   -6.9400   12.2500 C.3    82  VAL82       0.0276
     96  CG1       26.4110   -8.2110   11.9130 C.3    82  VAL82       0.0022
     97  CG2       26.2380   -5.8200   12.6080 C.3    82  VAL82       0.0022
     98  N         29.4940   -2.1090   13.1740 N.3    84  ILE84      -0.1245
     99  CA        28.4990   -1.0800   12.8930 C.3    84  ILE84       0.1561
    100  C         29.1630    0.2990   12.8090 C.2    84  ILE84       0.2260
    101  O         29.8690    0.6840   13.7260 O.2    84  ILE84      -0.2867
    102  CB        27.4440   -1.0310   14.0350 C.3    84  ILE84       0.0252
    103  CG1       26.5430   -2.2650   13.9400 C.3    84  ILE84       0.0019
    104  CG2       26.6580    0.2690   14.0200 C.3    84  ILE84       0.0019
    105  CD1       25.9440   -2.6560   15.2640 C.3    84  ILE84       0.0001
@<TRIPOS>BOND
     1     4     3    2
     2     1     2    1
     3     3     2    1
     4     2     5    1
     5     5     6    1
     6     6     7    1
     7     7     8    1
     8    18    17    1
     9     8     9    2
    10    13    14    1
    11    13    12    1
    12    13    16    1
    13    14    15    2
    14     9    10    1
    15     9    11    1
    16    17    16    1
    17    17    19    1
    18    20    21    1
    19    21    22    1
    20    21    24    1
    21    22    23    2
    22    24    25    1
    23    96    95    1
    24    95    97    1
    25    95    92    1
    26    26    25    2
    27    25    27   am
    28    28    29    1
    29   100    99    1
    30   100   101    2
    31    99    98    1
    32    99   102    1
    33    92    93    1
    34    92    91    1
    35    93    94    2
    36    29    30    1
    37   103   102    1
    38   103   105    1
    39   104   102    1
    40    87    86    2
    41    91    86   am
    42    32    30   am
    43    32    33    1
    44    86    85    1
    45    30    31    2
    46    35    34    2
    47    36    33    1
    48    56    55    2
    49    33    34    1
    50    88    85    1
    51    88    89    1
    52    34    37   am
    53    85    84    1
    54    48    47    2
    55    53    54    1
    56    55    54    1
    57    47    46    1
    58    40    39    2
    59    89    90    1
    60    84    90    1
    61    37    38    1
    62    54    57    1
    63    39    38    1
    64    39    45   am
    65    38    41    1
    66    45    46    1
    67    46    49    1
    68    57    59    1
    69    57    58    1
    70    43    42   ar
    71    81    83    1
    72    81    80    1
    73    82    80    1
    74    41    42    1
    75    80    77    1
    76    49    50    1
    77    42    44   ar
    78    51    50   ar
    79    50    52   ar
    80    77    76    1
    81    77    78    1
    82    76    74   am
    83    73    74    1
    84    73    72    1
    85    74    75    2
    86    78    79    2
    87    67    65    1
    88    71    70    2
    89    72    70   am
    90    70    69    1
    91    65    64    1
    92    66    64    1
    93    64    61    1
    94    69    68    1
    95    68    62   am
    96    62    61    1
    97    62    63    2
    98    61    60    1
