@<TRIPOS>MOLECULE
tmp/4obmA00.pdb
 132 123 0 0 0
SMALL
GASTEIGER

@<TRIPOS>ATOM
      1  N         57.4970   56.7730   27.4630 N.3    22  ASP22      -0.1225
      2  CA        58.8890   56.8650   27.9380 C.3    22  ASP22       0.1805
      3  C         59.0300   57.9500   29.0230 C.2    22  ASP22       0.2598
      4  O         58.4110   59.0110   28.9220 O.2    22  ASP22      -0.2718
      5  CB        59.8620   57.1840   26.7820 C.3    22  ASP22       0.1424
      6  CG        60.0510   56.1400   25.6960 C.2    22  ASP22       0.3668
      7  OD1       59.3800   55.0870   25.7550 O.co2  22  ASP22      -0.2456
      8  OD2       60.8710   56.3810   24.7800 O.co2  22  ASP22      -0.2456
      9  N         59.8340   57.6850   30.0460 N.am   23  PHE23      -0.1962
     10  CA        60.0530   58.6840   31.0840 C.3    23  PHE23       0.1771
     11  C         61.4000   58.4950   31.7660 C.2    23  PHE23       0.2620
     12  O         61.9720   57.3950   31.7500 O.2    23  PHE23      -0.2715
     13  CB        58.9170   58.6790   32.1230 C.3    23  PHE23       0.0574
     14  CG        58.8370   57.4630   33.0220 C.ar   23  PHE23      -0.0200
     15  CD1       58.0500   56.3700   32.6730 C.ar   23  PHE23      -0.0042
     16  CD2       59.5020   57.4360   34.2450 C.ar   23  PHE23      -0.0042
     17  CE1       57.9530   55.2600   33.5230 C.ar   23  PHE23      -0.0003
     18  CE2       59.4140   56.3230   35.0800 C.ar   23  PHE23      -0.0003
     19  CZ        58.6340   55.2480   34.7190 C.ar   23  PHE23      -0.0000
     20  N         61.8850   59.5700   32.3860 N.am   24  SER24      -0.1936
     21  CA        63.0890   59.5640   33.2020 C.3    24  SER24       0.2055
     22  C         62.7970   60.1920   34.5510 C.2    24  SER24       0.2642
     23  O         61.9520   61.0850   34.6530 O.2    24  SER24      -0.2714
     24  CB        64.2400   60.2780   32.5120 C.3    24  SER24       0.2130
     25  OG        64.8460   59.4420   31.5410 O.3    24  SER24      -0.2179
     26  N         63.4570   59.6600   35.5950 N.am   25  VAL25      -0.1977
     27  CA        63.3700   60.0910   36.9940 C.3    25  VAL25       0.1596
     28  C         64.7720   60.1350   37.5580 C.2    25  VAL25       0.2287
     29  O         65.5170   59.1470   37.4650 O.2    25  VAL25      -0.2864
     30  CB        62.4520   59.1890   37.8820 C.3    25  VAL25       0.0276
     31  CG1       62.4370   59.6600   39.3500 C.3    25  VAL25       0.0022
     32  CG2       61.0280   59.0930   37.3270 C.3    25  VAL25       0.0022
     33  N         66.8040   56.8730   36.1260 N.3    41  ILE41      -0.1245
     34  CA        66.1010   55.6690   35.7110 C.3    41  ILE41       0.1561
     35  C         65.2690   56.0920   34.5300 C.2    41  ILE41       0.2260
     36  O         64.4320   56.9860   34.6590 O.2    41  ILE41      -0.2867
     37  CB        65.3190   54.9190   36.8280 C.3    41  ILE41       0.0252
     38  CG1       64.7100   53.5990   36.2970 C.3    41  ILE41       0.0019
     39  CG2       64.3130   55.8050   37.5950 C.3    41  ILE41       0.0019
     40  CD1       64.2020   52.6400   37.3480 C.3    41  ILE41       0.0001
     41  N         64.5730   63.8800   28.7620 N.3    89  SER89      -0.1217
     42  CA        63.6250   64.8700   29.2610 C.3    89  SER89       0.1889
     43  C         63.3290   64.5390   30.7450 C.2    89  SER89       0.2288
     44  O         62.2890   63.9510   31.0510 O.2    89  SER89      -0.2866
     45  CB        62.3660   64.8530   28.3940 C.3    89  SER89       0.2089
     46  OG        61.3470   65.6900   28.9110 O.3    89  SER89      -0.2183
     47  N         62.4590   65.6660   34.4120 N.3    91  ASN91      -0.1225
     48  CA        61.8120   66.7400   35.1760 C.3    91  ASN91       0.1785
     49  C         61.4920   66.2620   36.5910 C.2    91  ASN91       0.2597
     50  O         61.4500   67.0660   37.5250 O.2    91  ASN91      -0.2718
     51  CB        60.5060   67.2040   34.4840 C.3    91  ASN91       0.1169
     52  CG        60.5660   67.3900   32.9780 C.2    91  ASN91       0.2627
     53  OD1       59.7540   66.8300   32.2300 O.2    91  ASN91      -0.2716
     54  ND2       61.4900   68.2180   32.4940 N.am   91  ASN91      -0.0877
     55  N         61.2180   64.9460   36.7340 N.am   92  LYS92      -0.1980
     56  CA        60.8280   64.3540   38.0030 C.3    92  LYS92       0.1596
     57  C         61.9920   63.7340   38.7350 C.2    92  LYS92       0.2287
     58  O         62.9650   63.2460   38.1380 O.2    92  LYS92      -0.2864
     59  CB        59.6920   63.3330   37.8300 C.3    92  LYS92       0.0298
     60  CG        58.3810   63.9070   37.2710 C.3    92  LYS92       0.0038
     61  CD        57.8820   65.1680   38.0080 C.3    92  LYS92       0.0206
     62  CE        56.6180   65.6980   37.3750 C.3    92  LYS92       0.1093
     63  NZ        55.9620   66.7150   38.2250 N.3    92  LYS92      -0.1314
     64  N         63.1760   61.8440   42.8680 N.3    94  ILE94      -0.1245
     65  CA        62.8720   61.3120   44.1980 C.3    94  ILE94       0.1561
     66  C         64.1330   61.4480   45.0540 C.2    94  ILE94       0.2260
     67  O         65.1570   60.8630   44.7150 O.2    94  ILE94      -0.2867
     68  CB        62.3340   59.8350   44.2460 C.3    94  ILE94       0.0252
     69  CG1       61.1400   59.5920   43.2890 C.3    94  ILE94       0.0019
     70  CG2       61.9830   59.4290   45.7140 C.3    94  ILE94       0.0019
     71  CD1       60.9000   58.1280   42.9970 C.3    94  ILE94       0.0001
     72  N         53.8250   53.4980   45.0200 N.3   187  ILE187     -0.1245
     73  CA        53.6490   54.8960   44.6640 C.3   187  ILE187      0.1561
     74  C         52.9460   55.6940   45.7710 C.2   187  ILE187      0.2260
     75  O         53.2620   56.8770   45.9390 O.2   187  ILE187     -0.2867
     76  CB        52.9530   55.0800   43.2900 C.3   187  ILE187      0.0252
     77  CG1       53.3460   56.4380   42.6690 C.3   187  ILE187      0.0019
     78  CG2       51.4430   54.8910   43.3520 C.3   187  ILE187      0.0019
     79  CD1       54.8510   56.5510   42.2900 C.3   187  ILE187      0.0001
     80  N         55.8560   56.5550   47.9360 N.3   190  ILE190     -0.1245
     81  CA        56.7310   57.5410   47.2900 C.3   190  ILE190      0.1561
     82  C         56.1370   58.9660   47.4170 C.2   190  ILE190      0.2260
     83  O         56.8170   59.8670   47.9010 O.2   190  ILE190     -0.2867
     84  CB        56.9940   57.1600   45.7970 C.3   190  ILE190      0.0252
     85  CG1       57.8050   55.8360   45.6360 C.3   190  ILE190      0.0019
     86  CG2       57.5560   58.3360   44.9590 C.3   190  ILE190      0.0019
     87  CD1       59.2190   55.7340   46.3540 C.3   190  ILE190      0.0001
     88  N         56.9120   64.0880   42.0080 N.3   198  ILE198     -0.1245
     89  CA        56.0760   63.1250   41.2850 C.3   198  ILE198      0.1561
     90  C         54.6620   63.2670   41.8470 C.2   198  ILE198      0.2260
     91  O         54.4430   63.1090   43.0500 O.2   198  ILE198     -0.2867
     92  CB        56.6230   61.6560   41.3620 C.3   198  ILE198      0.0252
     93  CG1       57.9110   61.4910   40.5330 C.3   198  ILE198      0.0019
     94  CG2       55.5590   60.6080   40.9470 C.3   198  ILE198      0.0019
     95  CD1       58.5090   60.1040   40.5370 C.3   198  ILE198      0.0001
     96  N         51.1410   61.8380   37.2460 N.3   202  ASP202     -0.1225
     97  CA        52.3690   61.3510   36.5780 C.3   202  ASP202      0.1805
     98  C         52.4110   59.8380   36.5680 C.2   202  ASP202      0.2597
     99  O         52.6880   59.2360   35.5250 O.2   202  ASP202     -0.2718
    100  CB        53.6320   61.8990   37.2650 C.3   202  ASP202      0.1424
    101  CG        53.6950   63.4050   37.3100 C.2   202  ASP202      0.3668
    102  OD1       53.4580   64.0330   36.2650 O.co2 202  ASP202     -0.2456
    103  OD2       53.9760   63.9560   38.4020 O.co2 202  ASP202     -0.2456
    104  N         52.1220   59.2270   37.7310 N.am  203  TYR203     -0.1976
    105  CA        52.0420   57.7760   37.8780 C.3   203  TYR203      0.1639
    106  C         50.8620   57.1980   37.0560 C.2   203  TYR203      0.2290
    107  O         51.0780   56.2210   36.3360 O.2   203  TYR203     -0.2864
    108  CB        51.9200   57.3810   39.3690 C.3   203  TYR203      0.0560
    109  CG        51.5350   55.9320   39.6020 C.ar  203  TYR203     -0.0198
    110  CD1       52.4990   54.9250   39.6180 C.ar  203  TYR203     -0.0009
    111  CD2       50.2130   55.5750   39.8700 C.ar  203  TYR203     -0.0009
    112  CE1       52.1540   53.5980   39.8790 C.ar  203  TYR203      0.0417
    113  CE2       49.8560   54.2510   40.1100 C.ar  203  TYR203      0.0417
    114  CZ        50.8330   53.2700   40.1390 C.ar  203  TYR203      0.1957
    115  OH        50.4790   51.9660   40.3880 O.3   203  TYR203     -0.2866
    116  N         51.3630   56.6500   33.3800 N.3   206  LYS206     -0.1245
    117  CA        52.4480   55.7150   33.0370 C.3   206  LYS206      0.1561
    118  C         52.2500   54.2850   33.5160 C.2   206  LYS206      0.2260
    119  O         52.7300   53.3800   32.8380 O.2   206  LYS206     -0.2867
    120  CB        53.8030   56.2310   33.5810 C.3   206  LYS206      0.0271
    121  CG        54.2340   57.6030   33.0430 C.3   206  LYS206      0.0035
    122  CD        54.7030   57.5990   31.5840 C.3   206  LYS206      0.0206
    123  CE        54.1530   58.7800   30.8250 C.3   206  LYS206      0.1093
    124  NZ        55.1970   59.4890   30.0470 N.3   206  LYS206     -0.1314
    125  N         54.0440   50.5900   32.5590 N.3   210  ILE210     -0.1245
    126  CA        54.8860   49.9460   33.5750 C.3   210  ILE210      0.1561
    127  C         54.3890   48.5020   33.7980 C.2   210  ILE210      0.2260
    128  O         55.1700   47.5730   33.6130 O.2   210  ILE210     -0.2867
    129  CB        54.9470   50.7680   34.9000 C.3   210  ILE210      0.0252
    130  CG1       55.5280   52.1770   34.6680 C.3   210  ILE210      0.0019
    131  CG2       55.7390   50.0150   35.9840 C.3   210  ILE210      0.0019
    132  CD1       55.3130   53.1950   35.8300 C.3   210  ILE210      0.0001
@<TRIPOS>BOND
     1     8     6   ar
     2     6     7   ar
     3     6     5    1
     4     5     2    1
     5     1     2    1
     6     2     3    1
     7    45    46    1
     8    45    42    1
     9    41    42    1
    10     4     3    2
    11     3     9   am
    12    42    43    1
    13     9    10    1
    14   124   123    1
    15    43    44    2
    16   123   122    1
    17    10    11    1
    18    10    13    1
    19    25    24    1
    20   122   121    1
    21    12    11    2
    22    11    20   am
    23    13    14    1
    24    53    52    2
    25    20    21    1
    26    54    52   am
    27    24    21    1
    28   125   126    1
    29    15    14   ar
    30    15    17   ar
    31   119   118    2
    32    52    51    1
    33    14    16   ar
    34   117   116    1
    35   117   118    1
    36   117   120    1
    37   121   120    1
    38    21    22    1
    39    17    19   ar
    40   126   127    1
    41   126   129    1
    42   128   127    2
    43    16    18   ar
    44    47    48    1
    45    51    48    1
    46    35    36    2
    47    35    34    1
    48    22    23    2
    49    22    26   am
    50   130   129    1
    51   130   132    1
    52    19    18   ar
    53   129   131    1
    54    48    49    1
    55    99    98    2
    56    26    27    1
    57    34    33    1
    58    34    37    1
    59   102   101   ar
    60    38    37    1
    61    38    40    1
    62   107   106    2
    63    98    97    1
    64    98   104   am
    65    97    96    1
    66    97   100    1
    67    49    55   am
    68    49    50    2
    69    55    56    1
    70    37    39    1
    71    27    28    1
    72    27    30    1
    73   106   105    1
    74   100   101    1
    75    60    59    1
    76    60    61    1
    77   101   103   ar
    78    32    30    1
    79    62    61    1
    80    62    63    1
    81    29    28    2
    82   104   105    1
    83    59    56    1
    84   105   108    1
    85    30    31    1
    86    56    57    1
    87    58    57    2
    88   108   109    1
    89   109   110   ar
    90   109   111   ar
    91   110   112   ar
    92   111   113   ar
    93   112   114   ar
    94   113   114   ar
    95   114   115    1
    96    93    95    1
    97    93    92    1
    98    94    92    1
    99    89    92    1
   100    89    90    1
   101    89    88    1
   102    90    91    2
   103    79    77    1
   104    77    76    1
   105    64    65    1
   106    71    69    1
   107    69    68    1
   108    76    78    1
   109    76    73    1
   110    65    68    1
   111    65    66    1
   112    68    70    1
   113    73    72    1
   114    73    74    1
   115    67    66    2
   116    86    84    1
   117    85    84    1
   118    85    87    1
   119    74    75    2
   120    84    81    1
   121    81    82    1
   122    81    80    1
   123    82    83    2
