@<TRIPOS>MOLECULE
tmp/4obmA01.pdb
 207 197 0 0 0
SMALL
GASTEIGER

@<TRIPOS>ATOM
      1  N         67.9520   60.2140   44.0260 N.3    27  THR27      -0.1203
      2  CA        69.0830   60.6290   44.8510 C.3    27  THR27       0.1994
      3  C         68.9020   60.0900   46.2710 C.2    27  THR27       0.2617
      4  O         67.7830   59.7970   46.6840 O.2    27  THR27      -0.2717
      5  CB        69.2630   62.1770   44.8320 C.3    27  THR27       0.1784
      6  OG1       68.3180   62.8010   45.7000 O.3    27  THR27      -0.2211
      7  CG2       69.1740   62.7840   43.4300 C.3    27  THR27       0.0376
      8  N         69.9980   59.9680   47.0070 N.am   28  LEU28      -0.1979
      9  CA        69.9500   59.4560   48.3580 C.3    28  LEU28       0.1596
     10  C         70.7930   60.3120   49.2810 C.2    28  LEU28       0.2287
     11  O         71.9470   60.6090   48.9780 O.2    28  LEU28      -0.2864
     12  CB        70.4240   57.9830   48.3900 C.3    28  LEU28       0.0297
     13  CG        70.6530   57.3480   49.7720 C.3    28  LEU28       0.0022
     14  CD1       69.3320   57.1910   50.5540 C.3    28  LEU28       0.0001
     15  CD2       71.3940   56.0520   49.6560 C.3    28  LEU28       0.0001
     16  N         74.3140   60.1530   46.6600 N.3    38  LYS38      -0.1231
     17  CA        74.1880   59.2410   45.5080 C.3    38  LYS38       0.1693
     18  C         73.2000   59.7680   44.5110 C.2    38  LYS38       0.2592
     19  O         72.2390   60.4440   44.8810 O.2    38  LYS38      -0.2718
     20  CB        73.8480   57.8140   45.9390 C.3    38  LYS38       0.0285
     21  CG        75.0790   57.1460   46.5230 C.3    38  LYS38       0.0035
     22  CD        74.8230   55.7640   47.0400 C.3    38  LYS38       0.0206
     23  CE        75.9420   55.3270   47.9600 C.3    38  LYS38       0.1093
     24  NZ        77.2700   55.2840   47.2810 N.3    38  LYS38      -0.1314
     25  N         73.5070   59.5600   43.2330 N.am   39  TYR39      -0.1976
     26  CA        72.7360   60.1050   42.1110 C.3    39  TYR39       0.1639
     27  C         72.6100   59.0540   41.0390 C.2    39  TYR39       0.2290
     28  O         73.5900   58.4120   40.6920 O.2    39  TYR39      -0.2864
     29  CB        73.4110   61.3830   41.5530 C.3    39  TYR39       0.0560
     30  CG        73.5490   62.4910   42.5750 C.ar   39  TYR39      -0.0198
     31  CD1       74.6490   62.5490   43.4270 C.ar   39  TYR39      -0.0009
     32  CD2       72.5510   63.4470   42.7330 C.ar   39  TYR39      -0.0009
     33  CE1       74.7440   63.5180   44.4240 C.ar   39  TYR39       0.0417
     34  CE2       72.6480   64.4400   43.7100 C.ar   39  TYR39       0.0417
     35  CZ        73.7510   64.4720   44.5510 C.ar   39  TYR39       0.1957
     36  OH        73.8460   65.4240   45.5290 O.3    39  TYR39      -0.2866
     37  N         66.8040   56.8730   36.1260 N.3    41  ILE41      -0.1245
     38  CA        66.1010   55.6690   35.7110 C.3    41  ILE41       0.1561
     39  C         65.2690   56.0920   34.5300 C.2    41  ILE41       0.2260
     40  O         64.4320   56.9860   34.6590 O.2    41  ILE41      -0.2867
     41  CB        65.3190   54.9190   36.8280 C.3    41  ILE41       0.0252
     42  CG1       64.7100   53.5990   36.2970 C.3    41  ILE41       0.0019
     43  CG2       64.3130   55.8050   37.5950 C.3    41  ILE41       0.0019
     44  CD1       64.2020   52.6400   37.3480 C.3    41  ILE41       0.0001
     45  N         69.4080   52.3460   33.9730 N.3    52  LEU52      -0.1245
     46  CA        69.9240   53.0950   35.1190 C.3    52  LEU52       0.1561
     47  C         71.2480   53.7290   34.7650 C.2    52  LEU52       0.2260
     48  O         72.0480   53.1030   34.0890 O.2    52  LEU52      -0.2867
     49  CB        70.0920   52.2120   36.3710 C.3    52  LEU52       0.0270
     50  CG        68.8780   51.4020   36.8460 C.3    52  LEU52       0.0019
     51  CD1       69.3260   50.1620   37.5990 C.3    52  LEU52       0.0001
     52  CD2       67.9720   52.2460   37.7270 C.3    52  LEU52       0.0001
     53  N         74.1650   55.7450   36.9860 N.3    53  PRO53      -0.2116
     54  CA        74.6240   56.3590   38.2300 C.3    53  PRO53       0.1372
     55  C         75.7390   57.3800   37.9550 C.2    53  PRO53       0.2244
     56  O         76.3910   57.3470   36.9160 O.2    53  PRO53      -0.2868
     57  CB        75.1200   55.1540   39.0410 C.3    53  PRO53       0.0268
     58  CG        75.6360   54.2120   37.9970 C.3    53  PRO53       0.0207
     59  CD        74.9360   54.5120   36.6870 C.3    53  PRO53       0.0892
     60  N         63.1760   61.8440   42.8680 N.3    94  ILE94      -0.1245
     61  CA        62.8720   61.3120   44.1980 C.3    94  ILE94       0.1561
     62  C         64.1330   61.4480   45.0540 C.2    94  ILE94       0.2260
     63  O         65.1570   60.8630   44.7150 O.2    94  ILE94      -0.2867
     64  CB        62.3340   59.8350   44.2460 C.3    94  ILE94       0.0252
     65  CG1       61.1400   59.5920   43.2890 C.3    94  ILE94       0.0019
     66  CG2       61.9830   59.4290   45.7140 C.3    94  ILE94       0.0019
     67  CD1       60.9000   58.1280   42.9970 C.3    94  ILE94       0.0001
     68  N         65.5790   60.2090   48.3160 N.3    96  PHE96      -0.1241
     69  CA        65.4100   59.2610   49.4060 C.3    96  PHE96       0.1605
     70  C         66.2760   59.6670   50.5620 C.2    96  PHE96       0.2264
     71  O         67.2360   60.4020   50.3700 O.2    96  PHE96      -0.2867
     72  CB        65.8120   57.8380   48.9560 C.3    96  PHE96       0.0534
     73  CG        64.8730   57.1880   47.9740 C.ar   96  PHE96      -0.0203
     74  CD1       63.6950   56.5850   48.4070 C.ar   96  PHE96      -0.0042
     75  CD2       65.1830   57.1430   46.6170 C.ar   96  PHE96      -0.0042
     76  CE1       62.8210   55.9930   47.4960 C.ar   96  PHE96      -0.0003
     77  CE2       64.3100   56.5420   45.7070 C.ar   96  PHE96      -0.0003
     78  CZ        63.1390   55.9670   46.1530 C.ar   96  PHE96      -0.0000
     79  N         64.4400   55.0500   51.8850 N.3   101  LEU101     -0.1245
     80  CA        64.9620   54.0120   50.9830 C.3   101  LEU101      0.1561
     81  C         64.8900   52.5980   51.6370 C.2   101  LEU101      0.2260
     82  O         64.5520   51.6340   50.9560 O.2   101  LEU101     -0.2867
     83  CB        66.4140   54.3190   50.5370 C.3   101  LEU101      0.0270
     84  CG        66.9640   53.4580   49.3620 C.3   101  LEU101      0.0019
     85  CD1       65.9110   53.2600   48.2170 C.3   101  LEU101      0.0001
     86  CD2       68.2530   54.0310   48.8050 C.3   101  LEU101      0.0001
     87  N         61.3230   51.5540   51.5990 N.3   104  LEU104     -0.1231
     88  CA        60.9410   51.1100   50.2480 C.3   104  LEU104      0.1693
     89  C         61.3450   49.6490   50.0540 C.2   104  LEU104      0.2592
     90  O         60.4860   48.8500   49.7210 O.2   104  LEU104     -0.2718
     91  CB        61.5390   51.9980   49.1370 C.3   104  LEU104      0.0284
     92  CG        61.3500   51.5320   47.6670 C.3   104  LEU104      0.0019
     93  CD1       59.9560   51.8150   47.1580 C.3   104  LEU104      0.0001
     94  CD2       62.3000   52.2350   46.7650 C.3   104  LEU104      0.0001
     95  N         62.6200   49.2920   50.3220 N.am  105  PHE105     -0.1976
     96  CA        63.1440   47.9260   50.1900 C.3   105  PHE105      0.1639
     97  C         62.3820   46.9230   51.0710 C.2   105  PHE105      0.2290
     98  O         62.1650   45.7920   50.6570 O.2   105  PHE105     -0.2864
     99  CB        64.6400   47.8700   50.5870 C.3   105  PHE105      0.0560
    100  CG        65.6830   48.6060   49.7720 C.ar  105  PHE105     -0.0200
    101  CD1       65.6210   48.6250   48.3830 C.ar  105  PHE105     -0.0042
    102  CD2       66.7930   49.1740   50.3890 C.ar  105  PHE105     -0.0042
    103  CE1       66.6030   49.2740   47.6340 C.ar  105  PHE105     -0.0003
    104  CE2       67.7910   49.7970   49.6380 C.ar  105  PHE105     -0.0003
    105  CZ        67.6890   49.8460   48.2670 C.ar  105  PHE105     -0.0000
    106  N         74.8630   48.8240   49.8680 N.3   146  LEU146     -0.1245
    107  CA        74.7110   49.8230   48.8260 C.3   146  LEU146      0.1561
    108  C         75.4380   51.1500   49.1210 C.2   146  LEU146      0.2260
    109  O         75.8380   51.8480   48.1760 O.2   146  LEU146     -0.2867
    110  CB        73.2070   50.0750   48.6570 C.3   146  LEU146      0.0270
    111  CG        72.7180   50.6210   47.3150 C.3   146  LEU146      0.0019
    112  CD1       72.9440   49.6230   46.1840 C.3   146  LEU146      0.0001
    113  CD2       71.2340   51.0160   47.4010 C.3   146  LEU146      0.0001
    114  N         75.9540   49.9120   42.8290 N.3   163  ASN163     -0.1240
    115  CA        74.6170   50.4610   42.9400 C.3   163  ASN163      0.1653
    116  C         73.7750   50.1290   41.6960 C.2   163  ASN163      0.2266
    117  O         72.6420   49.6540   41.8500 O.2   163  ASN163     -0.2867
    118  CB        74.6850   51.9610   43.2010 C.3   163  ASN163      0.1155
    119  CG        74.8060   52.3170   44.6670 C.2   163  ASN163      0.2627
    120  OD1       73.9490   52.9980   45.2180 O.2   163  ASN163     -0.2716
    121  ND2       75.8300   51.8160   45.3580 N.am  163  ASN163     -0.0877
    122  N         70.6110   47.5770   42.3090 N.3   167  ILE167     -0.1245
    123  CA        69.2930   48.1670   42.0350 C.3   167  ILE167      0.1561
    124  C         68.6270   47.4400   40.8490 C.2   167  ILE167      0.2260
    125  O         67.4080   47.2210   40.8970 O.2   167  ILE167     -0.2867
    126  CB        69.3570   49.7320   41.8720 C.3   167  ILE167      0.0252
    127  CG1       69.7660   50.4200   43.2030 C.3   167  ILE167      0.0019
    128  CG2       68.0540   50.3500   41.3070 C.3   167  ILE167      0.0019
    129  CD1       68.9600   50.0230   44.5040 C.3   167  ILE167      0.0001
    130  N         67.2640   44.2480   42.2760 N.3   170  PHE170     -0.1227
    131  CA        66.0920   44.6110   43.0980 C.3   170  PHE170      0.1736
    132  C         64.8250   44.8080   42.2370 C.2   170  PHE170      0.2595
    133  O         63.7510   44.3470   42.6240 O.2   170  PHE170     -0.2718
    134  CB        66.3920   45.8920   43.9230 C.3   170  PHE170      0.0547
    135  CG        65.2050   46.4680   44.6630 C.ar  170  PHE170     -0.0202
    136  CD1       64.6520   45.8020   45.7550 C.ar  170  PHE170     -0.0042
    137  CD2       64.6350   47.6730   44.2640 C.ar  170  PHE170     -0.0042
    138  CE1       63.5360   46.3240   46.4220 C.ar  170  PHE170     -0.0003
    139  CE2       63.5150   48.1840   44.9250 C.ar  170  PHE170     -0.0003
    140  CZ        62.9800   47.5130   46.0060 C.ar  170  PHE170     -0.0000
    141  N         64.9640   45.4740   41.0680 N.am  171  ILE171     -0.1980
    142  CA        63.8600   45.7380   40.1410 C.3   171  ILE171      0.1595
    143  C         63.4180   44.4320   39.4520 C.2   171  ILE171      0.2287
    144  O         62.2230   44.1830   39.3420 O.2   171  ILE171     -0.2864
    145  CB        64.2040   46.8560   39.1110 C.3   171  ILE171      0.0276
    146  CG1       64.3330   48.2380   39.8170 C.3   171  ILE171      0.0022
    147  CG2       63.1520   46.9180   37.9720 C.3   171  ILE171      0.0022
    148  CD1       65.1170   49.3260   39.0320 C.3   171  ILE171      0.0001
    149  N         59.8740   43.3480   40.8530 N.3   175  PHE175     -0.1241
    150  CA        58.8800   44.1290   40.0980 C.3   175  PHE175      0.1605
    151  C         58.3410   43.3660   38.9170 C.2   175  PHE175      0.2264
    152  O         57.2250   43.6540   38.4950 O.2   175  PHE175     -0.2867
    153  CB        59.4230   45.4900   39.6310 C.3   175  PHE175      0.0534
    154  CG        59.5230   46.5280   40.7170 C.ar  175  PHE175     -0.0203
    155  CD1       60.5610   46.4940   41.6400 C.ar  175  PHE175     -0.0042
    156  CD2       58.6010   47.5640   40.7950 C.ar  175  PHE175     -0.0042
    157  CE1       60.6590   47.4630   42.6390 C.ar  175  PHE175     -0.0003
    158  CE2       58.7070   48.5420   41.7840 C.ar  175  PHE175     -0.0003
    159  CZ        59.7360   48.4850   42.7010 C.ar  175  PHE175     -0.0000
    160  N         51.8320   47.9200   42.8720 N.3   183  LEU183     -0.1245
    161  CA        52.5210   49.1470   42.4750 C.3   183  LEU183      0.1561
    162  C         51.8460   50.3920   43.0640 C.2   183  LEU183      0.2260
    163  O         52.5410   51.3940   43.2910 O.2   183  LEU183     -0.2867
    164  CB        52.5830   49.2700   40.9430 C.3   183  LEU183      0.0270
    165  CG        53.6350   48.4430   40.2140 C.3   183  LEU183      0.0019
    166  CD1       53.5120   48.6450   38.7170 C.3   183  LEU183      0.0001
    167  CD2       55.0580   48.7950   40.6750 C.3   183  LEU183      0.0001
    168  N         53.3190   51.0310   46.3740 N.3   186  TYR186     -0.1227
    169  CA        54.6730   51.5830   46.2940 C.3   186  TYR186      0.1736
    170  C         54.6080   53.0890   46.0250 C.2   186  TYR186      0.2595
    171  O         55.1860   53.8600   46.7820 O.2   186  TYR186     -0.2718
    172  CB        55.5410   50.8440   45.2490 C.3   186  TYR186      0.0548
    173  CG        55.6400   49.3350   45.4250 C.ar  186  TYR186     -0.0200
    174  CD1       55.4500   48.7390   46.6710 C.ar  186  TYR186     -0.0009
    175  CD2       55.9580   48.5120   44.3570 C.ar  186  TYR186     -0.0009
    176  CE1       55.4860   47.3560   46.8250 C.ar  186  TYR186      0.0417
    177  CE2       56.0340   47.1280   44.5070 C.ar  186  TYR186      0.0417
    178  CZ        55.8250   46.5570   45.7510 C.ar  186  TYR186      0.1957
    179  OH        55.9430   45.1910   45.9080 O.3   186  TYR186     -0.2866
    180  N         53.8250   53.4980   45.0200 N.am  187  ILE187     -0.1980
    181  CA        53.6490   54.8960   44.6640 C.3   187  ILE187      0.1595
    182  C         52.9460   55.6940   45.7710 C.2   187  ILE187      0.2287
    183  O         53.2620   56.8770   45.9390 O.2   187  ILE187     -0.2864
    184  CB        52.9530   55.0800   43.2900 C.3   187  ILE187      0.0276
    185  CG1       53.3460   56.4380   42.6690 C.3   187  ILE187      0.0022
    186  CG2       51.4430   54.8910   43.3520 C.3   187  ILE187      0.0022
    187  CD1       54.8510   56.5510   42.2900 C.3   187  ILE187      0.0001
    188  N         55.8560   56.5550   47.9360 N.3   190  ILE190     -0.1245
    189  CA        56.7310   57.5410   47.2900 C.3   190  ILE190      0.1561
    190  C         56.1370   58.9660   47.4170 C.2   190  ILE190      0.2260
    191  O         56.8170   59.8670   47.9010 O.2   190  ILE190     -0.2867
    192  CB        56.9940   57.1600   45.7970 C.3   190  ILE190      0.0252
    193  CG1       57.8050   55.8360   45.6360 C.3   190  ILE190      0.0019
    194  CG2       57.5560   58.3360   44.9590 C.3   190  ILE190      0.0019
    195  CD1       59.2190   55.7340   46.3540 C.3   190  ILE190      0.0001
    196  N         52.1220   59.2270   37.7310 N.3   203  TYR203     -0.1241
    197  CA        52.0420   57.7760   37.8780 C.3   203  TYR203      0.1605
    198  C         50.8620   57.1980   37.0560 C.2   203  TYR203      0.2264
    199  O         51.0780   56.2210   36.3360 O.2   203  TYR203     -0.2867
    200  CB        51.9200   57.3810   39.3690 C.3   203  TYR203      0.0534
    201  CG        51.5350   55.9320   39.6020 C.ar  203  TYR203     -0.0201
    202  CD1       52.4990   54.9250   39.6180 C.ar  203  TYR203     -0.0009
    203  CD2       50.2130   55.5750   39.8700 C.ar  203  TYR203     -0.0009
    204  CE1       52.1540   53.5980   39.8790 C.ar  203  TYR203      0.0417
    205  CE2       49.8560   54.2510   40.1100 C.ar  203  TYR203      0.0417
    206  CZ        50.8330   53.2700   40.1390 C.ar  203  TYR203      0.1957
    207  OH        50.4790   51.9660   40.3880 O.3   203  TYR203     -0.2866
@<TRIPOS>BOND
     1    45    46    1
     2    48    47    2
     3    39    40    2
     4    39    38    1
     5    47    46    1
     6    46    49    1
     7    38    37    1
     8    38    41    1
     9    42    41    1
    10    42    44    1
    11   199   198    2
    12    49    50    1
    13    59    53    1
    14    59    58    1
    15    41    43    1
    16    50    51    1
    17    50    52    1
    18    56    55    2
    19    53    54    1
    20   198   197    1
    21   196   197    1
    22   197   200    1
    23    55    54    1
    24   147   145    1
    25    58    57    1
    26    54    57    1
    27   152   151    2
    28   166   165    1
    29   151   150    1
    30   148   146    1
    31   145   146    1
    32   145   142    1
    33   144   143    2
    34   200   201    1
    35   143   142    1
    36   201   202   ar
    37   201   203   ar
    38   202   204   ar
    39   153   150    1
    40   153   154    1
    41   203   205   ar
    42   204   206   ar
    43   150   149    1
    44   205   206   ar
    45   206   207    1
    46   142   141    1
    47   165   167    1
    48   165   164    1
    49    28    27    2
    50   154   156   ar
    51   154   155   ar
    52   156   158   ar
    53   124   125    2
    54   124   123    1
    55   164   161    1
    56    27    26    1
    57   141   132   am
    58   128   126    1
    59    29    26    1
    60    29    30    1
    61   155   157   ar
    62   116   117    2
    63   116   115    1
    64   158   159   ar
    65   126   123    1
    66   126   127    1
    67   123   122    1
    68    26    25    1
    69   132   133    2
    70   132   131    1
    71   130   131    1
    72   187   185    1
    73   161   160    1
    74   161   162    1
    75    30    32   ar
    76    30    31   ar
    77   157   159   ar
    78   185   184    1
    79    32    34   ar
    80   114   115    1
    81    60    61    1
    82   115   118    1
    83    67    65    1
    84   162   163    2
    85   131   134    1
    86   118   119    1
    87   127   129    1
    88    25    18   am
    89    65    64    1
    90   184   186    1
    91   184   181    1
    92    31    33   ar
    93     7     5    1
    94    34    35   ar
    95   134   135    1
    96     1     2    1
    97    61    64    1
    98    61    62    1
    99    64    66    1
   100   137   135   ar
   101   137   139   ar
   102   175   177   ar
   103   175   173   ar
   104    33    35   ar
   105   177   178   ar
   106    18    19    2
   107    18    17    1
   108    35    36    1
   109   135   136   ar
   110   181   180    1
   111   181   182    1
   112   119   120    2
   113   119   121   am
   114    63    62    2
   115     5     2    1
   116     5     6    1
   117     2     3    1
   118   139   140   ar
   119   194   192    1
   120   180   170   am
   121   172   173    1
   122   172   169    1
   123   173   174   ar
   124    17    20    1
   125    17    16    1
   126   193   192    1
   127   193   195    1
   128    77    78   ar
   129    77    75   ar
   130   178   179    1
   131   178   176   ar
   132   136   138   ar
   133   182   183    2
   134   192   189    1
   135    20    21    1
   136   140   138   ar
   137   170   169    1
   138   170   171    2
   139    78    76   ar
   140   112   111    1
   141     3     4    2
   142     3     8   am
   143   169   168    1
   144    21    22    1
   145    75    73   ar
   146   174   176   ar
   147    94    92    1
   148     8     9    1
   149    22    23    1
   150    93    92    1
   151    24    23    1
   152   189   190    1
   153   189   188    1
   154   111   113    1
   155   111   110    1
   156   190   191    2
   157    76    74   ar
   158   103   105   ar
   159   103   101   ar
   160    92    91    1
   161    73    74   ar
   162    73    72    1
   163   109   108    2
   164    85    84    1
   165   105   104   ar
   166    68    69    1
   167     9    12    1
   168     9    10    1
   169   101   100   ar
   170    12    13    1
   171   110   107    1
   172    86    84    1
   173   107   108    1
   174   107   106    1
   175    72    69    1
   176    11    10    2
   177    91    88    1
   178    84    83    1
   179    69    70    1
   180   104   102   ar
   181    15    13    1
   182    90    89    2
   183   100   102   ar
   184   100    99    1
   185    13    14    1
   186    89    88    1
   187    89    95   am
   188    96    95    1
   189    96    99    1
   190    96    97    1
   191    88    87    1
   192    71    70    2
   193    83    80    1
   194    98    97    2
   195    82    81    2
   196    80    81    1
   197    80    79    1
