@<TRIPOS>MOLECULE
tmp/4oboA01.pdb
 125 117 0 0 0
SMALL
GASTEIGER

@<TRIPOS>ATOM
      1  N        -20.2670    1.2220   29.7040 N.3    16  VAL16      -0.1245
      2  CA       -19.0200    0.7990   29.0510 C.3    16  VAL16       0.1561
      3  C        -19.3910   -0.0420   27.7890 C.2    16  VAL16       0.2260
      4  O        -20.2250   -0.9460   27.8880 O.2    16  VAL16      -0.2867
      5  CB       -18.0820    0.0430   30.0440 C.3    16  VAL16       0.0252
      6  CG1      -16.9090   -0.6210   29.3340 C.3    16  VAL16       0.0019
      7  CG2      -17.5640    0.9820   31.1230 C.3    16  VAL16       0.0019
      8  N        -20.9020   -2.9070   24.4600 N.3    21  TYR21      -0.1241
      9  CA       -21.1250   -4.2230   25.0780 C.3    21  TYR21       0.1605
     10  C        -22.5800   -4.3800   25.5350 C.2    21  TYR21       0.2264
     11  O        -22.9180   -5.3430   26.2310 O.2    21  TYR21      -0.2867
     12  CB       -20.1760   -4.4330   26.2800 C.3    21  TYR21       0.0534
     13  CG       -18.7100   -4.2290   25.9650 C.ar   21  TYR21      -0.0201
     14  CD1      -18.0370   -3.0880   26.3920 C.ar   21  TYR21      -0.0009
     15  CD2      -17.9910   -5.1830   25.2510 C.ar   21  TYR21      -0.0009
     16  CE1      -16.6860   -2.8960   26.1090 C.ar   21  TYR21       0.0417
     17  CE2      -16.6410   -5.0010   24.9590 C.ar   21  TYR21       0.0417
     18  CZ       -15.9920   -3.8560   25.3900 C.ar   21  TYR21       0.1957
     19  OH       -14.6620   -3.6680   25.1050 O.3    21  TYR21      -0.2866
     20  N        -23.5180   -3.1020   29.9420 N.3    24  VAL24      -0.1245
     21  CA       -22.3460   -3.3600   30.7840 C.3    24  VAL24       0.1561
     22  C        -21.8560   -2.0050   31.3230 C.2    24  VAL24       0.2260
     23  O        -21.6000   -1.0780   30.5440 O.2    24  VAL24      -0.2867
     24  CB       -21.2300   -4.1800   30.0830 C.3    24  VAL24       0.0252
     25  CG1      -20.0310   -4.3730   31.0080 C.3    24  VAL24       0.0019
     26  CG2      -21.7580   -5.5380   29.6160 C.3    24  VAL24       0.0019
     27  N        -16.8210   -4.3080   36.7380 N.3    37  ALA37      -0.1245
     28  CA       -17.6550   -4.2220   35.5510 C.3    37  ALA37       0.1562
     29  C        -18.9070   -4.9360   35.9420 C.2    37  ALA37       0.2260
     30  O        -18.8490   -5.9420   36.6510 O.2    37  ALA37      -0.2867
     31  CB       -17.0000   -4.8960   34.3600 C.3    37  ALA37       0.0290
     32  N        -22.6560   -6.3300   34.5110 N.3    39  LYS39      -0.1245
     33  CA       -23.6020   -6.5800   33.4290 C.3    39  LYS39       0.1561
     34  C        -24.9890   -6.5640   34.0570 C.2    39  LYS39       0.2260
     35  O        -25.2390   -7.2580   35.0500 O.2    39  LYS39      -0.2867
     36  CB       -23.3170   -7.8960   32.6850 C.3    39  LYS39       0.0271
     37  CG       -24.2060   -8.0660   31.4480 C.3    39  LYS39       0.0035
     38  CD       -23.6430   -9.0440   30.4450 C.3    39  LYS39       0.0206
     39  CE       -24.2780   -8.8630   29.0870 C.3    39  LYS39       0.1093
     40  NZ       -23.7350   -9.8320   28.0960 N.3    39  LYS39      -0.1314
     41  N        -11.2480  -12.2850   33.2890 N.3    63  ALA63      -0.1245
     42  CA       -11.6710  -11.3460   34.3380 C.3    63  ALA63       0.1562
     43  C        -12.4840  -12.0820   35.4270 C.2    63  ALA63       0.2260
     44  O        -13.4660  -12.7620   35.1190 O.2    63  ALA63      -0.2867
     45  CB       -12.4380  -10.1680   33.7510 C.3    63  ALA63       0.0290
     46  N        -24.4060   -8.8580   37.3600 N.3    79  LEU79      -0.1245
     47  CA       -23.2900   -9.7980   37.3550 C.3    79  LEU79       0.1561
     48  C        -22.0610   -8.9650   37.4910 C.2    79  LEU79       0.2260
     49  O        -21.7820   -8.0880   36.6710 O.2    79  LEU79      -0.2867
     50  CB       -23.2460  -10.6590   36.0950 C.3    79  LEU79       0.0270
     51  CG       -24.4100  -11.6160   35.9540 C.3    79  LEU79       0.0019
     52  CD1      -25.2640  -11.1920   34.8180 C.3    79  LEU79       0.0001
     53  CD2      -23.9160  -13.0320   35.6330 C.3    79  LEU79       0.0001
     54  N        -18.0350   -8.3980   38.0680 N.3    81  MET81      -0.1230
     55  CA       -16.7180   -8.9170   37.7940 C.3    81  MET81       0.1702
     56  C        -15.6620   -7.8350   37.9190 C.2    81  MET81       0.2592
     57  O        -15.9490   -6.6400   37.8570 O.2    81  MET81      -0.2718
     58  CB       -16.6750   -9.5780   36.3960 C.3    81  MET81       0.0401
     59  CG       -16.7550   -8.5860   35.2530 C.3    81  MET81       0.0596
     60  SD       -17.2930   -9.3290   33.6940 S.3    81  MET81      -0.1393
     61  CE       -15.8500   -9.7090   33.0630 C.3    81  MET81       0.0692
     62  N        -14.4260   -8.2840   38.0110 N.am   82  GLU82      -0.1966
     63  CA       -13.2160   -7.4820   38.0380 C.3    82  GLU82       0.1733
     64  C        -13.2030   -6.5070   36.8550 C.2    82  GLU82       0.2616
     65  O        -13.5750   -6.8620   35.7270 O.2    82  GLU82      -0.2715
     66  CB       -12.0360   -8.4580   37.9910 C.3    82  GLU82       0.0429
     67  CG       -10.6630   -7.8850   37.7100 C.3    82  GLU82       0.1163
     68  CD        -9.5850   -8.9260   37.4530 C.2    82  GLU82       0.3649
     69  OE1       -9.8830  -10.1470   37.3520 O.co2  82  GLU82      -0.2457
     70  OE2       -8.4190   -8.4920   37.3310 O.co2  82  GLU82      -0.2457
     71  N        -12.8240   -5.2560   37.1310 N.am   83  PHE83      -0.1960
     72  CA       -12.7440   -4.2310   36.1020 C.3    83  PHE83       0.1771
     73  C        -11.3260   -4.1770   35.5740 C.2    83  PHE83       0.2619
     74  O        -10.3780   -4.1870   36.3540 O.2    83  PHE83      -0.2715
     75  CB       -13.1570   -2.8500   36.6580 C.3    83  PHE83       0.0574
     76  CG       -13.3530   -1.7760   35.6160 C.ar   83  PHE83      -0.0200
     77  CD1      -14.5270   -1.7020   34.8870 C.ar   83  PHE83      -0.0042
     78  CD2      -12.3420   -0.8710   35.3260 C.ar   83  PHE83      -0.0042
     79  CE1      -14.6930   -0.7350   33.8930 C.ar   83  PHE83      -0.0003
     80  CE2      -12.5230    0.1160   34.3540 C.ar   83  PHE83      -0.0003
     81  CZ       -13.6960    0.1770   33.6460 C.ar   83  PHE83      -0.0000
     82  N        -11.1810   -4.0680   34.2520 N.am   84  CYS84      -0.1968
     83  CA        -9.9010   -3.9370   33.5770 C.3    84  CYS84       0.1712
     84  C         -9.8620   -2.4740   33.0380 C.2    84  CYS84       0.2296
     85  O        -10.5690   -2.1530   32.0790 O.2    84  CYS84      -0.2864
     86  CB        -9.7970   -4.9860   32.4670 C.3    84  CYS84       0.0983
     87  SG       -10.1510   -6.6860   33.0210 S.3    84  CYS84      -0.0798
     88  N         -8.8750   -0.4330   28.9680 N.3    87  GLY87      -0.1225
     89  CA        -9.6590   -0.6310   27.7610 C.3    87  GLY87       0.1811
     90  C         -9.3740   -1.9400   27.0420 C.2    87  GLY87       0.2280
     91  O         -8.6460   -2.8000   27.5480 O.2    87  GLY87      -0.2866
     92  N         -9.3600   -7.5220   27.2150 N.3   136  LEU136     -0.1245
     93  CA        -9.1230   -6.2870   27.9460 C.3   136  LEU136      0.1561
     94  C         -7.7690   -6.1890   28.5840 C.2   136  LEU136      0.2260
     95  O         -7.1270   -7.2060   28.8600 O.2   136  LEU136     -0.2867
     96  CB       -10.2230   -6.0680   29.0020 C.3   136  LEU136      0.0270
     97  CG       -11.6660   -6.1870   28.5540 C.3   136  LEU136      0.0019
     98  CD1      -12.5630   -5.9690   29.6730 C.3   136  LEU136      0.0001
     99  CD2      -12.0270   -5.1610   27.5450 C.3   136  LEU136      0.0001
    100  N        -13.0280  -11.5070   28.4790 N.3   146  VAL146     -0.1231
    101  CA       -14.3210  -11.0880   28.9820 C.3   146  VAL146      0.1692
    102  C        -15.4210  -11.5970   28.0240 C.2   146  VAL146      0.2592
    103  O        -15.1190  -11.9200   26.8710 O.2   146  VAL146     -0.2718
    104  CB       -14.1940   -9.5340   29.0360 C.3   146  VAL146      0.0266
    105  CG1      -15.2880   -8.7940   28.2870 C.3   146  VAL146      0.0020
    106  CG2      -14.0170   -9.0470   30.4520 C.3   146  VAL146      0.0020
    107  N        -16.6850  -11.6730   28.5090 N.am  147  ASP147     -0.1960
    108  CA       -17.8820  -12.0710   27.7410 C.3   147  ASP147      0.1840
    109  C        -18.0240  -13.5650   27.3700 C.2   147  ASP147      0.2622
    110  O        -18.1770  -13.9060   26.1900 O.2   147  ASP147     -0.2715
    111  CB       -18.1280  -11.1410   26.5230 C.3   147  ASP147      0.1450
    112  CG       -19.5510  -11.1350   25.9810 C.2   147  ASP147      0.3671
    113  OD1      -19.7500  -10.6450   24.8460 O.co2 147  ASP147     -0.2456
    114  OD2      -20.4730  -11.5900   26.7090 O.co2 147  ASP147     -0.2456
    115  N        -18.0150  -14.4440   28.3820 N.am  148  PHE148     -0.1974
    116  CA       -18.2250  -15.8810   28.1800 C.3   148  PHE148      0.1639
    117  C        -19.3630  -16.3900   29.0930 C.2   148  PHE148      0.2290
    118  O        -19.4710  -15.9700   30.2520 O.2   148  PHE148     -0.2864
    119  CB       -16.9140  -16.6960   28.3450 C.3   148  PHE148      0.0560
    120  CG       -16.5000  -16.9910   29.7710 C.ar  148  PHE148     -0.0200
    121  CD1      -16.7840  -18.2230   30.3530 C.ar  148  PHE148     -0.0042
    122  CD2      -15.8680  -16.0220   30.5450 C.ar  148  PHE148     -0.0042
    123  CE1      -16.4430  -18.4820   31.6820 C.ar  148  PHE148     -0.0003
    124  CE2      -15.5390  -16.2760   31.8780 C.ar  148  PHE148     -0.0003
    125  CZ       -15.8220  -17.5060   32.4380 C.ar  148  PHE148     -0.0000
@<TRIPOS>BOND
     1     8     9    1
     2   113   112   ar
     3    17    15   ar
     4    17    18   ar
     5     9    10    1
     6     9    12    1
     7    19    18    1
     8    15    13   ar
     9    18    16   ar
    10    10    11    2
    11    13    12    1
    12    13    14   ar
    13   112   111    1
    14   112   114   ar
    15    16    14   ar
    16   110   109    2
    17   111   108    1
    18   103   102    2
    19    90    91    2
    20    90    89    1
    21    92    93    1
    22   109   108    1
    23   109   115   am
    24    99    97    1
    25   108   107    1
    26    89    88    1
    27     3     4    2
    28     3     2    1
    29    93    94    1
    30    93    96    1
    31   102   107   am
    32   102   101    1
    33    40    39    1
    34   116   119    1
    35   116   115    1
    36   116   117    1
    37   105   104    1
    38   119   120    1
    39   100   101    1
    40    97    96    1
    41    97    98    1
    42    94    95    2
    43   101   104    1
    44   104   106    1
    45     2     1    1
    46     2     5    1
    47    39    38    1
    48   117   118    2
    49     6     5    1
    50    26    24    1
    51   120   121   ar
    52   120   122   ar
    53    20    21    1
    54     5     7    1
    55    24    21    1
    56    24    25    1
    57   121   123   ar
    58    38    37    1
    59    23    22    2
    60   122   124   ar
    61    21    22    1
    62    37    36    1
    63   123   125   ar
    64   124   125   ar
    65    85    84    2
    66    86    87    1
    67    86    83    1
    68    36    33    1
    69    84    83    1
    70    61    60    1
    71    41    42    1
    72    33    34    1
    73    33    32    1
    74    83    82    1
    75    81    79   ar
    76    81    80   ar
    77    60    59    1
    78    45    42    1
    79    79    77   ar
    80    34    35    2
    81    82    73   am
    82    42    43    1
    83    80    78   ar
    84    31    28    1
    85    52    51    1
    86    77    76   ar
    87    44    43    2
    88    59    58    1
    89    78    76   ar
    90    28    29    1
    91    28    27    1
    92    73    72    1
    93    73    74    2
    94    76    75    1
    95    53    51    1
    96    65    64    2
    97    29    30    2
    98    51    50    1
    99    50    47    1
   100    72    75    1
   101    72    71    1
   102    58    55    1
   103    49    48    2
   104    64    71   am
   105    64    63    1
   106    70    68   ar
   107    69    68   ar
   108    47    46    1
   109    47    48    1
   110    68    67    1
   111    67    66    1
   112    55    56    1
   113    55    54    1
   114    57    56    2
   115    56    62   am
   116    66    63    1
   117    62    63    1
