@<TRIPOS>MOLECULE
tmp/4obpA01.pdb
 142 132 0 0 0
SMALL
GASTEIGER

@<TRIPOS>ATOM
      1  N        -19.4020    1.1350   28.0150 N.3    19  VAL19      -0.1245
      2  CA       -18.0560    0.8760   27.4900 C.3    19  VAL19       0.1561
      3  C        -18.1010    0.3060   26.0940 C.2    19  VAL19       0.2260
      4  O        -18.8670   -0.6220   25.8270 O.2    19  VAL19      -0.2867
      5  CB       -17.0950    0.0850   28.4200 C.3    19  VAL19       0.0252
      6  CG1      -16.4700    0.9990   29.4640 C.3    19  VAL19       0.0019
      7  CG2      -17.7830   -1.1120   29.0660 C.3    19  VAL19       0.0019
      8  N        -20.3270   -4.0530   22.7770 N.3    24  TYR24      -0.1241
      9  CA       -20.7420   -5.0800   23.7210 C.3    24  TYR24       0.1605
     10  C        -22.2110   -4.9560   24.1380 C.2    24  TYR24       0.2264
     11  O        -22.7080   -5.7820   24.9100 O.2    24  TYR24      -0.2867
     12  CB       -19.8270   -4.9940   24.9460 C.3    24  TYR24       0.0534
     13  CG       -18.3580   -4.7940   24.6190 C.ar   24  TYR24      -0.0201
     14  CD1      -17.5740   -5.8520   24.1600 C.ar   24  TYR24      -0.0009
     15  CD2      -17.7390   -3.5620   24.8220 C.ar   24  TYR24      -0.0009
     16  CE1      -16.2130   -5.6920   23.9180 C.ar   24  TYR24       0.0417
     17  CE2      -16.3800   -3.3840   24.5550 C.ar   24  TYR24       0.0417
     18  CZ       -15.6180   -4.4560   24.1130 C.ar   24  TYR24       0.1957
     19  OH       -14.2800   -4.2970   23.8460 O.3    24  TYR24      -0.2866
     20  N        -23.1900   -2.8350   28.2770 N.3    27  VAL27      -0.1245
     21  CA       -22.0460   -3.0830   29.1630 C.3    27  VAL27       0.1561
     22  C        -21.5410   -1.7380   29.6570 C.2    27  VAL27       0.2260
     23  O        -21.3530   -0.8090   28.8720 O.2    27  VAL27      -0.2867
     24  CB       -20.9350   -4.0020   28.5620 C.3    27  VAL27       0.0252
     25  CG1      -19.7630   -4.1830   29.5350 C.3    27  VAL27       0.0019
     26  CG2      -21.5090   -5.3620   28.1860 C.3    27  VAL27       0.0019
     27  N        -16.7500   -4.0260   35.5640 N.3    40  ALA40      -0.1245
     28  CA       -17.5070   -3.9700   34.3230 C.3    40  ALA40       0.1562
     29  C        -18.8450   -4.5760   34.6610 C.2    40  ALA40       0.2260
     30  O        -18.9080   -5.5820   35.3780 O.2    40  ALA40      -0.2867
     31  CB       -16.8260   -4.7610   33.2350 C.3    40  ALA40       0.0290
     32  N        -22.5150   -5.8750   33.1080 N.3    42  LYS42      -0.1245
     33  CA       -23.3390   -6.2500   31.9660 C.3    42  LYS42       0.1561
     34  C        -24.7900   -6.2160   32.4420 C.2    42  LYS42       0.2260
     35  O        -25.1680   -6.9620   33.3530 O.2    42  LYS42      -0.2867
     36  CB       -22.9240   -7.6260   31.3980 C.3    42  LYS42       0.0271
     37  CG       -23.5600   -7.9540   30.0430 C.3    42  LYS42       0.0035
     38  CD       -22.8790   -9.1300   29.3650 C.3    42  LYS42       0.0206
     39  CE       -23.4070   -9.3810   27.9720 C.3    42  LYS42       0.1093
     40  NZ       -22.6630  -10.4720   27.2860 N.3    42  LYS42      -0.1314
     41  N        -25.4370  -17.2990   31.3800 N.3    57  GLU57      -0.1245
     42  CA       -24.2790  -16.4060   31.2970 C.3    57  GLU57       0.1567
     43  C        -23.6880  -16.1620   32.7010 C.2    57  GLU57       0.2260
     44  O        -22.4670  -16.0220   32.8200 O.2    57  GLU57      -0.2867
     45  CB       -24.5860  -15.0850   30.5610 C.3    57  GLU57       0.0388
     46  CG       -23.3090  -14.3560   30.1600 C.3    57  GLU57       0.1160
     47  CD       -23.3860  -13.1250   29.2790 C.2    57  GLU57       0.3649
     48  OE1      -22.3750  -12.3850   29.2290 O.co2  57  GLU57      -0.2457
     49  OE2      -24.4080  -12.9410   28.5790 O.co2  57  GLU57      -0.2457
     50  N        -19.8050  -17.6780   33.5730 N.3    61  LEU61      -0.1245
     51  CA       -18.8480  -16.6550   34.0120 C.3    61  LEU61       0.1561
     52  C        -18.4050  -16.8960   35.4490 C.2    61  LEU61       0.2260
     53  O        -17.2230  -16.7940   35.7200 O.2    61  LEU61      -0.2867
     54  CB       -19.4030  -15.2250   33.8050 C.3    61  LEU61       0.0270
     55  CG       -18.5250  -14.0120   34.2350 C.3    61  LEU61       0.0019
     56  CD1      -17.1820  -13.9910   33.5340 C.3    61  LEU61       0.0001
     57  CD2      -19.2380  -12.7030   33.9880 C.3    61  LEU61       0.0001
     58  N        -11.5010  -12.4810   32.4670 N.3    71  ALA71      -0.1245
     59  CA       -11.9670  -11.4680   33.4220 C.3    71  ALA71       0.1562
     60  C        -12.8730  -12.1110   34.4700 C.2    71  ALA71       0.2260
     61  O        -13.8320  -12.7950   34.1220 O.2    71  ALA71      -0.2867
     62  CB       -12.6820  -10.3380   32.7040 C.3    71  ALA71       0.0290
     63  N        -24.6400   -7.9950   35.8650 N.3    87  LEU87      -0.1245
     64  CA       -23.6290   -9.0320   35.9410 C.3    87  LEU87       0.1561
     65  C        -22.3100   -8.2930   36.1060 C.2    87  LEU87       0.2260
     66  O        -21.8760   -7.5640   35.2090 O.2    87  LEU87      -0.2867
     67  CB       -23.6970   -9.8910   34.6660 C.3    87  LEU87       0.0270
     68  CG       -22.5680  -10.8510   34.3930 C.3    87  LEU87       0.0019
     69  CD1      -22.4170  -11.8510   35.5270 C.3    87  LEU87       0.0001
     70  CD2      -22.7790  -11.5480   33.0490 C.3    87  LEU87       0.0001
     71  N        -18.2970   -7.9770   36.9980 N.3    89  MET89      -0.1230
     72  CA       -17.0250   -8.6310   36.8310 C.3    89  MET89       0.1702
     73  C        -15.8860   -7.6180   36.9290 C.2    89  MET89       0.2592
     74  O        -16.0890   -6.3980   36.9740 O.2    89  MET89      -0.2718
     75  CB       -16.9930   -9.3440   35.4490 C.3    89  MET89       0.0401
     76  CG       -16.9150   -8.3840   34.2780 C.3    89  MET89       0.0596
     77  SD       -17.4800   -9.0970   32.7150 S.3    89  MET89      -0.1393
     78  CE       -19.2770   -8.8840   32.9030 C.3    89  MET89       0.0692
     79  N        -14.6890   -8.1580   36.8580 N.am   90  GLU90      -0.1966
     80  CA       -13.4290   -7.4550   36.8560 C.3    90  GLU90       0.1733
     81  C        -13.3640   -6.4500   35.7170 C.2    90  GLU90       0.2616
     82  O        -13.6970   -6.7790   34.5720 O.2    90  GLU90      -0.2715
     83  CB       -12.3210   -8.5060   36.7210 C.3    90  GLU90       0.0429
     84  CG       -10.9630   -7.9800   36.3290 C.3    90  GLU90       0.1163
     85  CD        -9.8630   -9.0210   36.2840 C.2    90  GLU90       0.3649
     86  OE1      -10.1480  -10.2380   36.1500 O.co2  90  GLU90      -0.2457
     87  OE2       -8.6930   -8.5950   36.3990 O.co2  90  GLU90      -0.2457
     88  N        -12.9150   -5.2240   36.0320 N.am   91  PHE91      -0.1960
     89  CA       -12.7840   -4.1810   35.0200 C.3    91  PHE91       0.1771
     90  C        -11.3980   -4.1990   34.4220 C.2    91  PHE91       0.2619
     91  O        -10.4190   -4.2190   35.1620 O.2    91  PHE91      -0.2715
     92  CB       -13.1340   -2.7890   35.5740 C.3    91  PHE91       0.0574
     93  CG       -13.3650   -1.7470   34.4920 C.ar   91  PHE91      -0.0200
     94  CD1      -14.5590   -1.6970   33.7910 C.ar   91  PHE91      -0.0042
     95  CD2      -12.3830   -0.8320   34.1680 C.ar   91  PHE91      -0.0042
     96  CE1      -14.7660   -0.7430   32.7930 C.ar   91  PHE91      -0.0003
     97  CE2      -12.6030    0.1350   33.1760 C.ar   91  PHE91      -0.0003
     98  CZ       -13.7850    0.1630   32.4890 C.ar   91  PHE91      -0.0000
     99  N        -11.3100   -4.1900   33.0840 N.am   92  CYS92      -0.1968
    100  CA       -10.0440   -4.1490   32.3580 C.3    92  CYS92       0.1712
    101  C         -9.9620   -2.7580   31.7130 C.2    92  CYS92       0.2296
    102  O        -10.6240   -2.4950   30.7210 O.2    92  CYS92      -0.2864
    103  CB        -9.9860   -5.2800   31.3360 C.3    92  CYS92       0.0983
    104  SG       -10.2550   -6.9370   32.0460 S.3    92  CYS92      -0.0798
    105  N         -8.6090   -0.9830   27.5290 N.3    95  GLY95      -0.1225
    106  CA        -9.2940   -1.2890   26.2810 C.3    95  GLY95       0.1811
    107  C         -9.0170   -2.6500   25.6620 C.2    95  GLY95       0.2280
    108  O         -8.2690   -3.4790   26.1990 O.2    95  GLY95      -0.2866
    109  N         -9.3060   -8.1480   26.1370 N.3   144  LEU144     -0.1245
    110  CA        -9.0210   -6.8780   26.8090 C.3   144  LEU144      0.1561
    111  C         -7.6890   -6.8100   27.5170 C.2   144  LEU144      0.2260
    112  O         -7.1460   -7.8280   27.9450 O.2   144  LEU144     -0.2867
    113  CB       -10.1430   -6.5190   27.7930 C.3   144  LEU144      0.0270
    114  CG       -11.5810   -6.6970   27.3340 C.3   144  LEU144      0.0019
    115  CD1      -12.5090   -6.4950   28.4680 C.3   144  LEU144      0.0001
    116  CD2      -11.9390   -5.7400   26.2350 C.3   144  LEU144      0.0001
    117  N        -13.2200  -11.9540   27.5950 N.3   154  VAL154     -0.1231
    118  CA       -14.5710  -11.5940   28.0510 C.3   154  VAL154      0.1692
    119  C        -15.6390  -12.2070   27.1470 C.2   154  VAL154      0.2592
    120  O        -15.3270  -12.7150   26.0710 O.2   154  VAL154     -0.2718
    121  CB       -14.8310  -10.0660   28.2620 C.3   154  VAL154      0.0266
    122  CG1      -13.9470   -9.4850   29.3650 C.3   154  VAL154      0.0020
    123  CG2      -14.7090   -9.2780   26.9590 C.3   154  VAL154      0.0020
    124  N        -16.9010  -12.1230   27.5990 N.am  155  ASP155     -0.1960
    125  CA       -18.1230  -12.5090   26.9070 C.3   155  ASP155      0.1840
    126  C        -18.3850  -13.9820   26.7780 C.2   155  ASP155      0.2622
    127  O        -17.9240  -14.6160   25.8370 O.2   155  ASP155     -0.2715
    128  CB       -18.2780  -11.7790   25.5480 C.3   155  ASP155      0.1450
    129  CG       -19.7020  -11.6030   25.0430 C.2   155  ASP155      0.3671
    130  OD1      -20.6320  -12.1690   25.6550 O.co2 155  ASP155     -0.2456
    131  OD2      -19.8890  -10.8730   24.0610 O.co2 155  ASP155     -0.2456
    132  N        -19.2250  -14.4950   27.6950 N.am  156  PHE156     -0.1974
    133  CA       -19.7330  -15.8680   27.7330 C.3   156  PHE156      0.1639
    134  C        -21.1790  -15.8910   27.1990 C.2   156  PHE156      0.2290
    135  O        -21.8860  -16.8980   27.3530 O.2   156  PHE156     -0.2864
    136  CB       -19.6800  -16.4120   29.1660 C.3   156  PHE156      0.0560
    137  CG       -18.2880  -16.7620   29.6260 C.ar  156  PHE156     -0.0200
    138  CD1      -17.7370  -18.0050   29.3400 C.ar  156  PHE156     -0.0042
    139  CD2      -17.5210  -15.8460   30.3420 C.ar  156  PHE156     -0.0042
    140  CE1      -16.4490  -18.3260   29.7600 C.ar  156  PHE156     -0.0003
    141  CE2      -16.2290  -16.1740   30.7690 C.ar  156  PHE156     -0.0003
    142  CZ       -15.7090  -17.4140   30.4830 C.ar  156  PHE156     -0.0000
@<TRIPOS>BOND
     1     8     9    1
     2     9    10    1
     3     9    12    1
     4    19    18    1
     5    16    18   ar
     6    16    14   ar
     7   131   129   ar
     8    18    17   ar
     9    10    11    2
    10    14    13   ar
    11    17    15   ar
    12    13    15   ar
    13    13    12    1
    14   129   128    1
    15   129   130   ar
    16   128   125    1
    17   107   108    2
    18   107   106    1
    19     4     3    2
    20   127   126    2
    21   120   119    2
    22     3     2    1
    23   109   110    1
    24   116   114    1
    25   106   105    1
    26   126   125    1
    27   126   132   am
    28   110   111    1
    29   110   113    1
    30   125   124    1
    31   123   121    1
    32   119   124   am
    33   119   118    1
    34   134   135    2
    35   134   133    1
    36    40    39    1
    37   114   113    1
    38   114   115    1
    39     2     1    1
    40     2     5    1
    41   111   112    2
    42   117   118    1
    43   132   133    1
    44   133   136    1
    45    39    38    1
    46   118   121    1
    47    26    24    1
    48   121   122    1
    49    20    21    1
    50     5     7    1
    51     5     6    1
    52    24    21    1
    53    24    25    1
    54    49    47   ar
    55    23    22    2
    56    21    22    1
    57   136   137    1
    58    48    47   ar
    59    47    46    1
    60   138   137   ar
    61   138   140   ar
    62    38    37    1
    63   137   139   ar
    64   140   142   ar
    65    37    36    1
    66    46    45    1
    67   139   141   ar
    68   142   141   ar
    69    45    42    1
    70   102   101    2
    71    42    41    1
    72    42    43    1
    73   103   104    1
    74   103   100    1
    75    36    33    1
    76   101   100    1
    77    33    34    1
    78    33    32    1
    79   100    99    1
    80    34    35    2
    81    58    59    1
    82    98    96   ar
    83    98    97   ar
    84    43    44    2
    85    62    59    1
    86    77    78    1
    87    77    76    1
    88    96    94   ar
    89    70    68    1
    90    99    90   am
    91    97    95   ar
    92    31    28    1
    93    59    60    1
    94    56    55    1
    95    50    51    1
    96    94    93   ar
    97    54    51    1
    98    54    55    1
    99    57    55    1
   100    51    52    1
   101    61    60    2
   102    95    93   ar
   103    76    75    1
   104    28    29    1
   105    28    27    1
   106    68    67    1
   107    68    69    1
   108    90    89    1
   109    90    91    2
   110    93    92    1
   111    82    81    2
   112    29    30    2
   113    67    64    1
   114    89    92    1
   115    89    88    1
   116    66    65    2
   117    52    53    2
   118    75    72    1
   119    81    88   am
   120    81    80    1
   121    63    64    1
   122    64    65    1
   123    86    85   ar
   124    85    84    1
   125    85    87   ar
   126    84    83    1
   127    83    80    1
   128    72    73    1
   129    72    71    1
   130    80    79    1
   131    79    73   am
   132    73    74    2
