@<TRIPOS>MOLECULE
tmp/4obqA01.pdb
 183 168 0 0 0
SMALL
GASTEIGER

@<TRIPOS>ATOM
      1  N        -20.0640    0.9650   28.3500 N.3    16  VAL16      -0.1245
      2  CA       -18.7640    0.5510   27.8580 C.3    16  VAL16       0.1561
      3  C        -18.9740   -0.4480   26.6940 C.2    16  VAL16       0.2260
      4  O        -19.6540   -1.4580   26.8770 O.2    16  VAL16      -0.2867
      5  CB       -17.8690    0.0360   29.0170 C.3    16  VAL16       0.0252
      6  CG1      -18.2500   -1.3660   29.4870 C.3    16  VAL16       0.0019
      7  CG2      -16.3990    0.1180   28.6600 C.3    16  VAL16       0.0019
      8  N        -20.8590   -1.2800   21.3260 N.3    20  THR20      -0.1203
      9  CA       -20.1790   -2.4830   20.8140 C.3    20  THR20       0.1994
     10  C        -20.4910   -3.7830   21.6140 C.2    20  THR20       0.2618
     11  O        -20.4660   -4.8780   21.0290 O.2    20  THR20      -0.2717
     12  CB       -18.6540   -2.2440   20.6690 C.3    20  THR20       0.1784
     13  OG1      -17.9660   -3.4980   20.6220 O.3    20  THR20      -0.2211
     14  CG2      -18.0710   -1.4000   21.7920 C.3    20  THR20       0.0376
     15  N        -20.7760   -3.6700   22.9220 N.am   21  TYR21      -0.1961
     16  CA       -21.0700   -4.8460   23.7510 C.3    21  TYR21       0.1771
     17  C        -22.5460   -4.9130   24.1530 C.2    21  TYR21       0.2620
     18  O        -22.9760   -5.8610   24.8160 O.2    21  TYR21      -0.2715
     19  CB       -20.1760   -4.8620   25.0090 C.3    21  TYR21       0.0574
     20  CG       -18.6940   -4.7110   24.7430 C.ar   21  TYR21      -0.0198
     21  CD1      -17.9240   -5.7960   24.3260 C.ar   21  TYR21      -0.0009
     22  CD2      -18.0500   -3.4980   24.9530 C.ar   21  TYR21      -0.0009
     23  CE1      -16.5560   -5.6680   24.0990 C.ar   21  TYR21       0.0417
     24  CE2      -16.6860   -3.3530   24.7080 C.ar   21  TYR21       0.0417
     25  CZ       -15.9410   -4.4440   24.2900 C.ar   21  TYR21       0.1957
     26  OH       -14.5930   -4.3080   24.0890 O.3    21  TYR21      -0.2866
     27  N        -23.3060   -3.9010   23.7640 N.am   22  GLY22      -0.1954
     28  CA       -24.7070   -3.7950   24.1440 C.3    22  GLY22       0.1869
     29  C        -24.8230   -3.1160   25.4960 C.2    22  GLY22       0.2309
     30  O        -24.1430   -2.1110   25.7400 O.2    22  GLY22      -0.2863
     31  N        -23.5810   -3.0670   28.5480 N.3    24  VAL24      -0.1245
     32  CA       -22.4670   -3.3630   29.4460 C.3    24  VAL24       0.1561
     33  C        -21.9840   -2.0150   29.9530 C.2    24  VAL24       0.2260
     34  O        -21.8290   -1.0690   29.1670 O.2    24  VAL24      -0.2867
     35  CB       -21.3620   -4.2440   28.7850 C.3    24  VAL24       0.0252
     36  CG1      -20.2290   -4.5480   29.7620 C.3    24  VAL24       0.0019
     37  CG2      -21.9470   -5.5510   28.2630 C.3    24  VAL24       0.0019
     38  N        -17.1420   -4.1680   35.6330 N.3    37  ALA37      -0.1245
     39  CA       -17.9440   -4.1570   34.4290 C.3    37  ALA37       0.1562
     40  C        -19.2580   -4.8180   34.8280 C.2    37  ALA37       0.2260
     41  O        -19.2660   -5.8290   35.5310 O.2    37  ALA37      -0.2867
     42  CB       -17.2600   -4.9550   33.3260 C.3    37  ALA37       0.0290
     43  N        -22.9400   -6.2630   33.3060 N.3    39  LYS39      -0.1245
     44  CA       -23.7710   -6.6750   32.1810 C.3    39  LYS39       0.1561
     45  C        -25.1970   -6.5500   32.6670 C.2    39  LYS39       0.2260
     46  O        -25.6130   -7.3130   33.5370 O.2    39  LYS39      -0.2867
     47  CB       -23.4230   -8.1290   31.7600 C.3    39  LYS39       0.0271
     48  CG       -24.3990   -8.8200   30.7900 C.3    39  LYS39       0.0035
     49  CD       -24.2290   -8.4350   29.3180 C.3    39  LYS39       0.0206
     50  CE       -24.9670   -9.3840   28.3910 C.3    39  LYS39       0.1093
     51  NZ       -24.2800  -10.7000   28.2630 N.3    39  LYS39      -0.1314
     52  N        -29.1100   -6.8480   31.9920 N.3    41  MET41      -0.1245
     53  CA       -30.0660   -7.5850   31.1710 C.3    41  MET41       0.1570
     54  C        -31.4790   -7.4200   31.6920 C.2    41  MET41       0.2261
     55  O        -31.6950   -7.3990   32.9060 O.2    41  MET41      -0.2867
     56  CB       -29.7170   -9.0740   31.1700 C.3    41  MET41       0.0387
     57  CG       -28.5020   -9.4040   30.3450 C.3    41  MET41       0.0595
     58  SD       -27.8880  -11.0540   30.7410 S.3    41  MET41      -0.1393
     59  CE       -27.8640  -11.8120   29.0750 C.3    41  MET41       0.0692
     60  N        -20.2920  -18.1300   34.0910 N.3    48  LEU48      -0.1245
     61  CA       -19.3240  -17.0820   34.3890 C.3    48  LEU48       0.1561
     62  C        -18.7290  -17.2780   35.8050 C.2    48  LEU48       0.2260
     63  O        -17.5880  -16.8960   36.0230 O.2    48  LEU48      -0.2867
     64  CB       -19.9670  -15.6900   34.1940 C.3    48  LEU48       0.0270
     65  CG       -19.0810  -14.4290   34.3040 C.3    48  LEU48       0.0019
     66  CD1      -17.9650  -14.4110   33.2740 C.3    48  LEU48       0.0001
     67  CD2      -19.9060  -13.1750   34.1410 C.3    48  LEU48       0.0001
     68  N        -11.6980  -12.3870   32.5340 N.3    58  ALA58      -0.1245
     69  CA       -12.1620  -11.3710   33.5080 C.3    58  ALA58       0.1562
     70  C        -13.0160  -12.0390   34.5950 C.2    58  ALA58       0.2260
     71  O        -13.9620  -12.7560   34.2690 O.2    58  ALA58      -0.2867
     72  CB       -12.9340  -10.2650   32.8040 C.3    58  ALA58       0.0290
     73  N        -24.8580   -8.4370   36.1160 N.3    78  LEU78      -0.1245
     74  CA       -23.7820   -9.4150   36.2630 C.3    78  LEU78       0.1561
     75  C        -22.5270   -8.6120   36.3570 C.2    78  LEU78       0.2260
     76  O        -22.2550   -7.7790   35.5030 O.2    78  LEU78      -0.2867
     77  CB       -23.7360  -10.4560   35.1370 C.3    78  LEU78       0.0270
     78  CG       -24.9730  -11.3280   35.0280 C.3    78  LEU78       0.0019
     79  CD1      -24.9630  -12.1050   33.7320 C.3    78  LEU78       0.0001
     80  CD2      -25.0900  -12.2810   36.2120 C.3    78  LEU78       0.0001
     81  N        -18.4810   -8.1280   37.0630 N.3    80  MET80      -0.1230
     82  CA       -17.1920   -8.7470   36.8930 C.3    80  MET80       0.1702
     83  C        -16.0880   -7.7050   36.9740 C.2    80  MET80       0.2595
     84  O        -16.3470   -6.4940   36.9430 O.2    80  MET80      -0.2718
     85  CB       -17.1540   -9.4940   35.5370 C.3    80  MET80       0.0401
     86  CG       -16.9790   -8.5860   34.3540 C.3    80  MET80       0.0596
     87  SD       -17.5530   -9.3480   32.8260 S.3    80  MET80      -0.1393
     88  CE       -19.3600   -8.9660   32.9770 C.3    80  MET80       0.0692
     89  N        -14.8600   -8.2020   37.0200 N.am   81  GLU81      -0.1920
     90  CA       -13.6130   -7.4670   37.0010 C.3    81  GLU81       0.1949
     91  C        -13.6280   -6.5120   35.8080 C.2    81  GLU81       0.2659
     92  O        -14.0610   -6.8630   34.7020 O.2    81  GLU81      -0.2711
     93  CB       -12.4650   -8.4870   36.8820 C.2    81  GLU81       0.0111
     94  CG       -11.0650   -7.9220   36.7040 C.2    81  GLU81       0.0838
     95  CD        -9.9630   -8.9540   36.5650 C.2    81  GLU81       0.3877
     96  OE1      -10.2570  -10.1090   36.1810 O.co2  81  GLU81      -0.2406
     97  OE2       -8.7980   -8.6080   36.8660 O.co2  81  GLU81      -0.2406
     98  N        -13.2340   -5.2890   36.0690 N.am   82  PHE82      -0.1957
     99  CA       -13.1430   -4.2880   35.0420 C.3    82  PHE82       0.1771
    100  C        -11.7570   -4.3570   34.4670 C.2    82  PHE82       0.2619
    101  O        -10.7600   -4.4680   35.1900 O.2    82  PHE82      -0.2715
    102  CB       -13.3640   -2.8820   35.6120 C.3    82  PHE82       0.0574
    103  CG       -13.6130   -1.8540   34.5420 C.ar   82  PHE82      -0.0200
    104  CD1      -14.7440   -1.9230   33.7380 C.ar   82  PHE82      -0.0042
    105  CD2      -12.7100   -0.8210   34.3250 C.ar   82  PHE82      -0.0042
    106  CE1      -14.9760   -0.9630   32.7460 C.ar   82  PHE82      -0.0003
    107  CE2      -12.9580    0.1530   33.3530 C.ar   82  PHE82      -0.0003
    108  CZ       -14.0700    0.0550   32.5490 C.ar   82  PHE82      -0.0000
    109  N        -11.6970   -4.2730   33.1700 N.am   83  CYS83      -0.1968
    110  CA       -10.4430   -4.2170   32.4650 C.3    83  CYS83       0.1712
    111  C        -10.3980   -2.8060   31.8660 C.2    83  CYS83       0.2296
    112  O        -11.0810   -2.5380   30.8930 O.2    83  CYS83      -0.2864
    113  CB       -10.4040   -5.3080   31.4030 C.3    83  CYS83       0.0983
    114  SG       -10.5440   -6.9920   32.0720 S.3    83  CYS83      -0.0798
    115  N         -8.9680   -0.9400   27.8120 N.3    86  GLY86      -0.1225
    116  CA        -9.6360   -1.1910   26.5450 C.3    86  GLY86       0.1811
    117  C         -9.3320   -2.5250   25.8970 C.2    86  GLY86       0.2280
    118  O         -8.6200   -3.3670   26.4530 O.2    86  GLY86      -0.2866
    119  N        -16.8920  -16.5030   20.7010 N.3   128  ASP128     -0.1239
    120  CA       -16.8260  -15.1380   20.1710 C.3   128  ASP128      0.1674
    121  C        -15.4710  -14.4780   20.4040 C.2   128  ASP128      0.2266
    122  O        -15.3920  -13.3660   20.9350 O.2   128  ASP128     -0.2867
    123  CB       -18.0040  -14.2710   20.7020 C.3   128  ASP128      0.1410
    124  CG       -18.2800  -13.0090   19.8780 C.2   128  ASP128      0.3668
    125  OD1      -17.8230  -12.9450   18.6980 O.co2 128  ASP128     -0.2456
    126  OD2      -18.9370  -12.0780   20.4140 O.co2 128  ASP128     -0.2456
    127  N        -13.3040   -8.6590   22.1720 N.3   133  ASN133     -0.1240
    128  CA       -13.5580   -9.4600   23.3840 C.3   133  ASN133      0.1653
    129  C        -12.2810   -9.8510   24.1300 C.2   133  ASN133      0.2266
    130  O        -12.3120  -10.6570   25.0540 O.2   133  ASN133     -0.2867
    131  CB       -14.4260  -10.6610   23.0600 C.3   133  ASN133      0.1155
    132  CG       -15.8450  -10.2640   22.7320 C.2   133  ASN133      0.2627
    133  OD1      -16.3130   -9.2060   23.1420 O.2   133  ASN133     -0.2716
    134  ND2      -16.5620  -11.0800   21.9840 N.am  133  ASN133     -0.0877
    135  N         -9.5150   -8.0480   26.2990 N.3   135  LEU135     -0.1245
    136  CA        -9.2790   -6.7890   26.9970 C.3   135  LEU135      0.1561
    137  C         -7.9660   -6.7080   27.7180 C.2   135  LEU135      0.2260
    138  O         -7.4160   -7.7200   28.1380 O.2   135  LEU135     -0.2867
    139  CB       -10.4300   -6.5140   27.9800 C.3   135  LEU135      0.0270
    140  CG       -11.8520   -6.6120   27.4190 C.3   135  LEU135      0.0019
    141  CD1      -12.8240   -6.4510   28.4790 C.3   135  LEU135      0.0001
    142  CD2      -12.1240   -5.5440   26.3980 C.3   135  LEU135      0.0001
    143  N        -13.3660  -11.9430   27.5330 N.3   145  VAL145     -0.1231
    144  CA       -14.6660  -11.4960   27.9740 C.3   145  VAL145      0.1692
    145  C        -15.7360  -12.0680   27.0300 C.2   145  VAL145      0.2592
    146  O        -15.4030  -12.4700   25.9150 O.2   145  VAL145     -0.2718
    147  CB       -14.5520   -9.9520   28.0090 C.3   145  VAL145      0.0266
    148  CG1      -15.4930   -9.2210   27.0640 C.3   145  VAL145      0.0020
    149  CG2      -14.5880   -9.4250   29.4250 C.3   145  VAL145      0.0020
    150  N        -16.9950  -12.1660   27.5140 N.am  146  ASP146     -0.1974
    151  CA       -18.1900  -12.6150   26.7930 C.3   146  ASP146      0.1709
    152  C        -18.1290  -14.0590   26.3490 C.2   146  ASP146      0.2293
    153  O        -18.0450  -14.3170   25.1590 O.2   146  ASP146     -0.2864
    154  CB       -18.5280  -11.6820   25.5860 C.3   146  ASP146      0.1436
    155  CG       -19.9020  -11.9260   24.9410 C.2   146  ASP146      0.3671
    156  OD1      -20.8570  -12.2830   25.6780 O.co2 146  ASP146     -0.2456
    157  OD2      -20.0140  -11.7730   23.7040 O.co2 146  ASP146     -0.2456
    158  N        -22.4200  -18.6070   24.6690 N.3   149  VAL149     -0.1245
    159  CA       -22.3950  -17.1330   24.5310 C.3   149  VAL149      0.1561
    160  C        -23.1460  -16.4060   25.6630 C.2   149  VAL149      0.2260
    161  O        -22.6710  -15.3920   26.1740 O.2   149  VAL149     -0.2867
    162  CB       -22.8770  -16.6440   23.1320 C.3   149  VAL149      0.0252
    163  CG1      -21.9880  -17.1750   22.0120 C.3   149  VAL149      0.0019
    164  CG2      -24.3440  -16.9980   22.8750 C.3   149  VAL149      0.0019
    165  N        -29.5790  -12.8640   22.3730 N.3   150  ASN150     -0.1240
    166  CA       -29.5520  -14.2370   21.8610 C.3   150  ASN150      0.1653
    167  C        -30.0220  -14.3600   20.4040 C.2   150  ASN150      0.2266
    168  O        -29.7430  -15.3720   19.7630 O.2   150  ASN150     -0.2867
    169  CB       -30.4150  -15.1530   22.7460 C.3   150  ASN150      0.1155
    170  CG       -29.6640  -15.7780   23.8900 C.2   150  ASN150      0.2627
    171  OD1      -28.9110  -16.7480   23.7160 O.2   150  ASN150     -0.2716
    172  ND2      -29.8650  -15.2450   25.0900 N.am  150  ASN150     -0.0877
    173  N        -29.5830  -11.7880   17.9450 N.3   152  PHE152     -0.1241
    174  CA       -28.7590  -10.9570   17.0780 C.3   152  PHE152      0.1605
    175  C        -27.4850  -11.6770   16.6800 C.2   152  PHE152      0.2264
    176  O        -26.8220  -12.2550   17.5290 O.2   152  PHE152     -0.2867
    177  CB       -28.4350   -9.6020   17.7500 C.3   152  PHE152      0.0534
    178  CG       -29.5580   -8.5980   17.6040 C.ar  152  PHE152     -0.0203
    179  CD1      -30.7640   -8.7750   18.2770 C.ar  152  PHE152     -0.0042
    180  CD2      -29.4300   -7.4960   16.7480 C.ar  152  PHE152     -0.0042
    181  CE1      -31.8250   -7.8720   18.0980 C.ar  152  PHE152     -0.0003
    182  CE2      -30.5000   -6.6090   16.5550 C.ar  152  PHE152     -0.0003
    183  CZ       -31.6870   -6.8010   17.2370 C.ar  152  PHE152     -0.0000
@<TRIPOS>BOND
     1   182   180   ar
     2   182   183   ar
     3   175   174    1
     4   175   176    2
     5   180   178   ar
     6   174   177    1
     7   174   173    1
     8   183   181   ar
     9   178   177    1
    10   178   179   ar
    11   181   179   ar
    12   125   124   ar
    13   168   167    2
    14   124   126   ar
    15   124   123    1
    16   120   121    1
    17   120   119    1
    18   120   123    1
    19   121   122    2
    20   167   166    1
    21    13    12    1
    22    12     9    1
    23    12    14    1
    24     9     8    1
    25     9    10    1
    26    11    10    2
    27    10    15   am
    28   166   165    1
    29   166   169    1
    30   134   132   am
    31   163   162    1
    32   127   128    1
    33   132   131    1
    34   132   133    2
    35   169   170    1
    36   164   162    1
    37    15    16    1
    38   131   128    1
    39   162   159    1
    40   128   129    1
    41   157   155   ar
    42   171   170    2
    43    16    17    1
    44    16    19    1
    45    27    28    1
    46    27    17   am
    47   170   172   am
    48    26    25    1
    49    23    25   ar
    50    23    21   ar
    51   129   130    2
    52    28    29    1
    53    17    18    2
    54    25    24   ar
    55    21    20   ar
    56   159   158    1
    57   159   160    1
    58    24    22   ar
    59    20    22   ar
    60    20    19    1
    61   155   154    1
    62   155   156   ar
    63   153   152    2
    64    29    30    2
    65   154   151    1
    66   160   161    2
    67   117   118    2
    68   117   116    1
    69   146   145    2
    70   135   136    1
    71   152   151    1
    72   142   140    1
    73   116   115    1
    74     3     4    2
    75     3     2    1
    76   151   150    1
    77   136   137    1
    78   136   139    1
    79   145   150   am
    80   145   144    1
    81   148   147    1
    82   140   139    1
    83   140   141    1
    84   143   144    1
    85   137   138    2
    86     2     1    1
    87     2     5    1
    88   144   147    1
    89   147   149    1
    90    51    50    1
    91    37    35    1
    92    50    49    1
    93    31    32    1
    94     7     5    1
    95    35    32    1
    96    35    36    1
    97     5     6    1
    98    59    58    1
    99    34    33    2
   100    49    48    1
   101    32    33    1
   102    57    58    1
   103    57    56    1
   104    48    47    1
   105   112   111    2
   106    56    53    1
   107    53    54    1
   108    53    52    1
   109   113   114    1
   110   113   110    1
   111    54    55    2
   112    47    44    1
   113   111   110    1
   114    44    45    1
   115    44    43    1
   116   110   109    1
   117    68    69    1
   118   108   106   ar
   119   108   107   ar
   120    45    46    2
   121   106   104   ar
   122    72    69    1
   123    87    88    1
   124    87    86    1
   125   109   100   am
   126    66    65    1
   127    42    39    1
   128   107   105   ar
   129    69    70    1
   130    79    78    1
   131   104   103   ar
   132    60    61    1
   133    67    65    1
   134    64    65    1
   135    64    61    1
   136    71    70    2
   137   105   103   ar
   138    86    85    1
   139    61    62    1
   140    39    40    1
   141    39    38    1
   142   100    99    1
   143   100   101    2
   144   103   102    1
   145    92    91    2
   146    40    41    2
   147    78    77    1
   148    78    80    1
   149    99   102    1
   150    99    98    1
   151    77    74    1
   152    76    75    2
   153    85    82    1
   154    62    63    2
   155    91    98   am
   156    91    90    1
   157    73    74    1
   158    96    95   ar
   159    74    75    1
   160    95    94    1
   161    95    97   ar
   162    94    93    2
   163    93    90    1
   164    82    83    1
   165    82    81    1
   166    84    83    2
   167    83    89   am
   168    90    89    1
