@<TRIPOS>MOLECULE
tmp/4obsA01.pdb
 129 130 0 0 0
SMALL
GASTEIGER

@<TRIPOS>ATOM
      1  N        -26.6010    3.7700   18.0270 N.3   264  TRP264     -0.1227
      2  CA       -26.9120    2.4700   18.6210 C.3   264  TRP264      0.1737
      3  C        -28.0590    2.5400   19.6360 C.2   264  TRP264      0.2596
      4  O        -28.8160    1.5760   19.7710 O.2   264  TRP264     -0.2718
      5  CB       -25.6650    1.8560   19.2810 C.3   264  TRP264      0.0564
      6  CG       -25.3560    2.4270   20.6280 C.ar  264  TRP264      0.0003
      7  CD1      -24.5470    3.4870   20.9000 C.ar  264  TRP264      0.0946
      8  CD2      -25.8740    1.9800   21.8890 C.ar  264  TRP264      0.0152
      9  NE1      -24.5220    3.7250   22.2540 N.ar  264  TRP264     -0.2442
     10  CE2      -25.3310    2.8170   22.8840 C.ar  264  TRP264      0.0810
     11  CE3      -26.7480    0.9550   22.2710 C.ar  264  TRP264      0.0012
     12  CZ2      -25.6240    2.6590   24.2420 C.ar  264  TRP264      0.0191
     13  CZ3      -27.0390    0.7940   23.6280 C.ar  264  TRP264      0.0001
     14  CH2      -26.4820    1.6430   24.5920 C.ar  264  TRP264      0.0015
     15  N        -28.1680    3.6670   20.3460 N.am  265  SER265     -0.1938
     16  CA       -29.1040    3.8000   21.4680 C.3   265  SER265      0.2055
     17  C        -30.5000    4.2470   21.0450 C.2   265  SER265      0.2643
     18  O        -31.4380    4.1850   21.8390 O.2   265  SER265     -0.2714
     19  CB       -28.5500    4.7670   22.5180 C.3   265  SER265      0.2130
     20  OG       -28.5300    6.1010   22.0380 O.3   265  SER265     -0.2179
     21  N        -30.6310    4.7120   19.8060 N.am  266  LEU266     -0.1963
     22  CA       -31.9250    5.0840   19.2590 C.3   266  LEU266      0.1713
     23  C        -32.8440    3.8620   19.2190 C.2   266  LEU266      0.2458
     24  O        -32.5400    2.8820   18.5380 O.2   266  LEU266     -0.2730
     25  CB       -31.7480    5.6500   17.8530 C.3   266  LEU266      0.0310
     26  CG       -33.0070    6.0750   17.0950 C.3   266  LEU266      0.0022
     27  CD1      -33.6340    7.3160   17.7180 C.3   266  LEU266      0.0001
     28  CD2      -32.6610    6.3310   15.6370 C.3   266  LEU266      0.0001
     29  N        -33.9710    3.9110   19.9480 N.am  267  PRO267     -0.2727
     30  CA       -34.8530    2.7490   19.9390 C.3   267  PRO267      0.1402
     31  C        -35.5600    2.5670   18.6020 C.2   267  PRO267      0.2269
     32  O        -36.1180    3.5160   18.0650 O.2   267  PRO267     -0.2865
     33  CB       -35.8530    3.0500   21.0520 C.3   267  PRO267      0.0296
     34  CG       -35.8590    4.5340   21.1730 C.3   267  PRO267      0.0237
     35  CD       -34.4770    4.9900   20.8130 C.3   267  PRO267      0.0939
     36  N        -30.5540   -0.1680   27.7190 N.3   309  TYR309     -0.1227
     37  CA       -31.0370    0.6070   28.8560 C.3   309  TYR309      0.1736
     38  C        -32.5530    0.6170   28.8930 C.2   309  TYR309      0.2595
     39  O        -33.2020    0.5650   27.8480 O.2   309  TYR309     -0.2718
     40  CB       -30.5550    2.0510   28.7500 C.3   309  TYR309      0.0548
     41  CG       -29.0800    2.2270   28.9890 C.ar  309  TYR309     -0.0200
     42  CD1      -28.5730    2.2860   30.2840 C.ar  309  TYR309     -0.0009
     43  CD2      -28.1900    2.3420   27.9270 C.ar  309  TYR309     -0.0009
     44  CE1      -27.2220    2.4520   30.5160 C.ar  309  TYR309      0.0417
     45  CE2      -26.8340    2.5060   28.1520 C.ar  309  TYR309      0.0417
     46  CZ       -26.3610    2.5590   29.4500 C.ar  309  TYR309      0.1957
     47  OH       -25.0220    2.7300   29.6800 O.3   309  TYR309     -0.2866
     48  N        -33.1070    0.6850   30.1030 N.am  310  HIS310     -0.1962
     49  CA       -34.5320    0.9490   30.3060 C.3   310  HIS310      0.1772
     50  C        -34.8390    2.3280   29.7270 C.2   310  HIS310      0.2462
     51  O        -34.0460    3.2570   29.9130 O.2   310  HIS310     -0.2730
     52  CB       -34.8670    0.9110   31.8070 C.3   310  HIS310      0.0785
     53  CG       -36.2750    1.3100   32.1370 C.ar  310  HIS310      0.0821
     54  ND1      -36.6330    2.6100   32.4270 N.ar  310  HIS310     -0.2267
     55  CD2      -37.4100    0.5770   32.2450 C.ar  310  HIS310      0.1154
     56  CE1      -37.9290    2.6640   32.6830 C.ar  310  HIS310      0.1986
     57  NE2      -38.4240    1.4430   32.5830 N.ar  310  HIS310     -0.2212
     58  N        -35.9870    2.4790   29.0370 N.am  311  PRO311     -0.2716
     59  CA       -37.0910    1.5440   28.8170 C.3   311  PRO311      0.1536
     60  C        -37.0170    0.7560   27.5050 C.2   311  PRO311      0.2598
     61  O        -38.0640    0.3850   26.9660 O.2   311  PRO311     -0.2715
     62  CB       -38.2930    2.4870   28.7690 C.3   311  PRO311      0.0310
     63  CG       -37.7520    3.6700   28.0360 C.3   311  PRO311      0.0237
     64  CD       -36.2990    3.7910   28.4430 C.3   311  PRO311      0.0939
     65  N        -35.8060    0.4950   27.0070 N.am  312  HIS312     -0.1974
     66  CA       -35.6170   -0.1270   25.6930 C.3   312  HIS312      0.1656
     67  C        -34.7930   -1.4140   25.7660 C.2   312  HIS312      0.2291
     68  O        -33.7450   -1.5140   25.1370 O.2   312  HIS312     -0.2864
     69  CB       -34.9330    0.8640   24.7470 C.3   312  HIS312      0.0771
     70  CG       -35.6230    2.1860   24.6670 C.ar  312  HIS312      0.0820
     71  ND1      -36.9120    2.3200   24.2000 N.ar  312  HIS312     -0.2267
     72  CD2      -35.2090    3.4310   25.0000 C.ar  312  HIS312      0.1154
     73  CE1      -37.2620    3.5910   24.2480 C.ar  312  HIS312      0.1986
     74  NE2      -36.2480    4.2870   24.7330 N.ar  312  HIS312     -0.2212
     75  N        -32.8000   -1.4540   21.1490 N.3   316  GLN316     -0.1245
     76  CA       -31.5190   -0.8090   20.8320 C.3   316  GLN316      0.1566
     77  C        -30.6280   -1.7630   20.0350 C.2   316  GLN316      0.2260
     78  O        -30.9300   -2.9580   19.9410 O.2   316  GLN316     -0.2867
     79  CB       -30.8540   -0.3100   22.1130 C.3   316  GLN316      0.0367
     80  CG       -31.6410    0.8260   22.7520 C.3   316  GLN316      0.0905
     81  CD       -31.0880    1.2890   24.0890 C.2   316  GLN316      0.2608
     82  OE1      -30.7000    0.4810   24.9260 O.2   316  GLN316     -0.2717
     83  NE2      -31.0770    2.5980   24.3060 N.am  316  GLN316     -0.0878
     84  N        -31.1230   -6.5720   27.9320 N.3   322  ARG322     -0.1245
     85  CA       -30.8730   -6.5390   29.3730 C.3   322  ARG322      0.1563
     86  C        -32.1150   -6.1750   30.1820 C.2   322  ARG322      0.2260
     87  O        -32.8400   -5.2300   29.8610 O.2   322  ARG322     -0.2867
     88  CB       -29.7440   -5.5630   29.7260 C.3   322  ARG322      0.0307
     89  CG       -29.5340   -5.4330   31.2310 C.3   322  ARG322      0.0489
     90  CD       -28.2650   -4.6920   31.6020 C.3   322  ARG322      0.2205
     91  NE       -28.2360   -3.3400   31.0490 N.pl3 322  ARG322     -0.0865
     92  CZ       -27.4110   -2.3780   31.4490 C.cat 322  ARG322      0.5346
     93  NH1      -26.5390   -2.5950   32.4250 N.pl3 322  ARG322      0.1354
     94  NH2      -27.4660   -1.1850   30.8690 N.pl3 322  ARG322      0.1354
     95  N        -32.6580   -5.2450   34.0980 N.3   324  GLN324     -0.1245
     96  CA       -32.2040   -4.9780   35.4460 C.3   324  GLN324      0.1566
     97  C        -33.3980   -5.1730   36.3640 C.2   324  GLN324      0.2260
     98  O        -34.2880   -4.3190   36.4250 O.2   324  GLN324     -0.2867
     99  CB       -31.6580   -3.5600   35.5520 C.3   324  GLN324      0.0367
    100  CG       -30.3500   -3.3720   34.8030 C.3   324  GLN324      0.0905
    101  CD       -30.0650   -1.9180   34.5090 C.2   324  GLN324      0.2608
    102  OE1      -30.8350   -1.2670   33.8160 O.2   324  GLN324     -0.2717
    103  NE2      -28.9610   -1.3990   35.0330 N.am  324  GLN324     -0.0878
    104  N        -34.8670   -5.0110   39.6320 N.3   326  ASN326     -0.1240
    105  CA       -34.5880   -4.2590   40.8470 C.3   326  ASN326      0.1653
    106  C        -35.4710   -4.6060   42.0420 C.2   326  ASN326      0.2266
    107  O        -35.1680   -4.1950   43.1530 O.2   326  ASN326     -0.2867
    108  CB       -34.6830   -2.7600   40.5490 C.3   326  ASN326      0.1155
    109  CG       -33.7000   -2.3220   39.4790 C.2   326  ASN326      0.2627
    110  OD1      -32.7460   -3.0410   39.1630 O.2   326  ASN326     -0.2716
    111  ND2      -33.9300   -1.1360   38.9090 N.am  326  ASN326     -0.0877
    112  N        -42.0190   -4.5360   33.3410 N.3   448  VAL448     -0.1231
    113  CA       -40.7850   -3.7930   33.6020 C.3   448  VAL448      0.1692
    114  C        -39.8040   -4.6710   34.3750 C.2   448  VAL448      0.2592
    115  O        -38.6040   -4.6520   34.1150 O.2   448  VAL448     -0.2718
    116  CB       -41.0770   -2.5050   34.4070 C.3   448  VAL448      0.0266
    117  CG1      -39.7930   -1.7650   34.7450 C.3   448  VAL448      0.0020
    118  CG2      -42.0200   -1.5850   33.6300 C.3   448  VAL448      0.0020
    119  N        -40.3350   -5.4190   35.3400 N.am  449  PHE449     -0.1976
    120  CA       -39.5740   -6.3900   36.0980 C.3   449  PHE449      0.1639
    121  C        -40.2210   -7.7500   35.8970 C.2   449  PHE449      0.2290
    122  O        -41.0530   -8.1630   36.6960 O.2   449  PHE449     -0.2864
    123  CB       -39.5570   -6.0200   37.5820 C.3   449  PHE449      0.0560
    124  CG       -39.0010   -4.6530   37.8560 C.ar  449  PHE449     -0.0200
    125  CD1      -37.7290   -4.3080   37.4180 C.ar  449  PHE449     -0.0042
    126  CD2      -39.7490   -3.7110   38.5530 C.ar  449  PHE449     -0.0042
    127  CE1      -37.2110   -3.0400   37.6660 C.ar  449  PHE449     -0.0003
    128  CE2      -39.2400   -2.4400   38.8040 C.ar  449  PHE449     -0.0003
    129  CZ       -37.9660   -2.1080   38.3670 C.ar  449  PHE449     -0.0000
@<TRIPOS>BOND
     1    28    26    1
     2    26    27    1
     3    26    25    1
     4    25    22    1
     5     1     2    1
     6    32    31    2
     7    24    23    2
     8    31    30    1
     9     2     5    1
    10     2     3    1
    11    23    22    1
    12    23    29   am
    13    22    21    1
    14     5     6    1
    15     3     4    2
    16     3    15   am
    17    21    17   am
    18    30    29    1
    19    30    33    1
    20    78    77    2
    21    29    35    1
    22    77    76    1
    23    15    16    1
    24     6     7   ar
    25     6     8   ar
    26    35    34    1
    27    76    75    1
    28    76    79    1
    29     7     9   ar
    30    17    16    1
    31    17    18    2
    32    33    34    1
    33    16    19    1
    34     8    11   ar
    35     8    10   ar
    36    20    19    1
    37    79    80    1
    38     9    10   ar
    39    11    13   ar
    40    80    81    1
    41    10    12   ar
    42    13    14   ar
    43    81    83   am
    44    81    82    2
    45    71    73   ar
    46    71    70   ar
    47    12    14   ar
    48    73    74   ar
    49    70    69    1
    50    70    72   ar
    51    74    72   ar
    52    69    66    1
    53    68    67    2
    54    66    67    1
    55    66    65    1
    56    61    60    2
    57    65    60   am
    58    60    59    1
    59    36    37    1
    60    39    38    2
    61    43    45   ar
    62    43    41   ar
    63    84    85    1
    64    63    64    1
    65    63    62    1
    66    45    46   ar
    67    64    58    1
    68    40    37    1
    69    40    41    1
    70    62    59    1
    71    59    58    1
    72    37    38    1
    73    38    48   am
    74    41    42   ar
    75    58    50   am
    76    85    88    1
    77    85    86    1
    78    46    47    1
    79    46    44   ar
    80    88    89    1
    81    50    51    2
    82    50    49    1
    83    87    86    2
    84    48    49    1
    85    42    44   ar
    86    49    52    1
    87    94    92    1
    88    91    92    2
    89    91    90    1
    90    89    90    1
    91    92    93    1
    92    52    53    1
    93    53    55   ar
    94    53    54   ar
    95    55    57   ar
    96    54    56   ar
    97    57    56   ar
    98   112   113    1
    99   113   114    1
   100   113   116    1
   101   118   116    1
   102   102   101    2
   103    95    96    1
   104   115   114    2
   105   114   119   am
   106   116   117    1
   107   101   100    1
   108   101   103   am
   109   100    99    1
   110   119   120    1
   111    96    99    1
   112    96    97    1
   113   121   120    1
   114   121   122    2
   115   120   123    1
   116    97    98    2
   117   125   127   ar
   118   125   124   ar
   119   123   124    1
   120   127   129   ar
   121   124   126   ar
   122   129   128   ar
   123   126   128   ar
   124   111   109   am
   125   110   109    2
   126   109   108    1
   127   104   105    1
   128   108   105    1
   129   105   106    1
   130   106   107    2
