@<TRIPOS>MOLECULE
tmp/4obuF00.pdb
 128 119 0 0 0
SMALL
GASTEIGER

@<TRIPOS>ATOM
      1  N         40.7100   70.7740   38.6450 N.3    83  PHE83      -0.1227
      2  CA        40.0000   70.1310   39.7420 C.3    83  PHE83       0.1736
      3  C         40.8490   69.0660   40.4200 C.2    83  PHE83       0.2595
      4  O         40.4540   68.5240   41.4520 O.2    83  PHE83      -0.2718
      5  CB        38.6860   69.5150   39.2540 C.3    83  PHE83       0.0547
      6  CG        38.8580   68.2200   38.5070 C.ar   83  PHE83      -0.0202
      7  CD1       39.6320   68.1600   37.3590 C.ar   83  PHE83      -0.0042
      8  CD2       38.2320   67.0650   38.9470 C.ar   83  PHE83      -0.0042
      9  CE1       39.7870   66.9720   36.6720 C.ar   83  PHE83      -0.0003
     10  CE2       38.3820   65.8740   38.2600 C.ar   83  PHE83      -0.0003
     11  CZ        39.1610   65.8280   37.1220 C.ar   83  PHE83      -0.0000
     12  N         42.0070   68.7610   39.8390 N.am   84  VAL84      -0.1980
     13  CA        42.8630   67.7140   40.3920 C.3    84  VAL84       0.1595
     14  C         43.3590   68.1170   41.7860 C.2    84  VAL84       0.2287
     15  O         43.2400   67.3360   42.7300 O.2    84  VAL84      -0.2864
     16  CB        44.0180   67.3080   39.4390 C.3    84  VAL84       0.0276
     17  CG1       44.9900   66.3790   40.1480 C.3    84  VAL84       0.0022
     18  CG2       43.4640   66.6570   38.1830 C.3    84  VAL84       0.0022
     19  N         41.9700   57.5680   47.3360 N.3   143  GLY143     -0.1210
     20  CA        41.6340   58.2440   46.0990 C.3   143  GLY143      0.1956
     21  C         40.7790   57.4030   45.1750 C.2   143  GLY143      0.2612
     22  O         40.4030   56.2800   45.5060 O.2   143  GLY143     -0.2717
     23  N         40.4770   57.9570   44.0060 N.am  144  GLY144     -0.1942
     24  CA        39.6120   57.3040   43.0410 C.3   144  GLY144      0.2014
     25  C         40.1670   56.0090   42.4880 C.2   144  GLY144      0.2639
     26  O         39.4180   55.0580   42.2610 O.2   144  GLY144     -0.2714
     27  N         41.4750   55.9810   42.2510 N.am  145  SER145     -0.1949
     28  CA        42.1450   54.7770   41.7720 C.3   145  SER145      0.1924
     29  C         41.8960   53.6250   42.7370 C.2   145  SER145      0.2314
     30  O         41.5300   52.5240   42.3280 O.2   145  SER145     -0.2863
     31  CB        43.6480   55.0190   41.6210 C.3   145  SER145      0.2116
     32  OG        43.9120   55.9510   40.5870 O.3   145  SER145     -0.2180
     33  N         38.2710   52.5280   42.7050 N.3   148  ASN148     -0.1240
     34  CA        38.0050   51.7090   41.5290 C.3   148  ASN148      0.1653
     35  C         38.4970   50.2740   41.6690 C.2   148  ASN148      0.2266
     36  O         37.7540   49.3290   41.4050 O.2   148  ASN148     -0.2867
     37  CB        38.6140   52.3530   40.2820 C.3   148  ASN148      0.1155
     38  CG        37.8560   53.5850   39.8370 C.2   148  ASN148      0.2627
     39  OD1       36.6570   53.7100   40.0840 O.2   148  ASN148     -0.2716
     40  ND2       38.5510   54.5050   39.1770 N.am  148  ASN148     -0.0877
     41  N         38.3070   57.3230   32.8690 N.3   177  HIS177     -0.1241
     42  CA        39.5950   57.6220   33.4870 C.3   177  HIS177      0.1621
     43  C         40.5740   56.4560   33.3620 C.2   177  HIS177      0.2264
     44  O         40.1710   55.2960   33.3150 O.2   177  HIS177     -0.2867
     45  CB        39.4140   58.0020   34.9570 C.3   177  HIS177      0.0745
     46  CG        40.6520   58.5620   35.5900 C.ar  177  HIS177      0.0817
     47  ND1       41.2890   57.9510   36.6420 N.ar  177  HIS177     -0.2268
     48  CD2       41.3680   59.6760   35.3030 C.ar  177  HIS177      0.1154
     49  CE1       42.3520   58.6650   36.9840 C.ar  177  HIS177      0.1986
     50  NE2       42.4180   59.7140   36.1900 N.ar  177  HIS177     -0.2212
     51  N         42.6970   55.1790   35.3930 N.3   179  SER179     -0.1217
     52  CA        42.8750   54.3260   36.5660 C.3   179  SER179      0.1889
     53  C         42.0570   53.0390   36.4810 C.2   179  SER179      0.2288
     54  O         42.4130   52.0320   37.0890 O.2   179  SER179     -0.2866
     55  CB        42.5060   55.0860   37.8440 C.3   179  SER179      0.2089
     56  OG        41.1100   55.3220   37.9230 O.3   179  SER179     -0.2183
     57  N         30.8460   56.1580   33.9070 N.3   230  THR230     -0.1218
     58  CA        31.4060   57.2990   34.6130 C.3   230  THR230      0.1862
     59  C         30.3650   58.3830   34.8560 C.2   230  THR230      0.2287
     60  O         29.7470   58.8920   33.9210 O.2   230  THR230     -0.2866
     61  CB        32.6060   57.8970   33.8560 C.3   230  THR230      0.1770
     62  OG1       33.6100   56.8890   33.6830 O.3   230  THR230     -0.2211
     63  CG2       33.1980   59.0590   34.6350 C.3   230  THR230      0.0375
     64  N         30.4520   61.7810   35.5880 N.3   232  GLY232     -0.1225
     65  CA        31.3030   62.9570   35.6310 C.3   232  GLY232      0.1811
     66  C         32.6830   62.7090   35.0470 C.2   232  GLY232      0.2280
     67  O         33.6640   62.5990   35.7820 O.2   232  GLY232     -0.2866
     68  N         36.2990   63.0650   33.4880 N.3   234  THR234     -0.1218
     69  CA        37.4070   63.9730   33.7800 C.3   234  THR234      0.1862
     70  C         37.4590   65.1690   32.8310 C.2   234  THR234      0.2287
     71  O         37.6390   66.3100   33.2610 O.2   234  THR234     -0.2866
     72  CB        38.7610   63.2280   33.7330 C.3   234  THR234      0.1770
     73  OG1       38.8550   62.3310   34.8470 O.3   234  THR234     -0.2211
     74  CG2       39.9250   64.2070   33.7810 C.3   234  THR234      0.0375
     75  N         31.9680   55.0420   38.1550 N.3   259  ASP259     -0.1239
     76  CA        33.0880   55.8800   38.5560 C.3   259  ASP259      0.1674
     77  C         32.5950   57.3090   38.7380 C.2   259  ASP259      0.2266
     78  O         32.5450   58.0910   37.7880 O.2   259  ASP259     -0.2867
     79  CB        34.2070   55.8310   37.5140 C.3   259  ASP259      0.1410
     80  CG        35.3990   56.6960   37.8920 C.2   259  ASP259      0.3668
     81  OD1       35.5690   56.9910   39.0950 O.co2 259  ASP259     -0.2456
     82  OD2       36.1670   57.0850   36.9860 O.co2 259  ASP259     -0.2456
     83  N         33.9730   59.5570   40.9340 N.3   261  ALA261     -0.1231
     84  CA        35.0030   60.2120   41.7320 C.3   261  ALA261      0.1694
     85  C         34.7530   61.7150   41.8160 C.2   261  ALA261      0.2592
     86  O         34.9120   62.3260   42.8720 O.2   261  ALA261     -0.2718
     87  CB        36.3820   59.9300   41.1540 C.3   261  ALA261      0.0304
     88  N         34.3450   62.3020   40.6960 N.am  262  TYR262     -0.1976
     89  CA        34.0630   63.7300   40.6390 C.3   262  TYR262      0.1639
     90  C         32.5690   64.0190   40.7710 C.2   262  TYR262      0.2290
     91  O         32.1480   64.7800   41.6410 O.2   262  TYR262     -0.2864
     92  CB        34.5960   64.3200   39.3310 C.3   262  TYR262      0.0560
     93  CG        34.2310   65.7710   39.1100 C.ar  262  TYR262     -0.0198
     94  CD1       34.8240   66.7790   39.8590 C.ar  262  TYR262     -0.0009
     95  CD2       33.3010   66.1350   38.1460 C.ar  262  TYR262     -0.0009
     96  CE1       34.4980   68.1070   39.6580 C.ar  262  TYR262      0.0417
     97  CE2       32.9680   67.4580   37.9390 C.ar  262  TYR262      0.0417
     98  CZ        33.5690   68.4410   38.6960 C.ar  262  TYR262      0.1957
     99  OH        33.2370   69.7590   38.4880 O.3   262  TYR262     -0.2866
    100  N         35.1160   60.8210   45.3480 N.3   288  ASP288     -0.1239
    101  CA        36.2320   61.5370   45.9630 C.3   288  ASP288      0.1674
    102  C         35.7540   62.7800   46.7020 C.2   288  ASP288      0.2266
    103  O         35.0720   63.6290   46.1270 O.2   288  ASP288     -0.2867
    104  CB        37.2710   61.9330   44.9100 C.3   288  ASP288      0.1410
    105  CG        37.9160   60.7340   44.2450 C.2   288  ASP288      0.3668
    106  OD1       37.3120   59.6410   44.2720 O.co2 288  ASP288     -0.2456
    107  OD2       39.0230   60.8870   43.6860 O.co2 288  ASP288     -0.2456
    108  N         37.7730   66.1660   45.8120 N.3   291  LYS291     -0.1245
    109  CA        37.4420   66.8120   44.5480 C.3   291  LYS291      0.1561
    110  C         36.3700   67.8940   44.6540 C.2   291  LYS291      0.2260
    111  O         36.5980   69.0370   44.2620 O.2   291  LYS291     -0.2867
    112  CB        37.0450   65.7720   43.5010 C.3   291  LYS291      0.0271
    113  CG        38.2320   65.1990   42.7570 C.3   291  LYS291      0.0035
    114  CD        37.8140   64.1690   41.7310 C.3   291  LYS291      0.0206
    115  CE        39.0080   63.7370   40.9090 C.3   291  LYS291      0.1093
    116  NZ        40.0770   63.1270   41.7470 N.3   291  LYS291     -0.1314
    117  N         43.6940   66.2090   49.9450 N.3   297  TYR297     -0.1241
    118  CA        44.0830   64.8790   49.4930 C.3   297  TYR297      0.1605
    119  C         44.7430   64.1150   50.6390 C.2   297  TYR297      0.2264
    120  O         45.6060   64.6550   51.3300 O.2   297  TYR297     -0.2867
    121  CB        45.0350   64.9870   48.3010 C.3   297  TYR297      0.0534
    122  CG        44.8340   63.9090   47.2570 C.ar  297  TYR297     -0.0201
    123  CD1       45.4300   62.6610   47.3900 C.ar  297  TYR297     -0.0009
    124  CD2       44.0380   64.1380   46.1420 C.ar  297  TYR297     -0.0009
    125  CE1       45.2420   61.6730   46.4380 C.ar  297  TYR297      0.0417
    126  CE2       43.8450   63.1590   45.1870 C.ar  297  TYR297      0.0417
    127  CZ        44.4480   61.9280   45.3400 C.ar  297  TYR297      0.1957
    128  OH        44.2570   60.9510   44.3900 O.3   297  TYR297     -0.2866
@<TRIPOS>BOND
     1    70    71    2
     2    70    69    1
     3    41    42    1
     4    44    43    2
     5    43    42    1
     6    42    45    1
     7    68    69    1
     8    62    61    1
     9    72    69    1
    10    72    74    1
    11    72    73    1
    12    61    58    1
    13    61    63    1
    14    57    58    1
    15    60    59    2
    16    58    59    1
    17    45    46    1
    18    66    65    1
    19    66    67    2
    20    48    46   ar
    21    48    50   ar
    22    51    52    1
    23    64    65    1
    24    46    47   ar
    25    50    49   ar
    26    53    52    1
    27    53    54    2
    28    52    55    1
    29    47    49   ar
    30     9    11   ar
    31     9     7   ar
    32    82    80   ar
    33    11    10   ar
    34     7     6   ar
    35    79    80    1
    36    79    76    1
    37    78    77    2
    38    55    56    1
    39    80    81   ar
    40    97    95   ar
    41    97    98   ar
    42    95    93   ar
    43    75    76    1
    44    18    16    1
    45    10     8   ar
    46    99    98    1
    47     6     8   ar
    48     6     5    1
    49    76    77    1
    50     1     2    1
    51    98    96   ar
    52    93    92    1
    53    93    94   ar
    54    40    38   am
    55     5     2    1
    56    92    89    1
    57    16    17    1
    58    16    13    1
    59    96    94   ar
    60     2     3    1
    61    38    39    2
    62    38    37    1
    63    12    13    1
    64    12     3   am
    65    37    34    1
    66    13    14    1
    67     3     4    2
    68    32    31    1
    69    89    88    1
    70    89    90    1
    71    88    85   am
    72    90    91    2
    73   115   114    1
    74   115   116    1
    75    83    84    1
    76    87    84    1
    77    36    35    2
    78    34    35    1
    79    34    33    1
    80    31    28    1
    81   114   113    1
    82    84    85    1
    83    28    27    1
    84    28    29    1
    85    14    15    2
    86    85    86    2
    87    27    25   am
    88    26    25    2
    89    30    29    2
    90    25    24    1
    91   113   112    1
    92    24    23    1
    93   112   109    1
    94   107   105   ar
    95    23    21   am
    96   105   106   ar
    97   105   104    1
    98   111   110    2
    99   128   127    1
   100   109   110    1
   101   109   108    1
   102   104   101    1
   103    21    22    2
   104    21    20    1
   105   126   127   ar
   106   126   124   ar
   107   127   125   ar
   108   100   101    1
   109   101   102    1
   110    20    19    1
   111   103   102    2
   112   124   122   ar
   113   125   123   ar
   114   122   123   ar
   115   122   121    1
   116   121   118    1
   117   118   117    1
   118   118   119    1
   119   119   120    2
