@<TRIPOS>MOLECULE
tmp/4obvD00.pdb
 88 85 0 0 0
SMALL
GASTEIGER

@<TRIPOS>ATOM
      1  N        160.8210  138.8590   40.6650 N.3   105  HIS105     -0.1241
      2  CA       162.2660  138.8540   40.4910 C.3   105  HIS105      0.1621
      3  C        162.8380  137.4540   40.6950 C.2   105  HIS105      0.2264
      4  O        163.0770  137.0260   41.8240 O.2   105  HIS105     -0.2867
      5  CB       162.9300  139.8400   41.4510 C.3   105  HIS105      0.0745
      6  CG       164.4110  139.9430   41.2750 C.ar  105  HIS105      0.0817
      7  ND1      165.2880  139.0220   41.8090 N.ar  105  HIS105     -0.2268
      8  CD2      165.1730  140.8420   40.6070 C.ar  105  HIS105      0.1154
      9  CE1      166.5270  139.3580   41.4870 C.ar  105  HIS105      0.1986
     10  NE2      166.4810  140.4580   40.7600 N.ar  105  HIS105     -0.2212
     11  N        166.6280  134.4570   42.1300 N.3   108  GLY108     -0.1225
     12  CA       166.8080  134.5470   43.5660 C.3   108  GLY108      0.1811
     13  C        165.7650  133.6750   44.2360 C.2   108  GLY108      0.2280
     14  O        164.6160  133.6340   43.7980 O.2   108  GLY108     -0.2866
     15  N        163.4050  135.3280   47.7700 N.3   111  LEU111     -0.1245
     16  CA       162.3690  136.2810   47.3810 C.3   111  LEU111      0.1561
     17  C        161.2720  135.6270   46.5430 C.2   111  LEU111      0.2260
     18  O        160.2080  136.2110   46.3350 O.2   111  LEU111     -0.2867
     19  CB       162.9880  137.4490   46.6110 C.3   111  LEU111      0.0270
     20  CG       162.6020  138.8500   47.0850 C.3   111  LEU111      0.0019
     21  CD1      162.9040  139.0150   48.5650 C.3   111  LEU111      0.0001
     22  CD2      163.3240  139.9080   46.2650 C.3   111  LEU111      0.0001
     23  N        174.7910  143.2670   50.2110 N.3   320  TYR320     -0.1227
     24  CA       173.3510  143.4790   50.3560 C.3   320  TYR320      0.1736
     25  C        172.5480  142.1860   50.5080 C.2   320  TYR320      0.2595
     26  O        171.3230  142.1960   50.3930 O.2   320  TYR320     -0.2718
     27  CB       172.8180  144.2710   49.1590 C.3   320  TYR320      0.0548
     28  CG       173.8780  144.6340   48.1410 C.ar  320  TYR320     -0.0200
     29  CD1      174.6400  145.7860   48.2840 C.ar  320  TYR320     -0.0009
     30  CD2      174.1140  143.8250   47.0370 C.ar  320  TYR320     -0.0009
     31  CE1      175.6100  146.1210   47.3560 C.ar  320  TYR320      0.0417
     32  CE2      175.0810  144.1510   46.1040 C.ar  320  TYR320      0.0417
     33  CZ       175.8260  145.3000   46.2680 C.ar  320  TYR320      0.1957
     34  OH       176.7900  145.6270   45.3410 O.3   320  TYR320     -0.2866
     35  N        173.2370  141.0820   50.7750 N.am  321  LEU321     -0.1980
     36  CA       172.5890  139.7790   50.9030 C.3   321  LEU321      0.1596
     37  C        173.5420  138.7720   51.5390 C.2   321  LEU321      0.2287
     38  O        174.6600  138.6090   51.0490 O.2   321  LEU321     -0.2864
     39  CB       172.1240  139.2780   49.5320 C.3   321  LEU321      0.0297
     40  CG       172.9910  139.6840   48.3350 C.3   321  LEU321      0.0022
     41  CD1      173.1660  138.5250   47.3680 C.3   321  LEU321      0.0001
     42  CD2      172.3870  140.8840   47.6190 C.3   321  LEU321      0.0001
     43  N        170.9590  137.0660   51.3110 N.3   323  ASP323     -0.1239
     44  CA       169.9840  136.2690   50.5740 C.3   323  ASP323      0.1674
     45  C        170.4940  134.8400   50.4250 C.2   323  ASP323      0.2266
     46  O        170.0520  134.0910   49.5530 O.2   323  ASP323     -0.2867
     47  CB       169.6870  136.8890   49.2070 C.3   323  ASP323      0.1410
     48  CG       168.6500  137.9970   49.2830 C.2   323  ASP323      0.3668
     49  OD1      167.7000  137.8680   50.0840 O.co2 323  ASP323     -0.2456
     50  OD2      168.7840  138.9950   48.5440 O.co2 323  ASP323     -0.2456
     51  N        171.8890  133.2220   40.5840 N.3   331  TRP331     -0.1241
     52  CA       172.8470  134.2750   40.2720 C.3   331  TRP331      0.1605
     53  C        174.2380  133.8290   40.7110 C.2   331  TRP331      0.2264
     54  O        175.2460  134.4060   40.3060 O.2   331  TRP331     -0.2867
     55  CB       172.4630  135.6120   40.9280 C.3   331  TRP331      0.0550
     56  CG       172.4240  135.6350   42.4400 C.ar  331  TRP331      0.0003
     57  CD1      173.4030  135.2200   43.2990 C.ar  331  TRP331      0.0946
     58  CD2      171.3680  136.1520   43.2620 C.ar  331  TRP331      0.0152
     59  NE1      173.0100  135.4200   44.6000 N.ar  331  TRP331     -0.2442
     60  CE2      171.7660  135.9930   44.6050 C.ar  331  TRP331      0.0810
     61  CE3      170.1200  136.7240   42.9920 C.ar  331  TRP331      0.0012
     62  CZ2      170.9600  136.3820   45.6730 C.ar  331  TRP331      0.0191
     63  CZ3      169.3220  137.1080   44.0540 C.ar  331  TRP331      0.0001
     64  CH2      169.7450  136.9360   45.3780 C.ar  331  TRP331      0.0015
     65  N        173.8970  136.1730   34.9850 N.3   336  GLU336     -0.1231
     66  CA       173.0790  137.3410   35.2720 C.3   336  GLU336      0.1699
     67  C        172.5940  137.2840   36.7140 C.2   336  GLU336      0.2592
     68  O        172.6690  136.2380   37.3590 O.2   336  GLU336     -0.2718
     69  CB       171.8980  137.4300   34.3040 C.3   336  GLU336      0.0402
     70  CG       171.2380  136.0950   34.0030 C.3   336  GLU336      0.1161
     71  CD       170.3810  136.1390   32.7510 C.2   336  GLU336      0.3649
     72  OE1      170.2770  137.2210   32.1350 O.co2 336  GLU336     -0.2457
     73  OE2      169.8170  135.0890   32.3780 O.co2 336  GLU336     -0.2457
     74  N        172.0990  138.4090   37.2170 N.am  337  LEU337     -0.1966
     75  CA       171.6800  138.4900   38.6090 C.3   337  LEU337      0.1728
     76  C        170.1590  138.6140   38.7140 C.2   337  LEU337      0.2616
     77  O        169.5150  137.8270   39.4080 O.2   337  LEU337     -0.2715
     78  CB       172.4040  139.6500   39.3040 C.3   337  LEU337      0.0311
     79  CG       172.1600  139.9490   40.7820 C.3   337  LEU337      0.0022
     80  CD1      172.4630  138.7300   41.6170 C.3   337  LEU337      0.0001
     81  CD2      173.0960  141.0640   41.1970 C.3   337  LEU337      0.0001
     82  N        169.5850  139.5950   38.0240 N.am  338  THR338     -0.1951
     83  CA       168.1320  139.7080   37.9430 C.3   338  THR338      0.1897
     84  C        167.6270  138.9820   36.7070 C.2   338  THR338      0.2313
     85  O        168.1460  139.1740   35.6070 O.2   338  THR338     -0.2863
     86  CB       167.6520  141.1610   37.8770 C.3   338  THR338      0.1794
     87  OG1      167.6330  141.5940   36.5110 O.3   338  THR338     -0.2208
     88  CG2      168.5600  142.0530   38.6840 C.3   338  THR338      0.0378
@<TRIPOS>BOND
     1    72    71   ar
     2    73    71   ar
     3    71    70    1
     4    70    69    1
     5    69    66    1
     6    65    66    1
     7    66    67    1
     8    85    84    2
     9    87    86    1
    10    84    83    1
    11    67    74   am
    12    67    68    2
    13    74    75    1
    14    86    83    1
    15    86    88    1
    16    83    82    1
    17    82    76   am
    18    75    76    1
    19    75    78    1
    20    76    77    2
    21    78    79    1
    22    52    51    1
    23    52    53    1
    24    52    55    1
    25    54    53    2
    26     2     1    1
    27     2     3    1
    28     2     5    1
    29     8    10   ar
    30     8     6   ar
    31     3     4    2
    32    10     9   ar
    33    79    81    1
    34    79    80    1
    35    55    56    1
    36     6     5    1
    37     6     7   ar
    38     9     7   ar
    39    11    12    1
    40    56    58   ar
    41    56    57   ar
    42    61    58   ar
    43    61    63   ar
    44    58    60   ar
    45    57    59   ar
    46    12    13    1
    47    14    13    2
    48    63    64   ar
    49    59    60   ar
    50    60    62   ar
    51    34    33    1
    52    64    62   ar
    53    32    33   ar
    54    32    30   ar
    55    22    20    1
    56    33    31   ar
    57    18    17    2
    58    17    16    1
    59    19    20    1
    60    19    16    1
    61    30    28   ar
    62    20    21    1
    63    31    29   ar
    64    41    40    1
    65    16    15    1
    66    42    40    1
    67    28    29   ar
    68    28    27    1
    69    40    39    1
    70    50    48   ar
    71    27    24    1
    72    47    48    1
    73    47    44    1
    74    48    49   ar
    75    39    36    1
    76    46    45    2
    77    23    24    1
    78    24    25    1
    79    26    25    2
    80    45    44    1
    81    25    35   am
    82    44    43    1
    83    35    36    1
    84    36    37    1
    85    38    37    2
