@<TRIPOS>MOLECULE
tmp/4obvD01.pdb
 107 103 0 0 0
SMALL
GASTEIGER

@<TRIPOS>ATOM
      1  N        145.6380  135.3020   14.1350 N.3    25  LYS25      -0.1245
      2  CA       146.5370  134.1530   14.0810 C.3    25  LYS25       0.1561
      3  C        145.7760  132.8580   13.7920 C.2    25  LYS25       0.2260
      4  O        146.3740  131.8420   13.4380 O.2    25  LYS25      -0.2867
      5  CB       147.3310  134.0330   15.3850 C.3    25  LYS25       0.0271
      6  CG       148.3810  132.9330   15.3730 C.3    25  LYS25       0.0035
      7  CD       149.2280  132.9560   16.6350 C.3    25  LYS25       0.0206
      8  CE       150.3680  131.9560   16.5420 C.3    25  LYS25       0.1093
      9  NZ       151.2350  131.9840   17.7510 N.3    25  LYS25      -0.1314
     10  N        146.2600  131.8050   10.1590 N.3    28  ILE28      -0.1245
     11  CA       147.6830  131.8620    9.8390 C.3    28  ILE28       0.1561
     12  C        148.0490  131.0510    8.5950 C.2    28  ILE28       0.2260
     13  O        148.9360  131.4440    7.8380 O.2    28  ILE28      -0.2867
     14  CB       148.5410  131.3630   11.0230 C.3    28  ILE28       0.0252
     15  CG1      150.0290  131.5750   10.7330 C.3    28  ILE28       0.0019
     16  CG2      148.2500  129.8990   11.3190 C.3    28  ILE28       0.0019
     17  CD1      150.4110  133.0260   10.5360 C.3    28  ILE28       0.0001
     18  N        157.9150  127.8500   16.2300 N.3    87  PRO87      -0.2102
     19  CA       156.5340  127.3880   16.3730 C.3    87  PRO87       0.1504
     20  C        156.1300  127.3250   17.8410 C.2    87  PRO87       0.2576
     21  O        155.8850  126.2420   18.3730 O.2    87  PRO87      -0.2718
     22  CB       156.5680  125.9950   15.7460 C.3    87  PRO87       0.0282
     23  CG       157.9600  125.5220   15.9960 C.3    87  PRO87       0.0208
     24  CD       158.8390  126.7440   15.9180 C.3    87  PRO87       0.0893
     25  N        156.0680  128.4880   18.4830 N.am   88  ALA88      -0.1966
     26  CA       155.7720  128.5640   19.9070 C.3    88  ALA88       0.1728
     27  C        154.3360  128.1510   20.1950 C.2    88  ALA88       0.2617
     28  O        153.4060  128.5800   19.5110 O.2    88  ALA88      -0.2715
     29  CB       156.0350  129.9700   20.4290 C.3    88  ALA88       0.0334
     30  N        154.1640  127.3150   21.2120 N.am   89  SER89      -0.1936
     31  CA       152.8390  126.9050   21.6560 C.3    89  SER89       0.2055
     32  C        152.0520  128.0940   22.1920 C.2    89  SER89       0.2643
     33  O        152.6330  129.0700   22.6670 O.2    89  SER89      -0.2714
     34  CB       152.9460  125.8180   22.7270 C.3    89  SER89       0.2130
     35  OG       151.6850  125.5520   23.3120 O.3    89  SER89      -0.2179
     36  N        150.7280  128.0130   22.1080 N.am   90  SER90      -0.1949
     37  CA       149.8710  129.0640   22.6410 C.3    90  SER90       0.1924
     38  C        149.9500  129.0670   24.1610 C.2    90  SER90       0.2314
     39  O        149.7210  130.0910   24.8040 O.2    90  SER90      -0.2863
     40  CB       148.4230  128.8800   22.1790 C.3    90  SER90       0.2116
     41  OG       148.2910  129.1440   20.7930 O.3    90  SER90      -0.2180
     42  N        159.0790  124.5290   21.5860 N.3   294  PHE294     -0.1241
     43  CA       157.8980  125.3270   21.2790 C.3   294  PHE294      0.1605
     44  C        157.6310  126.4140   22.3190 C.2   294  PHE294      0.2264
     45  O        156.5200  126.5370   22.8350 O.2   294  PHE294     -0.2867
     46  CB       156.6780  124.4140   21.1440 C.3   294  PHE294      0.0534
     47  CG       156.9310  123.1940   20.3020 C.ar  294  PHE294     -0.0203
     48  CD1      156.9090  123.2730   18.9190 C.ar  294  PHE294     -0.0042
     49  CD2      157.2040  121.9720   20.8940 C.ar  294  PHE294     -0.0042
     50  CE1      157.1440  122.1530   18.1410 C.ar  294  PHE294     -0.0003
     51  CE2      157.4420  120.8490   20.1210 C.ar  294  PHE294     -0.0003
     52  CZ       157.4120  120.9400   18.7430 C.ar  294  PHE294     -0.0000
     53  N        150.3060  120.3480   27.9850 N.3   353  LEU353     -0.1245
     54  CA       150.4300  119.4870   26.8100 C.3   353  LEU353      0.1561
     55  C        150.9040  118.0730   27.1390 C.2   353  LEU353      0.2260
     56  O        150.4350  117.1020   26.5460 O.2   353  LEU353     -0.2867
     57  CB       151.3830  120.1190   25.7930 C.3   353  LEU353      0.0270
     58  CG       150.9720  121.4810   25.2330 C.3   353  LEU353      0.0019
     59  CD1      151.8870  121.8850   24.0880 C.3   353  LEU353      0.0001
     60  CD2      149.5200  121.4570   24.7800 C.3   353  LEU353      0.0001
     61  N        152.9380  114.3490   24.0570 N.3   357  LEU357     -0.1231
     62  CA       152.5160  115.1740   22.9310 C.3   357  LEU357      0.1693
     63  C        153.6750  115.9830   22.3600 C.2   357  LEU357      0.2591
     64  O        153.8160  116.1080   21.1440 O.2   357  LEU357     -0.2718
     65  CB       151.3870  116.1160   23.3520 C.3   357  LEU357      0.0284
     66  CG       150.9830  117.1680   22.3160 C.3   357  LEU357      0.0019
     67  CD1      150.5770  116.5070   21.0080 C.3   357  LEU357      0.0001
     68  CD2      149.8620  118.0460   22.8490 C.3   357  LEU357      0.0001
     69  N        154.5010  116.5320   23.2450 N.am  358  ILE358     -0.1980
     70  CA       155.6450  117.3320   22.8280 C.3   358  ILE358      0.1595
     71  C        156.6650  116.4770   22.0830 C.2   358  ILE358      0.2287
     72  O        157.2670  116.9220   21.1060 O.2   358  ILE358     -0.2864
     73  CB       156.3270  118.0090   24.0310 C.3   358  ILE358      0.0276
     74  CG1      155.3560  118.9740   24.7150 C.3   358  ILE358      0.0022
     75  CG2      157.5880  118.7350   23.5900 C.3   358  ILE358      0.0022
     76  CD1      155.9540  119.7120   25.8900 C.3   358  ILE358      0.0001
     77  N        155.2320  115.8490   18.6380 N.3   361  ALA361     -0.1245
     78  CA       155.2740  117.0750   17.8520 C.3   361  ALA361      0.1562
     79  C        156.6740  117.2940   17.2940 C.2   361  ALA361      0.2260
     80  O        156.8410  117.8400   16.2050 O.2   361  ALA361     -0.2867
     81  CB       154.8420  118.2620   18.6930 C.3   361  ALA361      0.0290
     82  N        157.0220  122.8210   12.5600 N.3   443  HIS443     -0.1227
     83  CA       155.6860  123.2330   12.9780 C.3   443  HIS443      0.1737
     84  C        154.7310  122.0430   12.9720 C.2   443  HIS443      0.2438
     85  O        154.5700  121.3750   11.9510 O.2   443  HIS443     -0.2733
     86  CB       155.1540  124.3430   12.0720 C.3   443  HIS443      0.0758
     87  CG       154.0530  125.1470   12.6890 C.ar  443  HIS443      0.0818
     88  ND1      152.8300  124.6050   13.0210 N.ar  443  HIS443     -0.2268
     89  CD2      153.9920  126.4540   13.0380 C.ar  443  HIS443      0.1154
     90  CE1      152.0640  125.5430   13.5470 C.ar  443  HIS443      0.1986
     91  NE2      152.7450  126.6750   13.5700 N.ar  443  HIS443     -0.2212
     92  N        154.0950  121.7740   14.1210 N.am  444  PRO444     -0.2718
     93  CA       153.2010  120.6240   14.3010 C.3   444  PRO444      0.1535
     94  C        151.9600  120.6700   13.4090 C.2   444  PRO444      0.2598
     95  O        151.3720  119.6250   13.1330 O.2   444  PRO444     -0.2715
     96  CB       152.8040  120.7170   15.7790 C.3   444  PRO444      0.0310
     97  CG       153.8830  121.5280   16.4150 C.3   444  PRO444      0.0237
     98  CD       154.2820  122.5240   15.3730 C.3   444  PRO444      0.0939
     99  N        151.5730  121.8610   12.9650 N.am  445  GLU445     -0.1978
    100  CA       150.3690  122.0090   12.1530 C.3   445  GLU445      0.1602
    101  C        150.6840  122.1400   10.6660 C.2   445  GLU445      0.2287
    102  O        149.8490  122.5990    9.8870 O.2   445  GLU445     -0.2864
    103  CB       149.5560  123.2200   12.6170 C.3   445  GLU445      0.0415
    104  CG       148.7170  122.9670   13.8600 C.3   445  GLU445      0.1163
    105  CD       147.9330  124.1920   14.2910 C.2   445  GLU445      0.3649
    106  OE1      147.0380  124.0550   15.1530 O.co2 445  GLU445     -0.2457
    107  OE2      148.2110  125.2920   13.7700 O.co2 445  GLU445     -0.2457
@<TRIPOS>BOND
     1    13    12    2
     2    12    11    1
     3    11    10    1
     4    11    14    1
     5   102   101    2
     6    17    15    1
     7   101   100    1
     8    15    14    1
     9    14    16    1
    10    85    84    2
    11    86    87    1
    12    86    83    1
    13   100   103    1
    14   100    99    1
    15    82    83    1
    16   103   104    1
    17    87    88   ar
    18    87    89   ar
    19    99    94   am
    20    84    83    1
    21    84    92   am
    22    88    90   ar
    23    89    91   ar
    24    95    94    2
    25    94    93    1
    26     4     3    2
    27    90    91   ar
    28   107   105   ar
    29     3     2    1
    30   104   105    1
    31     2     1    1
    32     2     5    1
    33    92    93    1
    34    92    98    1
    35   105   106   ar
    36    93    96    1
    37     6     5    1
    38     6     7    1
    39    98    97    1
    40    22    23    1
    41    22    19    1
    42    96    97    1
    43    24    23    1
    44    24    18    1
    45    80    79    2
    46    18    19    1
    47    19    20    1
    48     8     7    1
    49     8     9    1
    50    79    78    1
    51    20    21    2
    52    20    25   am
    53    78    77    1
    54    78    81    1
    55    50    52   ar
    56    50    48   ar
    57    25    26    1
    58    52    51   ar
    59    48    47   ar
    60    28    27    2
    61    26    27    1
    62    26    29    1
    63    51    49   ar
    64    27    30   am
    65    47    49   ar
    66    47    46    1
    67    41    40    1
    68    67    66    1
    69    72    71    2
    70    64    63    2
    71    46    43    1
    72    30    31    1
    73    43    42    1
    74    43    44    1
    75    31    32    1
    76    31    34    1
    77    71    70    1
    78    36    32   am
    79    36    37    1
    80    40    37    1
    81    32    33    2
    82    66    68    1
    83    66    65    1
    84    44    45    2
    85    63    62    1
    86    63    69   am
    87    37    38    1
    88    34    35    1
    89    70    69    1
    90    70    73    1
    91    62    65    1
    92    62    61    1
    93    75    73    1
    94    73    74    1
    95    59    58    1
    96    38    39    2
    97    74    76    1
    98    60    58    1
    99    58    57    1
   100    57    54    1
   101    56    55    2
   102    54    55    1
   103    54    53    1
