@<TRIPOS>MOLECULE
tmp/4obvD02.pdb
 154 145 0 0 0
SMALL
GASTEIGER

@<TRIPOS>ATOM
      1  N        157.9340  133.6000   11.9580 N.3    75  ALA75      -0.1245
      2  CA       158.5270  132.2980   12.2240 C.3    75  ALA75       0.1562
      3  C        157.5410  131.3910   12.9560 C.2    75  ALA75       0.2260
      4  O        157.8470  130.2340   13.2480 O.2    75  ALA75      -0.2867
      5  CB       159.8080  132.4540   13.0290 C.3    75  ALA75       0.0290
      6  N        157.1650  128.5550    7.5590 N.3    80  PHE80      -0.1241
      7  CA       158.4410  129.2330    7.7450 C.3    80  PHE80       0.1605
      8  C        159.5090  128.1590    7.9210 C.2    80  PHE80       0.2264
      9  O        159.5980  127.5290    8.9740 O.2    80  PHE80      -0.2867
     10  CB       158.3990  130.1740    8.9500 C.3    80  PHE80       0.0534
     11  CG       159.5940  131.0790    9.0560 C.ar   80  PHE80      -0.0203
     12  CD1      160.7580  130.6460    9.6700 C.ar   80  PHE80      -0.0042
     13  CD2      159.5530  132.3660    8.5440 C.ar   80  PHE80      -0.0042
     14  CE1      161.8560  131.4770    9.7680 C.ar   80  PHE80      -0.0003
     15  CE2      160.6480  133.2010    8.6410 C.ar   80  PHE80      -0.0003
     16  CZ       161.8010  132.7560    9.2540 C.ar   80  PHE80      -0.0000
     17  N        166.2630  128.9180    8.7750 N.3    83  PHE83      -0.1227
     18  CA       167.0300  128.9530   10.0170 C.3    83  PHE83       0.1736
     19  C        166.4850  127.9480   11.0270 C.2    83  PHE83       0.2595
     20  O        166.4060  126.7530   10.7460 O.2    83  PHE83      -0.2718
     21  CB       167.0140  130.3660   10.6050 C.3    83  PHE83       0.0547
     22  CG       167.0740  131.4510    9.5660 C.ar   83  PHE83      -0.0202
     23  CD1      168.2490  131.7120    8.8800 C.ar   83  PHE83      -0.0042
     24  CD2      165.9500  132.2040    9.2680 C.ar   83  PHE83      -0.0042
     25  CE1      168.3020  132.7050    7.9180 C.ar   83  PHE83      -0.0003
     26  CE2      165.9960  133.2000    8.3100 C.ar   83  PHE83      -0.0003
     27  CZ       167.1730  133.4510    7.6330 C.ar   83  PHE83      -0.0000
     28  N        166.1120  128.4410   12.2020 N.am   84  VAL84      -0.1980
     29  CA       165.3640  127.6390   13.1620 C.3    84  VAL84       0.1595
     30  C        164.0740  128.3630   13.5170 C.2    84  VAL84       0.2287
     31  O        164.0900  129.3400   14.2650 O.2    84  VAL84      -0.2864
     32  CB       166.1710  127.3590   14.4430 C.3    84  VAL84       0.0276
     33  CG1      165.2820  126.7210   15.4970 C.3    84  VAL84       0.0022
     34  CG2      167.3600  126.4660   14.1380 C.3    84  VAL84       0.0022
     35  N        169.3200  132.9930   25.7630 N.3   143  GLY143     -0.1210
     36  CA       169.5490  132.3200   24.4980 C.3   143  GLY143      0.1956
     37  C        170.5630  131.1940   24.5800 C.2   143  GLY143      0.2612
     38  O        171.2150  131.0020   25.6070 O.2   143  GLY143     -0.2717
     39  N        170.6960  130.4490   23.4860 N.am  144  GLY144     -0.1942
     40  CA       171.6810  129.3860   23.3970 C.3   144  GLY144      0.2014
     41  C        173.0920  129.9290   23.2700 C.2   144  GLY144      0.2639
     42  O        174.0570  129.2620   23.6420 O.2   144  GLY144     -0.2714
     43  N        173.2120  131.1410   22.7370 N.am  145  SER145     -0.1949
     44  CA       174.4960  131.8320   22.6940 C.3   145  SER145      0.1924
     45  C        174.9810  132.1290   24.1050 C.2   145  SER145      0.2314
     46  O        176.1650  131.9860   24.4110 O.2   145  SER145     -0.2863
     47  CB       174.3930  133.1260   21.8860 C.3   145  SER145      0.2116
     48  OG       173.9920  132.8660   20.5520 O.3   145  SER145     -0.2180
     49  N        175.9890  128.8670   25.7610 N.3   148  ASN148     -0.1240
     50  CA       177.3330  128.4360   25.3960 C.3   148  ASN148      0.1653
     51  C        178.4070  129.1880   26.1770 C.2   148  ASN148      0.2266
     52  O        179.3680  128.5880   26.6590 O.2   148  ASN148     -0.2867
     53  CB       177.5570  128.6120   23.8910 C.3   148  ASN148      0.1155
     54  CG       176.8730  127.5320   23.0680 C.2   148  ASN148      0.2627
     55  OD1      176.6830  126.4070   23.5320 O.2   148  ASN148     -0.2716
     56  ND2      176.4970  127.8730   21.8390 N.am  148  ASN148     -0.0877
     57  N        178.3040  126.1610   15.1970 N.3   177  HIS177     -0.1241
     58  CA       177.6410  127.4560   15.0860 C.3   177  HIS177      0.1621
     59  C        178.5800  128.5990   15.4640 C.2   177  HIS177      0.2264
     60  O        179.4520  128.4430   16.3200 O.2   177  HIS177     -0.2867
     61  CB       176.3860  127.4960   15.9610 C.3   177  HIS177      0.0745
     62  CG       175.5340  128.7050   15.7350 C.ar  177  HIS177      0.0817
     63  ND1      175.5910  129.8180   16.5460 N.ar  177  HIS177     -0.2268
     64  CD2      174.6110  128.9820   14.7830 C.ar  177  HIS177      0.1154
     65  CE1      174.7390  130.7260   16.1050 C.ar  177  HIS177      0.1986
     66  NE2      174.1320  130.2430   15.0360 N.ar  177  HIS177     -0.2212
     67  N        178.2310  131.1930   17.1660 N.3   179  SER179     -0.1217
     68  CA       178.1210  131.7260   18.5180 C.3   179  SER179      0.1889
     69  C        179.1210  131.0640   19.4590 C.2   179  SER179      0.2288
     70  O        179.4490  131.6100   20.5120 O.2   179  SER179     -0.2866
     71  CB       176.7000  131.5440   19.0570 C.3   179  SER179      0.2089
     72  OG       176.4320  130.1820   19.3440 O.3   179  SER179     -0.2183
     73  N        178.7510  119.1290   18.5920 N.3   230  THR230     -0.1218
     74  CA       177.4140  119.6290   18.2930 C.3   230  THR230      0.1862
     75  C        176.4110  118.5030   18.0610 C.2   230  THR230      0.2287
     76  O        176.6760  117.5640   17.3110 O.2   230  THR230     -0.2866
     77  CB       177.4250  120.5450   17.0570 C.3   230  THR230      0.1770
     78  OG1      178.3890  121.5890   17.2410 O.3   230  THR230     -0.2211
     79  CG2      176.0500  121.1590   16.8410 C.3   230  THR230      0.0375
     80  N        173.1160  118.3460   16.4570 N.3   232  GLY232     -0.1225
     81  CA       172.1230  119.0190   15.6390 C.3   232  GLY232      0.1811
     82  C        172.6780  120.2850   15.0170 C.2   232  GLY232      0.2280
     83  O        172.2970  121.3910   15.4000 O.2   232  GLY232     -0.2866
     84  N        173.4730  123.4820   12.8060 N.3   234  THR234     -0.1218
     85  CA       172.5820  124.5120   12.2820 C.3   234  THR234      0.1862
     86  C        172.2890  124.3300   10.7950 C.2   234  THR234      0.2287
     87  O        171.1640  124.5470   10.3460 O.2   234  THR234     -0.2866
     88  CB       173.1690  125.9170   12.5030 C.3   234  THR234      0.1770
     89  OG1      173.3000  126.1650   13.9080 O.3   234  THR234     -0.2211
     90  CG2      172.2700  126.9760   11.8860 C.3   234  THR234      0.0375
     91  N        177.0110  121.2710   22.2600 N.3   259  ASP259     -0.1239
     92  CA       176.1260  122.3350   21.8130 C.3   259  ASP259      0.1674
     93  C        174.8610  121.7250   21.2110 C.2   259  ASP259      0.2266
     94  O        174.8110  121.4090   20.0220 O.2   259  ASP259     -0.2867
     95  CB       176.8570  123.2380   20.8140 C.3   259  ASP259      0.1410
     96  CG       175.9980  124.3790   20.3030 C.2   259  ASP259      0.3668
     97  OD1      174.8800  124.5820   20.8210 O.co2 259  ASP259     -0.2456
     98  OD2      176.4710  125.1090   19.4070 O.co2 259  ASP259     -0.2456
     99  N        171.7120  123.1890   21.3400 N.3   261  ALA261     -0.1231
    100  CA       170.7020  124.2420   21.3380 C.3   261  ALA261      0.1694
    101  C        169.4520  123.8190   20.5710 C.2   261  ALA261      0.2592
    102  O        168.3300  124.1320   20.9680 O.2   261  ALA261     -0.2718
    103  CB       171.2760  125.5210   20.7490 C.3   261  ALA261      0.0304
    104  N        169.6600  123.1020   19.4710 N.am  262  TYR262     -0.1976
    105  CA       168.5660  122.6460   18.6230 C.3   262  TYR262      0.1639
    106  C        168.2300  121.1750   18.8560 C.2   262  TYR262      0.2290
    107  O        167.0950  120.8320   19.1830 O.2   262  TYR262     -0.2864
    108  CB       168.9190  122.8740   17.1500 C.3   262  TYR262      0.0560
    109  CG       167.9560  122.2470   16.1670 C.ar  262  TYR262     -0.0198
    110  CD1      166.7790  122.8890   15.8100 C.ar  262  TYR262     -0.0009
    111  CD2      168.2310  121.0150   15.5890 C.ar  262  TYR262     -0.0009
    112  CE1      165.9010  122.3200   14.9080 C.ar  262  TYR262      0.0417
    113  CE2      167.3580  120.4380   14.6880 C.ar  262  TYR262      0.0417
    114  CZ       166.1950  121.0950   14.3500 C.ar  262  TYR262      0.1957
    115  OH       165.3230  120.5240   13.4510 O.3   262  TYR262     -0.2866
    116  N        168.0320  124.9120   23.7410 N.3   288  ASP288     -0.1239
    117  CA       167.0990  126.0220   23.5610 C.3   288  ASP288      0.1674
    118  C        165.6480  125.5490   23.5140 C.2   288  ASP288      0.2266
    119  O        165.2940  124.6750   22.7220 O.2   288  ASP288     -0.2867
    120  CB       167.4310  126.8010   22.2860 C.3   288  ASP288      0.1410
    121  CG       168.8290  127.3860   22.3070 C.2   288  ASP288      0.3668
    122  OD1      169.6550  126.9320   23.1270 O.co2 288  ASP288     -0.2456
    123  OD2      169.1010  128.3050   21.5060 O.co2 288  ASP288     -0.2456
    124  N        163.0410  127.7400   23.0710 N.3   290  HIS290     -0.1226
    125  CA       162.3410  128.5490   22.0780 C.3   290  HIS290      0.1752
    126  C        162.6130  128.0250   20.6720 C.2   290  HIS290      0.2595
    127  O        162.2310  128.6490   19.6840 O.2   290  HIS290     -0.2718
    128  CB       162.7570  130.0170   22.1870 C.3   290  HIS290      0.0759
    129  CG       164.2380  130.2280   22.1740 C.ar  290  HIS290      0.0818
    130  ND1      165.0560  129.8370   23.2140 N.ar  290  HIS290     -0.2268
    131  CD2      165.0510  130.7890   21.2490 C.ar  290  HIS290      0.1154
    132  CE1      166.3070  130.1490   22.9290 C.ar  290  HIS290      0.1986
    133  NE2      166.3330  130.7270   21.7430 N.ar  290  HIS290     -0.2212
    134  N        163.2560  126.8650   20.5910 N.am  291  LYS291     -0.1980
    135  CA       163.4790  126.1970   19.3150 C.3   291  LYS291      0.1596
    136  C        162.5310  125.0190   19.1400 C.2   291  LYS291      0.2287
    137  O        161.4510  125.1560   18.5660 O.2   291  LYS291     -0.2864
    138  CB       164.9260  125.7140   19.2040 C.3   291  LYS291      0.0298
    139  CG       165.9390  126.8180   18.9780 C.3   291  LYS291      0.0038
    140  CD       167.3300  126.2530   18.7520 C.3   291  LYS291      0.0206
    141  CE       168.3450  127.3680   18.5810 C.3   291  LYS291      0.1093
    142  NZ       168.0460  128.1820   17.3750 N.3   291  LYS291     -0.1314
    143  N        160.6220  133.3930   22.4120 N.3   297  TYR297     -0.1241
    144  CA       161.9100  133.9850   22.7440 C.3   297  TYR297      0.1605
    145  C        161.7900  134.8230   24.0130 C.2   297  TYR297      0.2264
    146  O        160.8780  135.6410   24.1350 O.2   297  TYR297     -0.2867
    147  CB       162.4190  134.8480   21.5870 C.3   297  TYR297      0.0534
    148  CG       162.1580  134.2670   20.2120 C.ar  297  TYR297     -0.0201
    149  CD1      162.4220  132.9300   19.9350 C.ar  297  TYR297     -0.0009
    150  CD2      161.6450  135.0570   19.1920 C.ar  297  TYR297     -0.0009
    151  CE1      162.1820  132.3990   18.6790 C.ar  297  TYR297      0.0417
    152  CE2      161.4030  134.5370   17.9350 C.ar  297  TYR297      0.0417
    153  CZ       161.6730  133.2080   17.6830 C.ar  297  TYR297      0.1957
    154  OH       161.4320  132.6900   16.4310 O.3   297  TYR297     -0.2866
@<TRIPOS>BOND
     1     6     7    1
     2    27    25   ar
     3    27    26   ar
     4     7     8    1
     5     7    10    1
     6    25    23   ar
     7     8     9    2
     8    26    24   ar
     9    13    15   ar
    10    13    11   ar
    11    15    16   ar
    12    17    18    1
    13    23    22   ar
    14    10    11    1
    15    11    12   ar
    16    16    14   ar
    17    24    22   ar
    18    22    21    1
    19    12    14   ar
    20    18    21    1
    21    18    19    1
    22    87    86    2
    23    20    19    2
    24    86    85    1
    25    19    28   am
    26    90    88    1
    27     1     2    1
    28    28    29    1
    29     2     3    1
    30     2     5    1
    31    85    88    1
    32    85    84    1
    33    88    89    1
    34     3     4    2
    35    29    30    1
    36    29    32    1
    37   115   114    1
    38    30    31    2
    39    34    32    1
    40   114   113   ar
    41   114   112   ar
    42    32    33    1
    43   113   111   ar
    44    64    66   ar
    45    64    62   ar
    46   112   110   ar
    47    82    83    2
    48    82    81    1
    49    66    65   ar
    50    58    57    1
    51    58    59    1
    52    58    61    1
    53    59    60    2
    54   111   109   ar
    55    81    80    1
    56    62    61    1
    57    62    63   ar
    58   110   109   ar
    59    65    63   ar
    60   109   108    1
    61   154   153    1
    62    79    77    1
    63    77    78    1
    64    77    74    1
    65   108   105    1
    66    67    68    1
    67    76    75    2
    68   142   141    1
    69   153   152   ar
    70   153   151   ar
    71   152   150   ar
    72    75    74    1
    73    74    73    1
    74    68    71    1
    75    68    69    1
    76   137   136    2
    77   141   140    1
    78   105   106    1
    79   105   104    1
    80   151   149   ar
    81   140   139    1
    82   106   107    2
    83   139   138    1
    84    71    72    1
    85   136   135    1
    86   150   148   ar
    87   138   135    1
    88   135   134    1
    89    98    96   ar
    90    69    70    2
    91   104   101   am
    92   127   126    2
    93   149   148   ar
    94    94    93    2
    95   148   147    1
    96    96    95    1
    97    96    97   ar
    98    48    47    1
    99   101   102    2
   100   101   100    1
   101   134   126   am
   102   126   125    1
   103   103   100    1
   104    95    92    1
   105    93    92    1
   106   131   133   ar
   107   131   129   ar
   108   100    99    1
   109   123   121   ar
   110   147   144    1
   111   133   132   ar
   112    92    91    1
   113    56    54   am
   114    47    44    1
   115   125   128    1
   116   125   124    1
   117   129   128    1
   118   129   130   ar
   119   120   121    1
   120   120   117    1
   121   121   122   ar
   122   143   144    1
   123    44    43    1
   124    44    45    1
   125   119   118    2
   126    43    41   am
   127   144   145    1
   128   132   130   ar
   129    54    55    2
   130    54    53    1
   131    41    40    1
   132    41    42    2
   133    40    39    1
   134    39    37   am
   135   118   117    1
   136   117   116    1
   137    53    50    1
   138   145   146    2
   139    45    46    2
   140    36    37    1
   141    36    35    1
   142    37    38    2
   143    50    49    1
   144    50    51    1
   145    51    52    2
