@<TRIPOS>MOLECULE
tmp/4obwB00.pdb
 207 199 0 0 0
SMALL
GASTEIGER

@<TRIPOS>ATOM
      1  N        -19.5790  -52.6100   72.4150 N.3     6  TYR6       -0.1227
      2  CA       -19.9930  -53.2790   71.1810 C.3     6  TYR6        0.1736
      3  C        -20.5870  -52.2990   70.1730 C.2     6  TYR6        0.2595
      4  O        -20.3290  -52.4120   68.9770 O.2     6  TYR6       -0.2718
      5  CB       -20.9830  -54.4140   71.4670 C.3     6  TYR6        0.0548
      6  CG       -20.3440  -55.6870   71.9810 C.ar    6  TYR6       -0.0200
      7  CD1      -19.3630  -56.3500   71.2420 C.ar    6  TYR6       -0.0009
      8  CD2      -20.7350  -56.2400   73.1990 C.ar    6  TYR6       -0.0009
      9  CE1      -18.7800  -57.5180   71.7070 C.ar    6  TYR6        0.0417
     10  CE2      -20.1590  -57.4110   73.6730 C.ar    6  TYR6        0.0417
     11  CZ       -19.1830  -58.0450   72.9240 C.ar    6  TYR6        0.1957
     12  OH       -18.6100  -59.2080   73.3910 O.3     6  TYR6       -0.2866
     13  N        -21.3750  -51.3420   70.6670 N.am    7  ASP7       -0.1974
     14  CA       -21.9140  -50.2610   69.8410 C.3     7  ASP7        0.1709
     15  C        -20.7870  -49.4890   69.1550 C.2     7  ASP7        0.2293
     16  O        -20.9140  -49.0840   67.9980 O.2     7  ASP7       -0.2864
     17  CB       -22.7640  -49.3020   70.6840 C.3     7  ASP7        0.1436
     18  CG       -24.1930  -49.7980   70.8960 C.2     7  ASP7        0.3671
     19  OD1      -24.4820  -50.9840   70.6200 O.co2   7  ASP7       -0.2456
     20  OD2      -25.0350  -48.9890   71.3450 O.co2   7  ASP7       -0.2456
     21  N        -19.0990  -51.9380   66.5370 N.3    10  ASN10      -0.1240
     22  CA       -20.0230  -51.9960   65.4070 C.3    10  ASN10       0.1653
     23  C        -19.8070  -50.8170   64.4630 C.2    10  ASN10       0.2266
     24  O        -19.7070  -51.0000   63.2510 O.2    10  ASN10      -0.2867
     25  CB       -21.4810  -52.0190   65.8860 C.3    10  ASN10       0.1155
     26  CG       -21.9110  -53.3800   66.4120 C.2    10  ASN10       0.2627
     27  OD1      -21.4480  -54.4210   65.9440 O.2    10  ASN10      -0.2716
     28  ND2      -22.8160  -53.3740   67.3840 N.am   10  ASN10      -0.0877
     29  N        -28.6410  -53.6470   59.4270 N.3    22  LYS22      -0.1245
     30  CA       -29.6090  -54.1620   60.3900 C.3    22  LYS22       0.1561
     31  C        -31.0570  -53.7810   60.0620 C.2    22  LYS22       0.2260
     32  O        -31.9650  -54.5930   60.2480 O.2    22  LYS22      -0.2867
     33  CB       -29.2190  -53.7310   61.8070 C.3    22  LYS22       0.0271
     34  CG       -27.9550  -54.4250   62.2980 C.3    22  LYS22       0.0035
     35  CD       -27.3940  -53.8240   63.5750 C.3    22  LYS22       0.0206
     36  CE       -26.1110  -54.5430   63.9610 C.3    22  LYS22       0.1093
     37  NZ       -25.4390  -53.9420   65.1450 N.3    22  LYS22      -0.1314
     38  N        -34.2750  -64.2640   69.6480 N.3    45  ASP45      -0.1225
     39  CA       -33.0620  -63.6040   69.1960 C.3    45  ASP45       0.1805
     40  C        -31.8840  -64.0750   70.0350 C.2    45  ASP45       0.2598
     41  O        -31.9490  -64.0720   71.2650 O.2    45  ASP45      -0.2718
     42  CB       -33.2100  -62.0840   69.2760 C.3    45  ASP45       0.1424
     43  CG       -32.0420  -61.3490   68.6460 C.2    45  ASP45       0.3668
     44  OD1      -31.6380  -61.7100   67.5170 O.co2  45  ASP45      -0.2456
     45  OD2      -31.5290  -60.4050   69.2810 O.co2  45  ASP45      -0.2456
     46  N        -30.8120  -64.4850   69.3620 N.am   46  VAL46      -0.1966
     47  CA       -29.6350  -65.0330   70.0350 C.3    46  VAL46       0.1727
     48  C        -28.3980  -64.1680   69.7820 C.2    46  VAL46       0.2616
     49  O        -28.2040  -63.6530   68.6780 O.2    46  VAL46      -0.2715
     50  CB       -29.3840  -66.5030   69.6190 C.3    46  VAL46       0.0290
     51  CG1      -28.0940  -67.0420   70.2220 C.3    46  VAL46       0.0023
     52  CG2      -30.5560  -67.3790   70.0380 C.3    46  VAL46       0.0023
     53  N        -27.5830  -64.0090   70.8260 N.am   47  ALA47      -0.1963
     54  CA       -26.3140  -63.2740   70.7740 C.3    47  ALA47       0.1728
     55  C        -26.4800  -61.7720   70.5040 C.2    47  ALA47       0.2616
     56  O        -25.6530  -61.1540   69.8330 O.2    47  ALA47      -0.2715
     57  CB       -25.3580  -63.9160   69.7710 C.3    47  ALA47       0.0334
     58  N        -27.5520  -61.1980   71.0400 N.am   48  GLY48      -0.1955
     59  CA       -27.7990  -59.7600   70.9550 C.3    48  GLY48       0.1869
     60  C        -28.4910  -59.2660   72.2110 C.2    48  GLY48       0.2309
     61  O        -29.5850  -58.7010   72.1450 O.2    48  GLY48      -0.2863
     62  N        -28.0280  -56.7980   74.2250 N.3    50  SER50      -0.1217
     63  CA       -28.3200  -55.3620   74.2570 C.3    50  SER50       0.1889
     64  C        -29.6980  -55.0530   73.6670 C.2    50  SER50       0.2288
     65  O        -30.3260  -54.0530   74.0250 O.2    50  SER50      -0.2866
     66  CB       -27.2430  -54.5820   73.5030 C.3    50  SER50       0.2089
     67  OG       -27.1490  -55.0250   72.1590 O.3    50  SER50      -0.2183
     68  N        -30.5260  -54.5970   70.3440 N.3    52  ASP52      -0.1225
     69  CA       -30.5650  -53.7270   69.1570 C.3    52  ASP52       0.1805
     70  C        -31.3560  -54.2960   67.9700 C.2    52  ASP52       0.2597
     71  O        -32.0820  -53.5570   67.3000 O.2    52  ASP52      -0.2718
     72  CB       -29.1600  -53.2610   68.7340 C.3    52  ASP52       0.1424
     73  CG       -28.1900  -54.4100   68.5080 C.2    52  ASP52       0.3668
     74  OD1      -28.2500  -55.4160   69.2490 O.co2  52  ASP52      -0.2456
     75  OD2      -27.3470  -54.2920   67.5920 O.co2  52  ASP52      -0.2456
     76  N        -31.2280  -55.5990   67.7260 N.am   53  ILE53      -0.1980
     77  CA       -32.0550  -56.2790   66.7200 C.3    53  ILE53       0.1595
     78  C        -33.4360  -56.6480   67.2630 C.2    53  ILE53       0.2287
     79  O        -34.4450  -56.4400   66.5860 O.2    53  ILE53      -0.2864
     80  CB       -31.3290  -57.4900   66.0710 C.3    53  ILE53       0.0276
     81  CG1      -31.1050  -57.2360   64.5820 C.3    53  ILE53       0.0022
     82  CG2      -32.1430  -58.7700   66.1700 C.3    53  ILE53       0.0022
     83  CD1      -30.2070  -56.0630   64.2820 C.3    53  ILE53       0.0001
     84  N        -31.7240  -63.8290   73.9950 N.3    75  VAL75      -0.1231
     85  CA       -30.7810  -64.7810   74.5770 C.3    75  VAL75       0.1692
     86  C        -29.3350  -64.3520   74.3420 C.2    75  VAL75       0.2592
     87  O        -28.9420  -64.0540   73.2140 O.2    75  VAL75      -0.2718
     88  CB       -31.0020  -66.2050   74.0140 C.3    75  VAL75       0.0266
     89  CG1      -29.9220  -67.1570   74.5040 C.3    75  VAL75       0.0020
     90  CG2      -32.3850  -66.7250   74.3870 C.3    75  VAL75       0.0020
     91  N        -28.5550  -64.3200   75.4200 N.am   76  ASP76      -0.1960
     92  CA       -27.1220  -64.0450   75.3450 C.3    76  ASP76       0.1840
     93  C        -26.3820  -64.8300   76.4250 C.2    76  ASP76       0.2622
     94  O        -26.9070  -65.0380   77.5200 O.2    76  ASP76      -0.2715
     95  CB       -26.8480  -62.5440   75.4850 C.3    76  ASP76       0.1450
     96  CG       -25.4820  -62.1420   74.9470 C.2    76  ASP76       0.3671
     97  OD1      -24.4570  -62.6280   75.4740 O.co2  76  ASP76      -0.2456
     98  OD2      -25.4330  -61.3270   73.9990 O.co2  76  ASP76      -0.2456
     99  N        -25.1640  -65.2630   76.1050 N.am   77  ILE77      -0.1963
    100  CA       -24.3350  -66.0360   77.0350 C.3    77  ILE77       0.1727
    101  C        -23.7730  -65.1630   78.1640 C.2    77  ILE77       0.2616
    102  O        -23.4690  -65.6590   79.2520 O.2    77  ILE77      -0.2715
    103  CB       -23.2040  -66.8000   76.2940 C.3    77  ILE77       0.0290
    104  CG1      -22.7220  -68.0010   77.1210 C.3    77  ILE77       0.0022
    105  CG2      -22.0570  -65.8660   75.9080 C.3    77  ILE77       0.0023
    106  CD1      -21.9300  -69.0270   76.3370 C.3    77  ILE77       0.0001
    107  N        -23.6510  -63.8650   77.8930 N.am   78  ASN78      -0.1972
    108  CA       -23.1380  -62.8990   78.8550 C.3    78  ASN78       0.1688
    109  C        -24.2880  -62.2260   79.6060 C.2    78  ASN78       0.2292
    110  O        -25.1130  -61.5430   78.9910 O.2    78  ASN78      -0.2864
    111  CB       -22.2680  -61.8570   78.1380 C.3    78  ASN78       0.1181
    112  CG       -21.5050  -60.9530   79.0940 C.2    78  ASN78       0.2629
    113  OD1      -21.4600  -61.1840   80.3040 O.2    78  ASN78      -0.2716
    114  ND2      -20.8910  -59.9140   78.5440 N.am   78  ASN78      -0.0877
    115  N        -24.5970  -58.3740   79.2570 N.3    81  MET81      -0.1245
    116  CA       -25.2230  -57.8880   78.0250 C.3    81  MET81       0.1570
    117  C        -26.7370  -57.7600   78.1670 C.2    81  MET81       0.2261
    118  O        -27.3270  -56.7730   77.7190 O.2    81  MET81      -0.2867
    119  CB       -24.8700  -58.7890   76.8390 C.3    81  MET81       0.0387
    120  CG       -23.5490  -58.4390   76.1700 C.3    81  MET81       0.0595
    121  SD       -23.5670  -56.8270   75.3560 S.3    81  MET81      -0.1393
    122  CE       -24.5480  -57.1720   73.8950 C.3    81  MET81       0.0692
    123  N        -28.2510  -67.8330   78.3960 N.3   106  SER106     -0.1202
    124  CA       -28.1530  -69.1540   77.7830 C.3   106  SER106      0.2020
    125  C        -27.0770  -69.2080   76.7080 C.2   106  SER106      0.2619
    126  O        -26.7390  -68.1920   76.0980 O.2   106  SER106     -0.2717
    127  CB       -29.5010  -69.5710   77.1860 C.3   106  SER106      0.2103
    128  OG       -29.4470  -70.8930   76.6800 O.3   106  SER106     -0.2182
    129  N        -26.5460  -70.4080   76.4910 N.am  107  ASN107     -0.1960
    130  CA       -25.6030  -70.6670   75.4150 C.3   107  ASN107      0.1819
    131  C        -26.3620  -70.9750   74.1280 C.2   107  ASN107      0.2622
    132  O        -27.2340  -71.8500   74.1040 O.2   107  ASN107     -0.2715
    133  CB       -24.6830  -71.8360   75.7910 C.3   107  ASN107      0.1195
    134  CG       -23.4940  -71.9840   74.8540 C.2   107  ASN107      0.2630
    135  OD1      -23.5840  -71.7200   73.6520 O.2   107  ASN107     -0.2716
    136  ND2      -22.3680  -72.4250   75.4040 N.am  107  ASN107     -0.0877
    137  N        -26.0260  -70.2470   73.0640 N.am  108  GLY108     -0.1940
    138  CA       -26.6560  -70.4270   71.7560 C.3   108  GLY108      0.2014
    139  C        -26.4660  -71.8180   71.1790 C.2   108  GLY108      0.2638
    140  O        -27.3140  -72.3070   70.4320 O.2   108  GLY108     -0.2714
    141  N        -25.3540  -72.4550   71.5370 N.am  109  GLU109     -0.1977
    142  CA       -25.0380  -73.8080   71.0760 C.3   109  GLU109      0.1602
    143  C        -25.9190  -74.8740   71.7310 C.2   109  GLU109      0.2287
    144  O        -26.0830  -75.9670   71.1840 O.2   109  GLU109     -0.2864
    145  CB       -23.5590  -74.1270   71.3230 C.3   109  GLU109      0.0415
    146  CG       -22.5840  -73.2460   70.5520 C.3   109  GLU109      0.1163
    147  CD       -21.1390  -73.4190   70.9960 C.2   109  GLU109      0.3649
    148  OE1      -20.9010  -73.8990   72.1250 O.co2 109  GLU109     -0.2457
    149  OE2      -20.2340  -73.0630   70.2130 O.co2 109  GLU109     -0.2457
    150  N        -27.7960  -61.7490   64.8470 N.3   125  SER125     -0.1202
    151  CA       -27.1510  -60.6240   64.1760 C.3   125  SER125      0.2020
    152  C        -25.7560  -60.3610   64.7370 C.2   125  SER125      0.2619
    153  O        -25.6110  -59.9000   65.8730 O.2   125  SER125     -0.2717
    154  CB       -28.0220  -59.3700   64.2860 C.3   125  SER125      0.2103
    155  OG       -27.4660  -58.2920   63.5510 O.3   125  SER125     -0.2182
    156  N        -24.7420  -60.6610   63.9250 N.am  126  PHE126     -0.1961
    157  CA       -23.3260  -60.4940   64.2850 C.3   126  PHE126      0.1771
    158  C        -22.9580  -61.1340   65.6270 C.2   126  PHE126      0.2620
    159  O        -22.4150  -60.4720   66.5150 O.2   126  PHE126     -0.2715
    160  CB       -22.9170  -59.0130   64.2660 C.3   126  PHE126      0.0574
    161  CG       -23.0530  -58.3600   62.9230 C.ar  126  PHE126     -0.0200
    162  CD1      -22.1800  -58.6770   61.8870 C.ar  126  PHE126     -0.0042
    163  CD2      -24.0470  -57.4160   62.6950 C.ar  126  PHE126     -0.0042
    164  CE1      -22.3020  -58.0700   60.6470 C.ar  126  PHE126     -0.0003
    165  CE2      -24.1740  -56.8050   61.4590 C.ar  126  PHE126     -0.0003
    166  CZ       -23.3020  -57.1340   60.4330 C.ar  126  PHE126     -0.0000
    167  N        -23.2560  -62.4220   65.7640 N.am  127  GLY127     -0.1954
    168  CA       -22.9370  -63.1580   66.9850 C.3   127  GLY127      0.1869
    169  C        -22.5020  -64.5890   66.7330 C.2   127  GLY127      0.2309
    170  O        -21.7190  -65.1490   67.5020 O.2   127  GLY127     -0.2863
    171  N        -20.5000  -65.8450   64.6630 N.3   129  ARG129     -0.1231
    172  CA       -19.0610  -65.9840   64.4150 C.3   129  ARG129      0.1694
    173  C        -18.2630  -66.1910   65.7040 C.2   129  ARG129      0.2592
    174  O        -17.1400  -66.6930   65.6680 O.2   129  ARG129     -0.2718
    175  CB       -18.5160  -64.7750   63.6440 C.3   129  ARG129      0.0321
    176  CG       -18.5510  -63.4730   64.4250 C.3   129  ARG129      0.0489
    177  CD       -17.7150  -62.3830   63.7760 C.3   129  ARG129      0.2205
    178  NE       -17.6340  -61.2140   64.6490 N.pl3 129  ARG129     -0.0865
    179  CZ       -18.5880  -60.2940   64.7710 C.cat 129  ARG129      0.5346
    180  NH1      -18.4210  -59.2760   65.6030 N.pl3 129  ARG129      0.1354
    181  NH2      -19.7120  -60.3870   64.0700 N.pl3 129  ARG129      0.1354
    182  N        -18.8500  -65.7980   66.8330 N.am  130  ASN130     -0.1960
    183  CA       -18.2100  -65.9290   68.1410 C.3   130  ASN130      0.1819
    184  C        -18.4190  -67.2990   68.7880 C.2   130  ASN130      0.2621
    185  O        -17.8120  -67.6020   69.8160 O.2   130  ASN130     -0.2715
    186  CB       -18.6930  -64.8200   69.0820 C.3   130  ASN130      0.1195
    187  CG       -18.3230  -63.4300   68.5910 C.2   130  ASN130      0.2630
    188  OD1      -17.2020  -63.1920   68.1360 O.2   130  ASN130     -0.2716
    189  ND2      -19.2660  -62.5030   68.6890 N.am  130  ASN130     -0.0877
    190  N        -19.2800  -68.1150   68.1790 N.am  131  PHE131     -0.1960
    191  CA       -19.5590  -69.4770   68.6430 C.3   131  PHE131      0.1771
    192  C        -18.3340  -70.3640   68.4480 C.2   131  PHE131      0.2620
    193  O        -17.7140  -70.3430   67.3800 O.2   131  PHE131     -0.2715
    194  CB       -20.7410  -70.0750   67.8650 C.3   131  PHE131      0.0574
    195  CG       -22.0910  -69.5270   68.2560 C.ar  131  PHE131     -0.0200
    196  CD1      -23.2100  -70.3530   68.2420 C.ar  131  PHE131     -0.0042
    197  CD2      -22.2550  -68.1930   68.6290 C.ar  131  PHE131     -0.0042
    198  CE1      -24.4600  -69.8650   68.5920 C.ar  131  PHE131     -0.0003
    199  CE2      -23.5020  -67.6990   68.9810 C.ar  131  PHE131     -0.0003
    200  CZ       -24.6060  -68.5370   68.9630 C.ar  131  PHE131     -0.0000
    201  N        -17.9890  -71.1410   69.4740 N.am  132  THR132     -0.1951
    202  CA       -16.8650  -72.0820   69.3860 C.3   132  THR132      0.1897
    203  C        -17.1780  -73.2090   68.4010 C.2   132  THR132      0.2313
    204  O        -16.2780  -73.7520   67.7570 O.2   132  THR132     -0.2863
    205  CB       -16.4800  -72.6760   70.7590 C.3   132  THR132      0.1794
    206  OG1      -17.5790  -73.4300   71.2850 O.3   132  THR132     -0.2208
    207  CG2      -16.0990  -71.5720   71.7470 C.3   132  THR132      0.0378
@<TRIPOS>BOND
     1    29    30    1
     2    31    32    2
     3    31    30    1
     4    30    33    1
     5   166   164   ar
     6   166   165   ar
     7   164   162   ar
     8   165   163   ar
     9    33    34    1
    10   162   161   ar
    11    34    35    1
    12   163   161   ar
    13   161   160    1
    14    24    23    2
    15   155   154    1
    16    35    36    1
    17   175   172    1
    18   175   176    1
    19   177   176    1
    20   177   178    1
    21   156   157    1
    22   156   152   am
    23    36    37    1
    24   181   179    1
    25   151   154    1
    26   151   152    1
    27   151   150    1
    28   160   157    1
    29    83    81    1
    30   157   158    1
    31   172   171    1
    32   172   173    1
    33    23    22    1
    34    81    80    1
    35   178   179    2
    36   152   153    2
    37   179   180    1
    38    22    25    1
    39    22    21    1
    40   158   167   am
    41   158   159    2
    42   174   173    2
    43   173   182   am
    44   167   168    1
    45    25    26    1
    46    27    26    2
    47    80    82    1
    48    80    77    1
    49    26    28   am
    50    79    78    2
    51    77    78    1
    52    77    76    1
    53   169   168    1
    54   169   170    2
    55   182   183    1
    56    71    70    2
    57   193   192    2
    58    44    43   ar
    59    75    73   ar
    60    76    70   am
    61   204   203    2
    62   194   195    1
    63   194   191    1
    64    70    69    1
    65    16    15    2
    66   188   187    2
    67   183   184    1
    68   183   186    1
    69   190   191    1
    70   190   184   am
    71   196   195   ar
    72   196   198   ar
    73   195   197   ar
    74   203   202    1
    75   192   191    1
    76   192   201   am
    77    73    72    1
    78    73    74   ar
    79   187   189   am
    80   187   186    1
    81   198   200   ar
    82   197   199   ar
    83    43    42    1
    84    43    45   ar
    85    49    48    2
    86    72    69    1
    87   184   185    2
    88   200   199   ar
    89     4     3    2
    90    15    14    1
    91    69    68    1
    92    39    42    1
    93    39    38    1
    94    39    40    1
    95    46    47    1
    96    46    40   am
    97   202   201    1
    98   202   205    1
    99    50    47    1
   100    50    52    1
   101    50    51    1
   102    57    54    1
   103    48    47    1
   104    48    53   am
   105    56    55    2
   106    14    13    1
   107    14    17    1
   108    40    41    2
   109     3    13   am
   110     3     2    1
   111   149   147   ar
   112   140   139    2
   113    55    54    1
   114    55    58   am
   115   146   147    1
   116   146   145    1
   117    19    18   ar
   118    17    18    1
   119   205   206    1
   120   205   207    1
   121    54    53    1
   122    18    20   ar
   123    59    58    1
   124    59    60    1
   125   147   148   ar
   126   142   145    1
   127   142   141    1
   128   142   143    1
   129   139   141   am
   130   139   138    1
   131     2     5    1
   132     2     1    1
   133   144   143    2
   134     7     9   ar
   135     7     6   ar
   136     5     6    1
   137     9    11   ar
   138   138   137    1
   139     6     8   ar
   140    61    60    2
   141    67    66    1
   142    11    12    1
   143    11    10   ar
   144   137   131   am
   145     8    10   ar
   146    87    86    2
   147    66    63    1
   148   135   134    2
   149    64    65    2
   150    64    63    1
   151   122   121    1
   152    84    85    1
   153    98    96   ar
   154    88    90    1
   155    88    89    1
   156    88    85    1
   157   132   131    2
   158   131   130    1
   159    62    63    1
   160    86    85    1
   161    86    91   am
   162   134   136   am
   163   134   133    1
   164    96    97   ar
   165    96    95    1
   166    92    91    1
   167    92    95    1
   168    92    93    1
   169   121   120    1
   170   130   133    1
   171   130   129    1
   172   105   103    1
   173   126   125    2
   174    99    93   am
   175    99   100    1
   176   120   119    1
   177   103   100    1
   178   103   104    1
   179   106   104    1
   180    93    94    2
   181   129   125   am
   182   128   127    1
   183   125   124    1
   184   119   116    1
   185   100   101    1
   186   127   124    1
   187   118   117    2
   188   124   123    1
   189   107   101   am
   190   107   108    1
   191   116   117    1
   192   116   115    1
   193   111   108    1
   194   111   112    1
   195   101   102    2
   196   114   112   am
   197   108   109    1
   198   110   109    2
   199   112   113    2
