@<TRIPOS>MOLECULE
tmp/4obzB01.pdb
 125 115 0 0 0
SMALL
GASTEIGER

@<TRIPOS>ATOM
      1  N        -23.6830   -2.8870  -14.0910 N.3    19  THR19      -0.1203
      2  CA       -25.0700   -2.6880  -14.5200 C.3    19  THR19       0.1994
      3  C        -25.3260   -3.2580  -15.8960 C.2    19  THR19       0.2617
      4  O        -26.2980   -3.9860  -16.0890 O.2    19  THR19      -0.2717
      5  CB       -25.4370   -1.1760  -14.5350 C.3    19  THR19       0.1784
      6  OG1      -24.4020   -0.3710  -13.9490 O.3    19  THR19      -0.2211
      7  CG2      -26.7780   -0.8950  -13.8910 C.3    19  THR19       0.0376
      8  N        -24.4500   -2.9240  -16.8520 N.am   20  PHE20      -0.1975
      9  CA       -24.6610   -3.3030  -18.2340 C.3    20  PHE20       0.1639
     10  C        -24.0270   -4.6280  -18.5990 C.2    20  PHE20       0.2290
     11  O        -24.4150   -5.2140  -19.6050 O.2    20  PHE20      -0.2864
     12  CB       -24.2590   -2.1670  -19.1830 C.3    20  PHE20       0.0560
     13  CG       -25.1610   -0.9500  -19.0080 C.ar   20  PHE20      -0.0200
     14  CD1      -26.5140   -1.0050  -19.3540 C.ar   20  PHE20      -0.0042
     15  CD2      -24.6610    0.2370  -18.4700 C.ar   20  PHE20      -0.0042
     16  CE1      -27.3450    0.1050  -19.1750 C.ar   20  PHE20      -0.0003
     17  CE2      -25.4910    1.3460  -18.2920 C.ar   20  PHE20      -0.0003
     18  CZ       -26.8280    1.2730  -18.6470 C.ar   20  PHE20      -0.0000
     19  N        -27.0350   -6.9590  -17.6680 N.3    23  ALA23      -0.1245
     20  CA       -28.1500   -6.7020  -18.5830 C.3    23  ALA23       0.1562
     21  C        -28.1570   -7.5930  -19.8230 C.2    23  ALA23       0.2260
     22  O        -27.1080   -7.8020  -20.4270 O.2    23  ALA23      -0.2867
     23  CB       -28.1540   -5.2350  -18.9830 C.3    23  ALA23       0.0290
     24  N        -30.0870   -6.9350  -22.5440 N.3    25  PHE25      -0.1241
     25  CA       -30.3160   -6.0680  -23.6980 C.3    25  PHE25       0.1605
     26  C        -29.0140   -5.3540  -24.0560 C.2    25  PHE25       0.2264
     27  O        -28.1470   -5.2280  -23.1990 O.2    25  PHE25      -0.2867
     28  CB       -31.4250   -5.0550  -23.3880 C.3    25  PHE25       0.0534
     29  CG       -31.2690   -4.3150  -22.0840 C.ar   25  PHE25      -0.0203
     30  CD1      -30.5880   -3.1120  -22.0330 C.ar   25  PHE25      -0.0042
     31  CD2      -31.8090   -4.8220  -20.9040 C.ar   25  PHE25      -0.0042
     32  CE1      -30.4220   -2.4330  -20.8250 C.ar   25  PHE25      -0.0003
     33  CE2      -31.6470   -4.1430  -19.6930 C.ar   25  PHE25      -0.0003
     34  CZ       -30.9390   -2.9570  -19.6620 C.ar   25  PHE25      -0.0000
     35  N        -30.8280    1.0320  -24.9360 N.3    28  ILE28      -0.1245
     36  CA       -32.0990    1.6160  -24.5380 C.3    28  ILE28       0.1561
     37  C        -32.6100    2.5250  -25.6650 C.2    28  ILE28       0.2260
     38  O        -31.8240    3.2610  -26.2800 O.2    28  ILE28      -0.2867
     39  CB       -32.0140    2.3240  -23.1350 C.3    28  ILE28       0.0252
     40  CG1      -31.7600    1.2830  -21.9980 C.3    28  ILE28       0.0019
     41  CG2      -33.2780    3.1390  -22.8170 C.3    28  ILE28       0.0019
     42  CD1      -30.9770    1.7660  -20.8920 C.3    28  ILE28       0.0001
     43  N        -41.8360   13.0920  -18.7690 N.3    99  TYR99      -0.1241
     44  CA       -42.0800   11.6700  -18.6110 C.3    99  TYR99       0.1605
     45  C        -43.5630   11.4980  -18.9740 C.2    99  TYR99       0.2264
     46  O        -44.2150   12.4740  -19.3510 O.2    99  TYR99      -0.2867
     47  CB       -41.8140   11.2200  -17.1510 C.3    99  TYR99       0.0534
     48  CG       -40.4280   11.5340  -16.6160 C.ar   99  TYR99      -0.0201
     49  CD1      -40.2250   12.5710  -15.7120 C.ar   99  TYR99      -0.0009
     50  CD2      -39.3180   10.7960  -17.0140 C.ar   99  TYR99      -0.0009
     51  CE1      -38.9470   12.8780  -15.2320 C.ar   99  TYR99       0.0417
     52  CE2      -38.0330   11.1210  -16.5730 C.ar   99  TYR99       0.0417
     53  CZ       -37.8600   12.1420  -15.6580 C.ar   99  TYR99       0.1957
     54  OH       -36.6070   12.4530  -15.1960 O.3    99  TYR99      -0.2866
     55  N        -45.3990    8.6370  -12.7100 N.3   123  ILE123     -0.1245
     56  CA       -44.9030    8.4610  -14.0830 C.3   123  ILE123      0.1561
     57  C        -45.1100    7.0130  -14.4920 C.2   123  ILE123      0.2260
     58  O        -44.9030    6.1080  -13.6800 O.2   123  ILE123     -0.2867
     59  CB       -43.4450    8.9600  -14.3280 C.3   123  ILE123      0.0252
     60  CG1      -42.4090    8.1890  -13.5000 C.3   123  ILE123      0.0019
     61  CG2      -43.3290   10.4720  -14.0710 C.3   123  ILE123      0.0019
     62  CD1      -41.0800    8.0410  -14.1540 C.3   123  ILE123      0.0001
     63  N        -43.6560    4.2430  -16.3480 N.3   125  ASP125     -0.1239
     64  CA       -42.3020    3.8750  -16.7930 C.3   125  ASP125      0.1674
     65  C        -42.0950    2.3740  -17.1010 C.2   125  ASP125      0.2266
     66  O        -42.0980    1.5400  -16.1930 O.2   125  ASP125     -0.2867
     67  CB       -41.2870    4.3580  -15.7540 C.3   125  ASP125      0.1410
     68  CG       -39.8510    4.2470  -16.1650 C.2   125  ASP125      0.3668
     69  OD1      -39.5810    3.6840  -17.2500 O.co2 125  ASP125     -0.2456
     70  OD2      -38.9910    4.7690  -15.4330 O.co2 125  ASP125     -0.2456
     71  N        -39.2560    1.0850  -18.2610 N.3   127  GLY127     -0.1210
     72  CA       -37.8830    0.7350  -17.9050 C.3   127  GLY127      0.1956
     73  C        -37.6760    0.4950  -16.4250 C.2   127  GLY127      0.2613
     74  O        -36.5380    0.3840  -15.9760 O.2   127  GLY127     -0.2717
     75  N        -38.7590    0.4720  -15.6400 N.am  128  THR128     -0.1938
     76  CA       -38.7500    0.2100  -14.1950 C.3   128  THR128      0.2028
     77  C        -39.5580   -1.0560  -14.0290 C.2   128  THR128      0.2642
     78  O        -40.6620   -1.1340  -14.5710 O.2   128  THR128     -0.2714
     79  CB       -39.3340    1.4100  -13.4240 C.3   128  THR128      0.1808
     80  OG1      -38.4340    2.5060  -13.5480 O.3   128  THR128     -0.2208
     81  CG2      -39.5330    1.1320  -11.9550 C.3   128  THR128      0.0379
     82  N        -38.9990   -2.0660  -13.3510 N.am  129  SER129     -0.1949
     83  CA       -39.6800   -3.3490  -13.1530 C.3   129  SER129      0.1924
     84  C        -40.6500   -3.3100  -11.9910 C.2   129  SER129      0.2314
     85  O        -41.7280   -3.8870  -12.0930 O.2   129  SER129     -0.2863
     86  CB       -38.6810   -4.4810  -12.9650 C.3   129  SER129      0.2116
     87  OG       -37.5430   -4.0500  -12.2360 O.3   129  SER129     -0.2180
     88  N        -37.8010    4.9600   -2.9350 N.3   203  MET203     -0.1245
     89  CA       -36.7680    5.7830   -3.5420 C.3   203  MET203      0.1570
     90  C        -37.2740    7.1970   -3.6700 C.2   203  MET203      0.2261
     91  O        -38.3880    7.4170   -4.1490 O.2   203  MET203     -0.2867
     92  CB       -36.3440    5.2220   -4.9130 C.3   203  MET203      0.0387
     93  CG       -34.9420    5.5920   -5.3210 C.3   203  MET203      0.0595
     94  SD       -34.7500    5.3670   -7.1030 S.3   203  MET203     -0.1393
     95  CE       -32.9930    4.8070   -7.1750 C.3   203  MET203      0.0692
     96  N        -37.1680   10.6610   -5.4530 N.3   205  ILE205     -0.1245
     97  CA       -36.8270   11.3480   -6.6970 C.3   205  ILE205      0.1561
     98  C        -36.7120   12.8280   -6.3260 C.2   205  ILE205      0.2260
     99  O        -37.6740   13.4190   -5.8310 O.2   205  ILE205     -0.2867
    100  CB       -37.8580   11.0730   -7.8440 C.3   205  ILE205      0.0252
    101  CG1      -37.7990    9.6030   -8.3260 C.3   205  ILE205      0.0019
    102  CG2      -37.6450   12.0150   -9.0260 C.3   205  ILE205      0.0019
    103  CD1      -38.7250    8.6200   -7.6190 C.3   205  ILE205      0.0001
    104  N        -37.9560   17.5370  -10.7380 N.3   209  SER209     -0.1217
    105  CA       -38.6470   16.3530  -11.2710 C.3   209  SER209      0.1889
    106  C        -39.5630   15.7170  -10.2210 C.2   209  SER209      0.2288
    107  O        -40.7630   15.5310  -10.4670 O.2   209  SER209     -0.2866
    108  CB       -37.6310   15.3270  -11.7570 C.3   209  SER209      0.2089
    109  OG       -36.6390   15.9220  -12.5800 O.3   209  SER209     -0.2183
    110  N        -41.9750   11.8860   -7.0970 N.3   212  LEU212     -0.1245
    111  CA       -42.7510   11.1330   -8.0830 C.3   212  LEU212      0.1561
    112  C        -42.8940    9.6900   -7.6880 C.2   212  LEU212      0.2260
    113  O        -41.9680    9.0920   -7.1270 O.2   212  LEU212     -0.2867
    114  CB       -42.0780   11.1510   -9.4690 C.3   212  LEU212      0.0270
    115  CG       -42.1990   12.4050  -10.3180 C.3   212  LEU212      0.0019
    116  CD1      -41.2350   12.3440  -11.4950 C.3   212  LEU212      0.0001
    117  CD2      -43.6280   12.6110  -10.8080 C.3   212  LEU212      0.0001
    118  N        -43.5830    5.8500   -9.3010 N.3   214  ILE214     -0.1245
    119  CA       -43.3200    5.2160  -10.5930 C.3   214  ILE214      0.1561
    120  C        -44.1470    3.9670  -10.7090 C.2   214  ILE214      0.2260
    121  O        -43.9990    3.0690   -9.8830 O.2   214  ILE214     -0.2867
    122  CB       -41.8220    4.9170  -10.8930 C.3   214  ILE214      0.0252
    123  CG1      -40.9570    6.1780  -10.8150 C.3   214  ILE214      0.0019
    124  CG2      -41.6710    4.2120  -12.2490 C.3   214  ILE214      0.0019
    125  CD1      -39.5440    5.9050  -10.5660 C.3   214  ILE214      0.0001
@<TRIPOS>BOND
     1    38    37    2
     2    37    36    1
     3    35    36    1
     4    36    39    1
     5    26    25    1
     6    26    27    2
     7    25    28    1
     8    25    24    1
     9    28    29    1
    10    39    41    1
    11    39    40    1
    12    29    30   ar
    13    29    31   ar
    14    30    32   ar
    15    40    42    1
    16    31    33   ar
    17    32    34   ar
    18    22    21    2
    19    21    20    1
    20    33    34   ar
    21    11    10    2
    22    14    16   ar
    23    14    13   ar
    24    46    45    2
    25    12    13    1
    26    12     9    1
    27    16    18   ar
    28    13    15   ar
    29    23    20    1
    30    45    44    1
    31    43    44    1
    32    18    17   ar
    33    44    47    1
    34    10     9    1
    35    20    19    1
    36    15    17   ar
    37    71    72    1
    38     9     8    1
    39    72    73    1
    40    69    68   ar
    41    47    48    1
    42    65    64    1
    43    65    66    2
    44    50    48   ar
    45    50    52   ar
    46     8     3   am
    47    64    63    1
    48    64    67    1
    49    48    49   ar
    50    52    53   ar
    51    73    74    2
    52    73    75   am
    53    68    67    1
    54    68    70   ar
    55     4     3    2
    56     3     2    1
    57    49    51   ar
    58    53    51   ar
    59    53    54    1
    60    75    76    1
    61    78    77    2
    62     5     2    1
    63     5     6    1
    64     5     7    1
    65     2     1    1
    66    57    56    1
    67    57    58    2
    68    59    56    1
    69    59    61    1
    70    59    60    1
    71    76    77    1
    72    76    79    1
    73    62    60    1
    74    56    55    1
    75    77    82   am
    76    80    79    1
    77    79    81    1
    78    82    83    1
    79    83    86    1
    80    83    84    1
    81    86    87    1
    82   109   108    1
    83   124   122    1
    84    85    84    2
    85   108   105    1
    86   116   115    1
    87   105   104    1
    88   105   106    1
    89   122   123    1
    90   122   119    1
    91   123   125    1
    92   117   115    1
    93   120   119    1
    94   120   121    2
    95   119   118    1
    96   107   106    2
    97   115   114    1
    98   114   111    1
    99   102   100    1
   100   101   100    1
   101   101   103    1
   102   111   112    1
   103   111   110    1
   104   100    97    1
   105   112   113    2
   106    95    94    1
   107    94    93    1
   108    97    98    1
   109    97    96    1
   110    98    99    2
   111    93    92    1
   112    92    89    1
   113    91    90    2
   114    90    89    1
   115    89    88    1
