@<TRIPOS>MOLECULE
tmp/4obzA00.pdb
 87 85 0 0 0
SMALL
GASTEIGER

@<TRIPOS>ATOM
      1  N        -38.2880   -8.7770  -14.9760 N.3    12  ALA12      -0.1231
      2  CA       -37.4390   -7.6260  -14.6920 C.3    12  ALA12       0.1694
      3  C        -36.9640   -6.9270  -15.9540 C.2    12  ALA12       0.2592
      4  O        -36.8270   -5.6970  -15.9530 O.2    12  ALA12      -0.2718
      5  CB       -36.2300   -8.0810  -13.8870 C.3    12  ALA12       0.0304
      6  N        -36.6780   -7.7000  -17.0200 N.am   13  GLN13      -0.1966
      7  CA       -36.2050   -7.1040  -18.2580 C.3    13  GLN13       0.1733
      8  C        -37.0970   -7.3980  -19.4570 C.2    13  GLN13       0.2616
      9  O        -37.3250   -8.5700  -19.7820 O.2    13  GLN13      -0.2715
     10  CB       -34.7560   -7.5070  -18.5240 C.3    13  GLN13       0.0408
     11  CG       -33.7780   -6.7590  -17.6480 C.3    13  GLN13       0.0908
     12  CD       -32.4610   -7.4650  -17.5520 C.2    13  GLN13       0.2608
     13  OE1      -31.7730   -7.6840  -18.5610 O.2    13  GLN13      -0.2717
     14  NE2      -32.0770   -7.8060  -16.3230 N.am   13  GLN13      -0.0878
     15  N        -37.5920   -6.3340  -20.1180 N.am   14  TYR14      -0.1974
     16  CA       -38.4200   -6.4790  -21.3140 C.3    14  TYR14       0.1639
     17  C        -37.7220   -5.7600  -22.4380 C.2    14  TYR14       0.2290
     18  O        -37.5980   -4.5350  -22.4280 O.2    14  TYR14      -0.2864
     19  CB       -39.8350   -5.9480  -21.1010 C.3    14  TYR14       0.0560
     20  CG       -40.6190   -6.7110  -20.0670 C.ar   14  TYR14      -0.0198
     21  CD1      -41.3760   -7.8160  -20.4200 C.ar   14  TYR14      -0.0009
     22  CD2      -40.6490   -6.2970  -18.7380 C.ar   14  TYR14      -0.0009
     23  CE1      -42.1410   -8.4960  -19.4770 C.ar   14  TYR14       0.0417
     24  CE2      -41.3920   -6.9850  -17.7800 C.ar   14  TYR14       0.0417
     25  CZ       -42.1370   -8.0810  -18.1560 C.ar   14  TYR14       0.1957
     26  OH       -42.8610   -8.7380  -17.1980 O.3    14  TYR14      -0.2866
     27  N        -34.2940   -1.8460  -24.6760 N.3    30  VAL30      -0.1245
     28  CA       -35.3930   -1.7210  -23.7340 C.3    30  VAL30       0.1561
     29  C        -36.1650   -0.5040  -24.2680 C.2    30  VAL30       0.2260
     30  O        -35.5640    0.5740  -24.4440 O.2    30  VAL30      -0.2867
     31  CB       -34.9390   -1.5570  -22.2490 C.3    30  VAL30       0.0252
     32  CG1      -36.0400   -0.9530  -21.3840 C.3    30  VAL30       0.0019
     33  CG2      -34.5210   -2.8880  -21.6730 C.3    30  VAL30       0.0019
     34  N        -37.8790    2.0490  -23.2410 N.3    32  ASP32      -0.1239
     35  CA       -38.0460    2.7530  -21.9750 C.3    32  ASP32       0.1674
     36  C        -38.8460    4.0390  -22.1060 C.2    32  ASP32       0.2266
     37  O        -38.3090    5.0320  -22.5960 O.2    32  ASP32      -0.2867
     38  CB       -36.6480    3.0120  -21.3450 C.3    32  ASP32       0.1410
     39  CG       -36.5750    3.7420  -20.0160 C.2    32  ASP32       0.3668
     40  OD1      -37.6020    3.8290  -19.3230 O.co2  32  ASP32      -0.2456
     41  OD2      -35.4780    4.1660  -19.6430 O.co2  32  ASP32      -0.2456
     42  N        -39.5190    5.8810  -19.6570 N.3    34  GLY34      -0.1210
     43  CA       -38.9760    6.7160  -18.5830 C.3    34  GLY34       0.1956
     44  C        -37.7370    7.5100  -18.9810 C.2    34  GLY34       0.2612
     45  O        -37.2310    8.3180  -18.1920 O.2    34  GLY34      -0.2717
     46  N        -37.2240    7.2630  -20.2110 N.am   35  SER35      -0.1952
     47  CA       -36.0800    7.9490  -20.8150 C.3    35  SER35       0.1924
     48  C        -36.4640    8.4200  -22.2230 C.2    35  SER35       0.2314
     49  O        -37.5260    8.0190  -22.7060 O.2    35  SER35      -0.2863
     50  CB       -34.8460    7.0500  -20.8360 C.3    35  SER35       0.2116
     51  OG       -34.8300    6.0660  -21.8590 O.3    35  SER35      -0.2180
     52  N        -29.4670    4.6750  -27.6070 N.3    39  TRP39      -0.1241
     53  CA       -28.0350    4.3650  -27.5780 C.3    39  TRP39       0.1605
     54  C        -27.8500    2.8810  -27.6280 C.2    39  TRP39       0.2264
     55  O        -28.6400    2.1440  -27.0460 O.2    39  TRP39      -0.2867
     56  CB       -27.2670    4.9910  -26.3830 C.3    39  TRP39       0.0550
     57  CG       -27.6300    4.4690  -25.0130 C.ar   39  TRP39       0.0003
     58  CD1      -28.4260    5.0890  -24.1090 C.ar   39  TRP39       0.0946
     59  CD2      -27.2090    3.2250  -24.3950 C.ar   39  TRP39       0.0152
     60  NE1      -28.5220    4.3310  -22.9610 N.ar   39  TRP39      -0.2442
     61  CE2      -27.8040    3.1730  -23.1160 C.ar   39  TRP39       0.0810
     62  CE3      -26.3160    2.1860  -24.7650 C.ar   39  TRP39       0.0012
     63  CZ2      -27.5800    2.1120  -22.2180 C.ar   39  TRP39       0.0191
     64  CZ3      -26.1170    1.1230  -23.8880 C.ar   39  TRP39       0.0001
     65  CH2      -26.7470    1.0950  -22.6290 C.ar   39  TRP39       0.0015
     66  N        -28.2720    7.4580  -15.4070 N.3    77  TYR77      -0.1227
     67  CA       -29.4740    6.7490  -14.9670 C.3    77  TYR77       0.1736
     68  C        -29.2400    6.4600  -13.4710 C.2    77  TYR77       0.2596
     69  O        -28.0810    6.4400  -13.0310 O.2    77  TYR77      -0.2718
     70  CB       -29.6360    5.4280  -15.7470 C.3    77  TYR77       0.0548
     71  CG       -29.8300    5.5670  -17.2430 C.ar   77  TYR77      -0.0200
     72  CD1      -30.7970    6.4240  -17.7650 C.ar   77  TYR77      -0.0009
     73  CD2      -29.1250    4.7610  -18.1350 C.ar   77  TYR77      -0.0009
     74  CE1      -31.0400    6.4990  -19.1420 C.ar   77  TYR77       0.0417
     75  CE2      -29.3620    4.8230  -19.5150 C.ar   77  TYR77       0.0417
     76  CZ       -30.3260    5.6920  -20.0130 C.ar   77  TYR77       0.1957
     77  OH       -30.5770    5.7820  -21.3620 O.3    77  TYR77      -0.2866
     78  N        -30.3120    6.2800  -12.6990 N.am   78  GLY78      -0.1942
     79  CA       -30.1760    6.0010  -11.2680 C.3    78  GLY78       0.2014
     80  C        -29.1670    4.8970  -10.9780 C.2    78  GLY78       0.2639
     81  O        -28.1660    5.1060  -10.2750 O.2    78  GLY78      -0.2714
     82  N        -29.4120    3.7290  -11.6070 N.am   79  SER79      -0.1949
     83  CA       -28.6130    2.5040  -11.5510 C.3    79  SER79       0.1924
     84  C        -27.1660    2.6990  -12.0880 C.2    79  SER79       0.2314
     85  O        -26.1930    2.3380  -11.4090 O.2    79  SER79      -0.2863
     86  CB       -29.3230    1.3900  -12.3190 C.3    79  SER79       0.2116
     87  OG       -29.6760    1.8270  -13.6220 O.3    79  SER79      -0.2180
@<TRIPOS>BOND
     1    54    53    1
     2    54    55    2
     3    52    53    1
     4    53    56    1
     5    56    57    1
     6    57    59   ar
     7    57    58   ar
     8    62    59   ar
     9    62    64   ar
    10    27    28    1
    11    30    29    2
    12    59    61   ar
    13    29    28    1
    14    58    60   ar
    15    64    65   ar
    16    28    31    1
    17    34    35    1
    18    61    60   ar
    19    61    63   ar
    20    49    48    2
    21    65    63   ar
    22    37    36    2
    23    17    18    2
    24    17    16    1
    25    31    33    1
    26    31    32    1
    27    48    47    1
    28    36    35    1
    29    35    38    1
    30    51    50    1
    31    77    76    1
    32    38    39    1
    33    16    19    1
    34    16    15    1
    35    19    20    1
    36    50    47    1
    37    47    46    1
    38    21    20   ar
    39    21    23   ar
    40    46    44   am
    41    15     8   am
    42    20    22   ar
    43    39    41   ar
    44    39    40   ar
    45    76    75   ar
    46    76    74   ar
    47     9     8    2
    48    42    43    1
    49    75    73   ar
    50    23    25   ar
    51     8     7    1
    52    74    72   ar
    53    44    43    1
    54    44    45    2
    55    22    24   ar
    56    13    12    2
    57    10     7    1
    58    10    11    1
    59     7     6    1
    60    25    24   ar
    61    25    26    1
    62    73    71   ar
    63    72    71   ar
    64    11    12    1
    65    12    14   am
    66    71    70    1
    67     6     3   am
    68     3     4    2
    69     3     2    1
    70    70    67    1
    71    66    67    1
    72     1     2    1
    73    67    68    1
    74     2     5    1
    75    87    86    1
    76    68    69    2
    77    68    78   am
    78    78    79    1
    79    86    83    1
    80    84    83    1
    81    84    85    2
    82    82    83    1
    83    82    80   am
    84    79    80    1
    85    80    81    2
