@<TRIPOS>MOLECULE
tmp/4oc6B01.pdb
 199 185 0 0 0
SMALL
GASTEIGER

@<TRIPOS>ATOM
      1  N         12.8150   45.9030   17.1290 N.3    20  THR20      -0.1203
      2  CA        12.5520   44.7110   16.3050 C.3    20  THR20       0.1994
      3  C         11.7480   43.6960   17.0570 C.2    20  THR20       0.2617
      4  O         10.7520   43.1720   16.5420 O.2    20  THR20      -0.2717
      5  CB        13.8590   44.0400   15.8460 C.3    20  THR20       0.1784
      6  OG1       14.6780   45.0000   15.1830 O.3    20  THR20      -0.2211
      7  CG2       13.6030   42.8440   14.9250 C.3    20  THR20       0.0376
      8  N         12.1770   43.4320   18.2900 N.am   21  PHE21      -0.1975
      9  CA        11.5600   42.4040   19.0780 C.3    21  PHE21       0.1639
     10  C         10.2980   42.8820   19.7550 C.2    21  PHE21       0.2290
     11  O          9.4910   42.0470   20.1270 O.2    21  PHE21      -0.2864
     12  CB        12.5690   41.7480   20.0000 C.3    21  PHE21       0.0560
     13  CG        13.6230   41.0420   19.1640 C.ar   21  PHE21      -0.0200
     14  CD1       13.2670   40.0340   18.2670 C.ar   21  PHE21      -0.0042
     15  CD2       14.9630   41.4030   19.2530 C.ar   21  PHE21      -0.0042
     16  CE1       14.2350   39.4030   17.4740 C.ar   21  PHE21      -0.0003
     17  CE2       15.9310   40.7510   18.4770 C.ar   21  PHE21      -0.0003
     18  CZ        15.5580   39.7650   17.5820 C.ar   21  PHE21      -0.0000
     19  N          8.2350   44.9400   17.7720 N.3    23  ALA23      -0.1231
     20  CA         7.4580   44.9390   16.5220 C.3    23  ALA23       0.1694
     21  C          7.1090   43.5180   16.0050 C.2    23  ALA23       0.2591
     22  O          6.1650   43.3620   15.2150 O.2    23  ALA23      -0.2718
     23  CB         8.2010   45.7200   15.4460 C.3    23  ALA23       0.0304
     24  N          7.8890   42.5010   16.4220 N.am   24  ALA24      -0.1980
     25  CA         7.7190   41.1060   16.0280 C.3    24  ALA24       0.1597
     26  C          6.4420   40.5130   16.6050 C.2    24  ALA24       0.2287
     27  O          6.2170   40.5970   17.8080 O.2    24  ALA24      -0.2864
     28  CB         8.9210   40.3010   16.4900 C.3    24  ALA24       0.0319
     29  N          5.8780   37.3160   16.3680 N.3    26  PHE26      -0.1241
     30  CA         6.3090   35.9650   16.6620 C.3    26  PHE26       0.1605
     31  C          7.1800   35.9860   17.9300 C.2    26  PHE26       0.2264
     32  O          7.6640   37.0490   18.3310 O.2    26  PHE26      -0.2867
     33  CB         7.0630   35.3980   15.4590 C.3    26  PHE26       0.0534
     34  CG         8.1750   36.2870   14.9520 C.ar   26  PHE26      -0.0203
     35  CD1        9.4750   36.1580   15.4460 C.ar   26  PHE26      -0.0042
     36  CD2        7.9300   37.2540   13.9790 C.ar   26  PHE26      -0.0042
     37  CE1       10.5140   36.9910   14.9880 C.ar   26  PHE26      -0.0003
     38  CE2        8.9620   38.0770   13.5140 C.ar   26  PHE26      -0.0003
     39  CZ        10.2520   37.9450   14.0280 C.ar   26  PHE26      -0.0000
     40  N         12.7750   32.6280   16.3590 N.3    29  ILE29      -0.1245
     41  CA        13.1580   32.3190   15.0090 C.3    29  ILE29       0.1561
     42  C         13.6960   30.9230   14.9710 C.2    29  ILE29       0.2260
     43  O         14.5890   30.6010   15.7540 O.2    29  ILE29      -0.2867
     44  CB        14.1820   33.3700   14.4600 C.3    29  ILE29       0.0252
     45  CG1       13.4540   34.6920   14.0980 C.3    29  ILE29       0.0019
     46  CG2       14.9580   32.8500   13.2260 C.3    29  ILE29       0.0019
     47  CD1       13.9310   35.8770   14.7730 C.3    29  ILE29       0.0001
     48  N         26.7160   28.2560    9.3420 N.3    37  ILE37      -0.1245
     49  CA        26.6030   29.6030    9.9290 C.3    37  ILE37       0.1561
     50  C         25.8770   29.6170   11.2890 C.2    37  ILE37       0.2260
     51  O         25.5010   30.6840   11.7910 O.2    37  ILE37      -0.2867
     52  CB        26.0020   30.6320    8.9260 C.3    37  ILE37       0.0252
     53  CG1       24.6400   30.1950    8.3420 C.3    37  ILE37       0.0019
     54  CG2       27.0170   30.9620    7.8330 C.3    37  ILE37       0.0019
     55  CD1       23.6270   31.3290    8.1580 C.3    37  ILE37       0.0001
     56  N         25.3470   29.8100   15.1080 N.3    39  VAL39      -0.1245
     57  CA        25.9270   30.4700   16.2890 C.3    39  VAL39       0.1561
     58  C         26.1590   29.4150   17.3820 C.2    39  VAL39       0.2260
     59  O         25.2610   28.6240   17.6740 O.2    39  VAL39      -0.2867
     60  CB        24.9950   31.6270   16.7790 C.3    39  VAL39       0.0252
     61  CG1       25.3420   32.0870   18.1970 C.3    39  VAL39       0.0019
     62  CG2       24.9840   32.8050   15.8030 C.3    39  VAL39       0.0019
     63  N         24.2800   30.1930    3.6970 N.3   100  TYR100     -0.1241
     64  CA        22.9100   30.6570    3.4640 C.3   100  TYR100      0.1605
     65  C         22.4040   29.7610    2.3150 C.2   100  TYR100      0.2264
     66  O         23.1040   28.8140    1.9200 O.2   100  TYR100     -0.2867
     67  CB        22.8780   32.1470    3.0270 C.3   100  TYR100      0.0534
     68  CG        23.4240   33.1270    4.0410 C.ar  100  TYR100     -0.0201
     69  CD1       22.6650   33.5200    5.1360 C.ar  100  TYR100     -0.0009
     70  CD2       24.7130   33.6420    3.9220 C.ar  100  TYR100     -0.0009
     71  CE1       23.1690   34.4060    6.0890 C.ar  100  TYR100      0.0417
     72  CE2       25.2300   34.5250    4.8740 C.ar  100  TYR100      0.0417
     73  CZ        24.4500   34.9080    5.9560 C.ar  100  TYR100      0.1957
     74  OH        24.9330   35.7380    6.9470 O.3   100  TYR100     -0.2866
     75  N         20.7710   35.2700   -2.0260 N.3   124  ILE124     -0.1245
     76  CA        20.3110   34.2800   -1.0520 C.3   124  ILE124      0.1561
     77  C         18.8140   34.2660   -1.0720 C.2   124  ILE124      0.2260
     78  O         18.2200   35.3070   -1.3610 O.2   124  ILE124     -0.2867
     79  CB        20.9180   34.4100    0.3840 C.3   124  ILE124      0.0252
     80  CG1       20.5290   35.7090    1.0950 C.3   124  ILE124      0.0019
     81  CG2       22.4350   34.2300    0.3550 C.3   124  ILE124      0.0019
     82  CD1       20.4020   35.5400    2.5870 C.3   124  ILE124      0.0001
     83  N         15.8180   34.1370    1.2020 N.3   126  ASP126     -0.1239
     84  CA        15.5520   34.3240    2.6200 C.3   126  ASP126      0.1674
     85  C         14.0860   34.5490    2.9670 C.2   126  ASP126      0.2266
     86  O         13.5730   35.6630    2.8320 O.2   126  ASP126     -0.2867
     87  CB        16.4440   35.4640    3.1730 C.3   126  ASP126      0.1410
     88  CG        16.3730   35.7440    4.6730 C.2   126  ASP126      0.3668
     89  OD1       15.7560   34.9400    5.4050 O.co2 126  ASP126     -0.2456
     90  OD2       16.9390   36.7600    5.1090 O.co2 126  ASP126     -0.2456
     91  N         12.8570   34.8130    5.9170 N.3   128  GLY128     -0.1210
     92  CA        12.7630   35.7300    7.0540 C.3   128  GLY128      0.1956
     93  C         13.0210   37.1990    6.7770 C.2   128  GLY128      0.2613
     94  O         13.2270   37.9690    7.7250 O.2   128  GLY128     -0.2717
     95  N         13.0650   37.5870    5.4860 N.am  129  THR129     -0.1938
     96  CA        13.1780   38.9630    5.0020 C.3   129  THR129      0.2028
     97  C         11.9310   39.2430    4.1370 C.2   129  THR129      0.2643
     98  O         11.6290   38.4900    3.2060 O.2   129  THR129     -0.2714
     99  CB        14.5240   39.2130    4.3050 C.3   129  THR129      0.1808
    100  OG1       15.5080   39.1800    5.3150 O.3   129  THR129     -0.2208
    101  CG2       14.6010   40.5560    3.6190 C.3   129  THR129      0.0379
    102  N         11.1790   40.2900    4.4840 N.am  130  SER130     -0.1935
    103  CA         9.9650   40.5970    3.7580 C.3   130  SER130      0.2055
    104  C         10.2020   41.1360    2.3600 C.2   130  SER130      0.2642
    105  O          9.4620   40.7840    1.4340 O.2   130  SER130     -0.2714
    106  CB         9.0820   41.5440    4.5620 C.3   130  SER130      0.2130
    107  OG         9.7570   42.7500    4.8550 O.3   130  SER130     -0.2179
    108  N         11.2300   41.9800    2.2060 N.am  131  LEU131     -0.1977
    109  CA        11.5180   42.6640    0.9550 C.3   131  LEU131      0.1596
    110  C         12.6010   42.0200    0.1470 C.2   131  LEU131      0.2287
    111  O         13.3070   41.1350    0.6370 O.2   131  LEU131     -0.2864
    112  CB        11.9350   44.1340    1.2490 C.3   131  LEU131      0.0297
    113  CG        10.9760   45.0400    2.0510 C.3   131  LEU131      0.0022
    114  CD1       11.5070   46.4410    2.0980 C.3   131  LEU131      0.0001
    115  CD2        9.5940   45.0820    1.4450 C.3   131  LEU131      0.0001
    116  N         16.2150   42.6630   -1.2610 N.3   133  VAL133     -0.1245
    117  CA        17.3180   43.5180   -0.8110 C.3   133  VAL133      0.1561
    118  C         18.3960   43.5430   -1.8970 C.2   133  VAL133      0.2260
    119  O         18.7470   42.5090   -2.4520 O.2   133  VAL133     -0.2867
    120  CB        17.9060   43.1460    0.5890 C.3   133  VAL133      0.0252
    121  CG1       18.9400   44.1660    1.0480 C.3   133  VAL133      0.0019
    122  CG2       16.8280   43.0130    1.6520 C.3   133  VAL133      0.0019
    123  N         14.5140   52.0610    2.6250 N.3   155  GLU155     -0.1245
    124  CA        13.1790   51.8170    2.0870 C.3   155  GLU155      0.1567
    125  C         12.6820   52.9890    1.2260 C.2   155  GLU155      0.2260
    126  O         13.2640   54.0860    1.2680 O.2   155  GLU155     -0.2867
    127  CB        12.1880   51.5240    3.2130 C.3   155  GLU155      0.0388
    128  CG        12.3110   50.1270    3.7830 C.3   155  GLU155      0.1160
    129  CD        11.3460   49.8550    4.9150 C.2   155  GLU155      0.3649
    130  OE1       10.6560   50.8020    5.3600 O.co2 155  GLU155     -0.2457
    131  OE2       11.2900   48.6900    5.3700 O.co2 155  GLU155     -0.2457
    132  N         14.6310   47.1350   -1.2570 N.3   202  MET202     -0.1245
    133  CA        15.2980   47.8680   -0.1910 C.3   202  MET202      0.1570
    134  C         16.8010   47.9300   -0.4890 C.2   202  MET202      0.2261
    135  O         17.3720   46.9610   -0.9850 O.2   202  MET202     -0.2867
    136  CB        15.0440   47.1330    1.1330 C.3   202  MET202      0.0387
    137  CG        15.4630   47.8790    2.3580 C.3   202  MET202      0.0595
    138  SD        15.2730   46.7670    3.7480 S.3   202  MET202     -0.1393
    139  CE        16.6870   47.2660    4.7460 C.3   202  MET202      0.0692
    140  N         20.4450   47.8960    0.8190 N.3   204  MET204     -0.1245
    141  CA        21.3530   47.5330    1.9060 C.3   204  MET204      0.1570
    142  C         22.5850   46.7770    1.3900 C.2   204  MET204      0.2261
    143  O         22.4570   45.7770    0.6670 O.2   204  MET204     -0.2867
    144  CB        20.6220   46.7410    2.9980 C.3   204  MET204      0.0387
    145  CG        21.3760   46.6280    4.3150 C.3   204  MET204      0.0595
    146  SD        20.4700   45.5560    5.4830 S.3   204  MET204     -0.1393
    147  CE        21.5220   45.8090    7.0510 C.3   204  MET204      0.0692
    148  N         25.4710   44.3540    2.1540 N.3   206  ILE206     -0.1231
    149  CA        25.8580   43.3180    3.1180 C.3   206  ILE206      0.1678
    150  C         27.3720   43.2390    3.0680 C.2   206  ILE206      0.2434
    151  O         27.9260   43.0870    1.9750 O.2   206  ILE206     -0.2733
    152  CB        25.1750   41.9500    2.8490 C.3   206  ILE206      0.0265
    153  CG1       23.6580   42.0160    3.1190 C.3   206  ILE206      0.0019
    154  CG2       25.7980   40.8390    3.6890 C.3   206  ILE206      0.0020
    155  CD1       22.8950   41.9840    1.9470 C.3   206  ILE206      0.0001
    156  N         28.0890   43.4200    4.1930 N.am  207  PRO207     -0.2729
    157  CA        29.5480   43.4140    4.1040 C.3   207  PRO207      0.1401
    158  C         30.1740   42.0230    4.1190 C.2   207  PRO207      0.2269
    159  O         29.5750   41.1190    4.6940 O.2   207  PRO207     -0.2865
    160  CB        29.9690   44.2500    5.3150 C.3   207  PRO207      0.0296
    161  CG        28.8900   44.0820    6.3010 C.3   207  PRO207      0.0237
    162  CD        27.6360   43.6560    5.5790 C.3   207  PRO207      0.0939
    163  N         32.3660   38.8980    5.6010 N.3   209  PRO209     -0.2102
    164  CA        32.3910   37.6440    4.8270 C.3   209  PRO209      0.1504
    165  C         31.0940   37.2490    4.1410 C.2   209  PRO209      0.2576
    166  O         31.1190   36.4930    3.1750 O.2   209  PRO209     -0.2718
    167  CB        32.7870   36.6050    5.8780 C.3   209  PRO209      0.0282
    168  CG        32.3670   37.1820    7.1740 C.3   209  PRO209      0.0208
    169  CD        32.5890   38.6450    7.0350 C.3   209  PRO209      0.0893
    170  N         29.9700   37.7400    4.6440 N.am  210  SER210     -0.1953
    171  CA        28.6450   37.4240    4.1370 C.3   210  SER210      0.1924
    172  C         28.3330   37.9350    2.7170 C.2   210  SER210      0.2314
    173  O         27.8370   37.1700    1.8760 O.2   210  SER210     -0.2863
    174  CB        27.5930   37.9260    5.1150 C.3   210  SER210      0.2116
    175  OG        26.9900   36.8370    5.7780 O.3   210  SER210     -0.2180
    176  N         25.4550   40.8340   -1.1430 N.3   213  LEU213     -0.1245
    177  CA        24.4000   39.9120   -1.5550 C.3   213  LEU213      0.1561
    178  C         23.1240   40.6370   -1.8990 C.2   213  LEU213      0.2260
    179  O         22.8250   41.7060   -1.3490 O.2   213  LEU213     -0.2867
    180  CB        24.0190   38.9070   -0.4490 C.3   213  LEU213      0.0270
    181  CG        24.9750   37.8020    0.0050 C.3   213  LEU213      0.0019
    182  CD1       24.3100   36.9830    1.0970 C.3   213  LEU213      0.0001
    183  CD2       25.4090   36.8740   -1.1260 C.3   213  LEU213      0.0001
    184  N         19.0830   39.7830   -1.6000 N.3   215  ILE215     -0.1245
    185  CA        18.2740   38.8750   -0.8120 C.3   215  ILE215      0.1561
    186  C         16.9560   38.6930   -1.5420 C.2   215  ILE215      0.2260
    187  O         16.2300   39.6730   -1.7190 O.2   215  ILE215     -0.2867
    188  CB        18.0990   39.3510    0.6510 C.3   215  ILE215      0.0252
    189  CG1       19.4610   39.3840    1.4030 C.3   215  ILE215      0.0019
    190  CG2       17.0720   38.4780    1.3700 C.3   215  ILE215      0.0019
    191  CD1       19.5270   40.3880    2.5650 C.3   215  ILE215      0.0001
    192  N         10.4020   37.6110    0.8190 N.3   218  ASP218     -0.1239
    193  CA         8.9690   37.2480    0.7680 C.3   218  ASP218      0.1674
    194  C          8.2730   37.7980   -0.4940 C.2   218  ASP218      0.2266
    195  O          7.4130   37.1120   -1.0450 O.2   218  ASP218     -0.2867
    196  CB         8.2170   37.6210    2.0790 C.3   218  ASP218      0.1410
    197  CG         8.8350   36.9950    3.3320 C.2   218  ASP218      0.3668
    198  OD1        9.4810   35.9290    3.2040 O.co2 218  ASP218     -0.2456
    199  OD2        8.6820   37.5860    4.4420 O.co2 218  ASP218     -0.2456
@<TRIPOS>BOND
     1   119   118    2
     2    75    76    1
     3   178   177    1
     4   178   179    2
     5   118   117    1
     6   187   186    2
     7   184   185    1
     8   177   176    1
     9   177   180    1
    10   186   185    1
    11    78    77    2
    12   116   117    1
    13   132   133    1
    14   183   181    1
    15    77    76    1
    16    76    79    1
    17   195   194    2
    18   135   134    2
    19   185   188    1
    20   117   120    1
    21   194   193    1
    22   134   133    1
    23   180   181    1
    24   133   136    1
    25   181   182    1
    26   110   111    2
    27   110   109    1
    28    81    79    1
    29    79    80    1
    30   120   121    1
    31   120   122    1
    32   188   190    1
    33   188   189    1
    34   143   142    2
    35   193   192    1
    36   193   196    1
    37   140   141    1
    38   109   112    1
    39   109   108    1
    40    80    82    1
    41   136   137    1
    42    83    84    1
    43   125   126    2
    44   125   124    1
    45   112   113    1
    46   142   141    1
    47   189   191    1
    48   105   104    2
    49   115   113    1
    50   173   172    2
    51   141   144    1
    52    66    65    2
    53   155   153    1
    54   151   150    2
    55   113   114    1
    56   196   197    1
    57   124   123    1
    58   124   127    1
    59   148   149    1
    60   108   104   am
    61    65    64    1
    62   137   138    1
    63   104   103    1
    64    84    85    1
    65    84    87    1
    66   172   171    1
    67    86    85    2
    68   152   149    1
    69   152   153    1
    70   152   154    1
    71   144   145    1
    72    67    64    1
    73    67    68    1
    74   150   149    1
    75   150   156   am
    76    87    88    1
    77   166   165    2
    78   198   197   ar
    79    98    97    2
    80   127   128    1
    81   197   199   ar
    82    64    63    1
    83   101    99    1
    84   138   139    1
    85   103   102    1
    86   103   106    1
    87   128   129    1
    88    70    68   ar
    89    70    72   ar
    90    68    69   ar
    91   157   158    1
    92   157   156    1
    93   157   160    1
    94   158   159    2
    95   171   170    1
    96   171   174    1
    97    97   102   am
    98    97    96    1
    99   165   170   am
   100   165   164    1
   101   156   162    1
   102    99    96    1
   103    99   100    1
   104   145   146    1
   105   106   107    1
   106    88    90   ar
   107    88    89   ar
   108   164   163    1
   109   164   167    1
   110    72    73   ar
   111   129   130   ar
   112   129   131   ar
   113    96    95    1
   114   174   175    1
   115    69    71   ar
   116   160   161    1
   117   146   147    1
   118    95    93   am
   119   162   161    1
   120   163   169    1
   121   167   168    1
   122    91    92    1
   123    73    71   ar
   124    73    74    1
   125    93    92    1
   126    93    94    2
   127   169   168    1
   128    54    52    1
   129    55    53    1
   130    53    52    1
   131    52    49    1
   132    48    49    1
   133    49    50    1
   134    50    51    2
   135    46    44    1
   136    38    36   ar
   137    38    39   ar
   138    36    34   ar
   139    39    37   ar
   140    45    44    1
   141    45    47    1
   142    44    41    1
   143     7     5    1
   144    34    35   ar
   145    34    33    1
   146    42    41    1
   147    42    43    2
   148    37    35   ar
   149    41    40    1
   150    56    57    1
   151     6     5    1
   152    22    21    2
   153    23    20    1
   154    33    30    1
   155    62    60    1
   156     5     2    1
   157    21    24   am
   158    21    20    1
   159    25    24    1
   160    25    28    1
   161    25    26    1
   162    57    60    1
   163    57    58    1
   164     2     3    1
   165     2     1    1
   166    29    30    1
   167    20    19    1
   168     4     3    2
   169    26    27    2
   170    30    31    1
   171    60    61    1
   172     3     8   am
   173    58    59    2
   174    16    18   ar
   175    16    14   ar
   176    18    17   ar
   177    31    32    2
   178    14    13   ar
   179     8     9    1
   180    17    15   ar
   181     9    10    1
   182     9    12    1
   183    13    15   ar
   184    13    12    1
   185    10    11    2
