@<TRIPOS>MOLECULE
tmp/4oc6A00.pdb
 111 109 0 0 0
SMALL
GASTEIGER

@<TRIPOS>ATOM
      1  N          4.5070   41.1240    5.8430 N.3    13  ALA13      -0.1231
      2  CA         5.7740   41.5160    6.4290 C.3    13  ALA13       0.1694
      3  C          6.3520   40.4190    7.2950 C.2    13  ALA13       0.2591
      4  O          7.5640   40.2960    7.3640 O.2    13  ALA13      -0.2718
      5  CB         5.5900   42.8010    7.2280 C.3    13  ALA13       0.0304
      6  N          5.5090   39.6420    7.9830 N.am   14  GLN14      -0.1979
      7  CA         5.9810   38.5780    8.8750 C.3    14  GLN14       0.1601
      8  C          5.1240   37.3410    8.7080 C.2    14  GLN14       0.2287
      9  O          3.9070   37.4170    8.8460 O.2    14  GLN14      -0.2864
     10  CB         5.9660   39.0030   10.3650 C.3    14  GLN14       0.0394
     11  CG         6.6000   40.3600   10.7430 C.3    14  GLN14       0.0908
     12  CD         6.3350   40.7140   12.1950 C.2    14  GLN14       0.2608
     13  OE1        6.3900   39.8640   13.0850 O.2    14  GLN14      -0.2717
     14  NE2        6.0320   41.9730   12.4800 N.am   14  GLN14      -0.0878
     15  N          9.5720   32.2240   13.1870 N.3    31  VAL31      -0.1245
     16  CA         9.8270   32.5300   11.7890 C.3    31  VAL31       0.1561
     17  C         10.7410   31.4000   11.3830 C.2    31  VAL31       0.2260
     18  O         11.8640   31.2870   11.9080 O.2    31  VAL31      -0.2867
     19  CB        10.5690   33.8760   11.5540 C.3    31  VAL31       0.0252
     20  CG1       11.0110   34.0300   10.0940 C.3    31  VAL31       0.0019
     21  CG2        9.7310   35.0410   11.9550 C.3    31  VAL31       0.0019
     22  N         13.1200   30.7470    9.2420 N.3    33  ASP33      -0.1239
     23  CA        14.0330   31.6640    8.5530 C.3    33  ASP33       0.1674
     24  C         15.1570   30.9880    7.8290 C.2    33  ASP33       0.2266
     25  O         16.0870   30.5250    8.4830 O.2    33  ASP33      -0.2867
     26  CB        14.6160   32.6510    9.5860 C.3    33  ASP33       0.1410
     27  CG        15.5370   33.6710    8.9920 C.2    33  ASP33       0.3668
     28  OD1       15.3580   34.0030    7.8090 O.co2  33  ASP33      -0.2456
     29  OD2       16.4570   34.1190    9.7010 O.co2  33  ASP33      -0.2456
     30  N         17.4540   32.4780    6.1710 N.3    35  GLY35      -0.1210
     31  CA        18.6070   33.3700    6.2560 C.3    35  GLY35       0.1956
     32  C         19.4610   33.2230    7.5000 C.2    35  GLY35       0.2613
     33  O         20.3820   34.0240    7.7070 O.2    35  GLY35      -0.2717
     34  N         19.1550   32.2120    8.3490 N.am   36  SER36      -0.1938
     35  CA        19.8490   31.9130    9.6100 C.3    36  SER36       0.2055
     36  C         19.7470   30.4040    9.9610 C.2    36  SER36       0.2644
     37  O         18.9740   29.7030    9.3040 O.2    36  SER36      -0.2714
     38  CB        19.3510   32.8250   10.7350 C.3    36  SER36       0.2130
     39  OG        18.3030   32.2920   11.5320 O.3    36  SER36      -0.2179
     40  N         20.5570   29.8980   10.9460 N.am   37  SER37      -0.1935
     41  CA        20.5890   28.4720   11.3260 C.3    37  SER37       0.2055
     42  C         20.3480   28.1520   12.8180 C.2    37  SER37       0.2643
     43  O         20.4400   26.9800   13.2130 O.2    37  SER37      -0.2714
     44  CB        21.8950   27.8360   10.8720 C.3    37  SER37       0.2130
     45  OG        21.9120   27.8100    9.4580 O.3    37  SER37      -0.2179
     46  N         20.0380   29.1600   13.6400 N.am   38  ASN38      -0.1971
     47  CA        19.7500   28.9150   15.0540 C.3    38  ASN38       0.1688
     48  C         18.2820   28.9660   15.3520 C.2    38  ASN38       0.2292
     49  O         17.5240   29.6200   14.6280 O.2    38  ASN38      -0.2864
     50  CB        20.4800   29.8980   15.9820 C.3    38  ASN38       0.1181
     51  CG        21.9440   29.9320   15.7530 C.2    38  ASN38       0.2629
     52  OD1       22.4320   30.7620   14.9880 O.2    38  ASN38      -0.2716
     53  ND2       22.6540   28.9900   16.3630 N.am   38  ASN38      -0.0877
     54  N         15.7330   29.8610   18.6690 N.3    40  TRP40      -0.1241
     55  CA        15.6460   30.4800   19.9920 C.3    40  TRP40       0.1605
     56  C         14.2370   30.9540   20.2320 C.2    40  TRP40       0.2264
     57  O         13.5170   31.2360   19.2670 O.2    40  TRP40      -0.2867
     58  CB        16.6730   31.6350   20.1730 C.3    40  TRP40       0.0550
     59  CG        16.4220   32.8070   19.2680 C.ar   40  TRP40       0.0003
     60  CD1       16.9840   33.0300   18.0480 C.ar   40  TRP40       0.0946
     61  CD2       15.4350   33.8390   19.4530 C.ar   40  TRP40       0.0152
     62  NE1       16.4420   34.1560   17.4760 N.ar   40  TRP40      -0.2442
     63  CE2       15.4650   34.6560   18.3020 C.ar   40  TRP40       0.0810
     64  CE3       14.5860   34.2030   20.5180 C.ar   40  TRP40       0.0012
     65  CZ2       14.6460   35.7850   18.1610 C.ar   40  TRP40       0.0191
     66  CZ3       13.7940   35.3350   20.3850 C.ar   40  TRP40       0.0001
     67  CH2       13.8200   36.1050   19.2120 C.ar   40  TRP40       0.0015
     68  N         23.2010   36.5730   19.2200 N.3    76  ILE76      -0.1231
     69  CA        22.9050   36.5050   17.7850 C.3    76  ILE76       0.1692
     70  C         22.7450   37.9010   17.2320 C.2    76  ILE76       0.2592
     71  O         22.0990   38.7450   17.8510 O.2    76  ILE76      -0.2718
     72  CB        21.7290   35.5630   17.3630 C.3    76  ILE76       0.0266
     73  CG1       21.7170   34.2640   18.1930 C.3    76  ILE76       0.0019
     74  CG2       21.8410   35.2370   15.8420 C.3    76  ILE76       0.0020
     75  CD1       20.5560   33.3990   18.0430 C.3    76  ILE76       0.0001
     76  N         23.3430   38.1400   16.0650 N.am   77  HIS77      -0.1962
     77  CA        23.2630   39.4190   15.3660 C.3    77  HIS77       0.1787
     78  C         22.6510   39.2210   13.9790 C.2    77  HIS77       0.2620
     79  O         23.3090   38.6870   13.0860 O.2    77  HIS77      -0.2715
     80  CB        24.6220   40.1260   15.3410 C.3    77  HIS77       0.0785
     81  CG        25.2080   40.2390   16.7140 C.ar   77  HIS77       0.0821
     82  ND1       24.9740   41.3510   17.5130 N.ar   77  HIS77      -0.2267
     83  CD2       25.9260   39.3330   17.4260 C.ar   77  HIS77       0.1154
     84  CE1       25.5840   41.1010   18.6640 C.ar   77  HIS77       0.1986
     85  NE2       26.1720   39.8990   18.6610 N.ar   77  HIS77      -0.2212
     86  N         21.3460   39.5680   13.8520 N.am   78  TYR78      -0.1960
     87  CA        20.5660   39.5260   12.6160 C.3    78  TYR78       0.1771
     88  C         20.7020   40.8740   11.9260 C.2    78  TYR78       0.2620
     89  O         21.2420   41.8100   12.5140 O.2    78  TYR78      -0.2715
     90  CB        19.0580   39.2510   12.8690 C.3    78  TYR78       0.0574
     91  CG        18.7670   37.8900   13.4500 C.ar   78  TYR78      -0.0198
     92  CD1       18.7980   36.7490   12.6540 C.ar   78  TYR78      -0.0009
     93  CD2       18.4240   37.7430   14.7960 C.ar   78  TYR78      -0.0009
     94  CE1       18.5340   35.4890   13.1900 C.ar   78  TYR78       0.0417
     95  CE2       18.1250   36.4910   15.3330 C.ar   78  TYR78       0.0417
     96  CZ        18.1890   35.3660   14.5280 C.ar   78  TYR78       0.1957
     97  OH        17.9750   34.1190   15.0660 O.3    78  TYR78      -0.2866
     98  N         20.1320   40.9770   10.7290 N.am   79  GLY79      -0.1940
     99  CA        20.1250   42.2160    9.9670 C.3    79  GLY79       0.2014
    100  C         19.4000   43.3280   10.6950 C.2    79  GLY79       0.2640
    101  O         19.9080   44.4480   10.7850 O.2    79  GLY79      -0.2714
    102  N         18.2370   42.9950   11.2790 N.am   80  SER80      -0.1935
    103  CA        17.4010   43.9630   11.9820 C.3    80  SER80       0.2058
    104  C         17.5630   43.9800   13.5240 C.2    80  SER80       0.2682
    105  O         17.1430   44.9430   14.1580 O.2    80  SER80      -0.2710
    106  CB        15.9390   43.7810   11.5910 C.3    80  SER80       0.2130
    107  OG        15.5870   42.4170   11.7000 O.3    80  SER80      -0.2179
    108  N         18.1980   42.9790   14.1170 N.am   81  GLY81      -0.1729
    109  CA        18.3340   43.0060   15.5640 C.2    81  GLY81       0.1340
    110  C         19.2980   42.0440   16.2100 C.2    81  GLY81       0.2521
    111  O         19.8100   41.1230   15.5660 O.2    81  GLY81      -0.2816
@<TRIPOS>BOND
     1     1     2    1
     2    30    31    1
     3    31    32    1
     4     2     5    1
     5     2     3    1
     6     3     4    2
     7     3     6   am
     8    32    33    2
     9    32    34   am
    10    28    27   ar
    11    24    25    2
    12    24    23    1
    13     6     7    1
    14    34    35    1
    15    23    22    1
    16    23    26    1
    17     8     9    2
    18     8     7    1
    19     7    10    1
    20    27    26    1
    21    27    29   ar
    22    37    36    2
    23    45    44    1
    24    35    36    1
    25    35    38    1
    26    36    40   am
    27    99   100    1
    28    99    98    1
    29    20    19    1
    30    10    11    1
    31   100   101    2
    32   100   102   am
    33    98    88   am
    34    38    39    1
    35    11    12    1
    36    44    41    1
    37    40    41    1
    38   102   103    1
    39    41    42    1
    40    17    16    1
    41    17    18    2
    42    19    16    1
    43    19    21    1
    44   106   107    1
    45   106   103    1
    46    16    15    1
    47    88    89    2
    48    88    87    1
    49   103   104    1
    50    12    14   am
    51    12    13    2
    52    87    90    1
    53    87    86    1
    54    92    94   ar
    55    92    91   ar
    56    42    43    2
    57    42    46   am
    58    90    91    1
    59    79    78    2
    60    94    96   ar
    61    91    93   ar
    62   104   108    1
    63   104   105    2
    64    46    47    1
    65    86    78   am
    66    78    77    1
    67   108   109    2
    68    96    97    1
    69    96    95   ar
    70    49    48    2
    71    93    95   ar
    72    52    51    2
    73    47    48    1
    74    47    50    1
    75    80    77    1
    76    80    81    1
    77    77    76    1
    78   109   110    1
    79   111   110    2
    80    51    50    1
    81    51    53   am
    82    74    72    1
    83    76    70   am
    84    81    83   ar
    85    81    82   ar
    86    70    69    1
    87    70    71    2
    88    72    69    1
    89    72    73    1
    90    83    85   ar
    91    62    60   ar
    92    62    63   ar
    93    82    84   ar
    94    69    68    1
    95    75    73    1
    96    60    59   ar
    97    65    63   ar
    98    65    67   ar
    99    63    61   ar
   100    85    84   ar
   101    54    55    1
   102    67    66   ar
   103    57    56    2
   104    59    61   ar
   105    59    58    1
   106    61    64   ar
   107    55    58    1
   108    55    56    1
   109    66    64   ar
