@<TRIPOS>MOLECULE
tmp/4oc7A01.pdb
 182 173 0 0 0
SMALL
GASTEIGER

@<TRIPOS>ATOM
      1  N         71.4100  -25.6300  105.7080 N.3    23  ILE23      -0.1245
      2  CA        71.1930  -24.3260  106.3270 C.3    23  ILE23       0.1561
      3  C         70.9590  -24.4590  107.8300 C.2    23  ILE23       0.2260
      4  O         71.5840  -23.7560  108.6210 O.2    23  ILE23      -0.2867
      5  CB        70.0050  -23.5830  105.6710 C.3    23  ILE23       0.0252
      6  CG1       70.4430  -22.9540  104.3460 C.3    23  ILE23       0.0019
      7  CG2       69.4580  -22.5010  106.5880 C.3    23  ILE23       0.0019
      8  CD1       69.3600  -22.1490  103.6610 C.3    23  ILE23       0.0001
      9  N         74.2850  -25.5430  109.3450 N.3    26  ALA26      -0.1231
     10  CA        75.3080  -24.5070  109.4210 C.3    26  ALA26       0.1694
     11  C         74.9740  -23.4410  110.4620 C.2    26  ALA26       0.2591
     12  O         75.8660  -22.8100  111.0270 O.2    26  ALA26      -0.2718
     13  CB        75.4980  -23.8670  108.0600 C.3    26  ALA26       0.0304
     14  N         73.6840  -23.2460  110.7090 N.am   27  ALA27      -0.1980
     15  CA        73.2240  -22.2260  111.6370 C.3    27  ALA27       0.1597
     16  C         73.4810  -22.6490  113.0750 C.2    27  ALA27       0.2287
     17  O         73.8360  -21.8290  113.9210 O.2    27  ALA27      -0.2864
     18  CB        71.7480  -21.9420  111.4220 C.3    27  ALA27       0.0319
     19  N         77.2720  -22.3850  113.5660 N.3    30  GLN30      -0.1245
     20  CA        77.7710  -21.0170  113.7040 C.3    30  GLN30       0.1566
     21  C         77.3740  -20.3540  115.0170 C.2    30  GLN30       0.2260
     22  O         77.9920  -19.3740  115.4320 O.2    30  GLN30      -0.2867
     23  CB        77.2890  -20.1520  112.5360 C.3    30  GLN30       0.0367
     24  CG        78.0750  -20.3490  111.2530 C.3    30  GLN30       0.0905
     25  CD        79.5710  -20.1510  111.4390 C.2    30  GLN30       0.2608
     26  OE1       80.3210  -21.1160  111.6000 O.2    30  GLN30      -0.2717
     27  NE2       80.0130  -18.8970  111.4040 N.am   30  GLN30      -0.0878
     28  N         71.0980  -12.8930  117.4010 N.3    60  TRP60      -0.1227
     29  CA        71.8050  -14.0230  116.8000 C.3    60  TRP60       0.1737
     30  C         71.4520  -14.2230  115.3290 C.2    60  TRP60       0.2595
     31  O         72.3150  -14.5420  114.5080 O.2    60  TRP60      -0.2718
     32  CB        71.5250  -15.3150  117.5800 C.3    60  TRP60       0.0564
     33  CG        70.1530  -15.9030  117.3780 C.ar   60  TRP60       0.0003
     34  CD1       69.0370  -15.6650  118.1300 C.ar   60  TRP60       0.0946
     35  CD2       69.7570  -16.8330  116.3570 C.ar   60  TRP60       0.0152
     36  NE1       67.9750  -16.3910  117.6420 N.ar   60  TRP60      -0.2442
     37  CE2       68.3900  -17.1120  116.5550 C.ar   60  TRP60       0.0810
     38  CE3       70.4260  -17.4490  115.2950 C.ar   60  TRP60       0.0012
     39  CZ2       67.6810  -17.9830  115.7300 C.ar   60  TRP60       0.0191
     40  CZ3       69.7200  -18.3150  114.4780 C.ar   60  TRP60       0.0001
     41  CH2       68.3610  -18.5740  114.7000 C.ar   60  TRP60       0.0015
     42  N         70.1880  -14.0220  114.9890 N.am   61  ASN61      -0.1974
     43  CA        69.7640  -14.2840  113.6300 C.3    61  ASN61       0.1688
     44  C         70.3570  -13.2730  112.6640 C.2    61  ASN61       0.2292
     45  O         70.8660  -13.6480  111.6150 O.2    61  ASN61      -0.2864
     46  CB        68.2450  -14.2900  113.5250 C.3    61  ASN61       0.1181
     47  CG        67.7720  -14.7790  112.1780 C.2    61  ASN61       0.2629
     48  OD1       66.9770  -14.1220  111.5130 O.2    61  ASN61      -0.2716
     49  ND2       68.2860  -15.9280  111.7510 N.am   61  ASN61      -0.0877
     50  N         74.2870  -13.6960  112.3100 N.3    64  LEU64      -0.1231
     51  CA        74.6820  -14.8060  111.4580 C.3    64  LEU64       0.1693
     52  C         74.3760  -14.5100  109.9950 C.2    64  LEU64       0.2591
     53  O         75.0760  -14.9760  109.0980 O.2    64  LEU64      -0.2718
     54  CB        73.9780  -16.0930  111.8900 C.3    64  LEU64       0.0284
     55  CG        74.3790  -16.6640  113.2520 C.3    64  LEU64       0.0019
     56  CD1       73.6970  -18.0050  113.5020 C.3    64  LEU64       0.0001
     57  CD2       75.8870  -16.7990  113.3550 C.3    64  LEU64       0.0001
     58  N         73.3270  -13.7350  109.7540 N.am   65  ILE65      -0.1980
     59  CA        72.9560  -13.3980  108.3860 C.3    65  ILE65       0.1595
     60  C         73.9880  -12.4430  107.7920 C.2    65  ILE65       0.2287
     61  O         74.3850  -12.5820  106.6360 O.2    65  ILE65      -0.2864
     62  CB        71.5470  -12.7910  108.3230 C.3    65  ILE65       0.0276
     63  CG1       70.5160  -13.8800  108.6220 C.3    65  ILE65       0.0022
     64  CG2       71.2710  -12.2170  106.9490 C.3    65  ILE65       0.0022
     65  CD1       69.1380  -13.3530  108.9410 C.3    65  ILE65       0.0001
     66  N         77.1470  -12.3090  108.6200 N.3    67  SER67      -0.1202
     67  CA        78.4060  -13.0240  108.4210 C.3    67  SER67       0.2020
     68  C         78.4730  -13.7650  107.0860 C.2    67  SER67       0.2618
     69  O         79.4650  -13.6490  106.3680 O.2    67  SER67      -0.2717
     70  CB        78.6460  -14.0160  109.5640 C.3    67  SER67       0.2103
     71  OG        78.7750  -13.3440  110.8050 O.3    67  SER67      -0.2182
     72  N         77.4380  -14.5320  106.7480 N.am   68  PHE68      -0.1975
     73  CA        77.5060  -15.3240  105.5260 C.3    68  PHE68       0.1639
     74  C         77.1940  -14.4780  104.2930 C.2    68  PHE68       0.2290
     75  O         77.4840  -14.8840  103.1690 O.2    68  PHE68      -0.2864
     76  CB        76.5920  -16.5710  105.6020 C.3    68  PHE68       0.0560
     77  CG        75.0990  -16.2950  105.5360 C.ar   68  PHE68      -0.0200
     78  CD1       74.4910  -15.8620  104.3620 C.ar   68  PHE68      -0.0042
     79  CD2       74.2900  -16.5780  106.6250 C.ar   68  PHE68      -0.0042
     80  CE1       73.1260  -15.6430  104.3020 C.ar   68  PHE68      -0.0003
     81  CE2       72.9220  -16.3700  106.5690 C.ar   68  PHE68      -0.0003
     82  CZ        72.3410  -15.9010  105.4040 C.ar   68  PHE68      -0.0000
     83  N         80.5340  -13.1180  103.5560 N.3    71  ARG71      -0.1245
     84  CA        81.3510  -14.2690  103.1940 C.3    71  ARG71       0.1563
     85  C         81.1520  -14.6450  101.7290 C.2    71  ARG71       0.2260
     86  O         82.0400  -15.2130  101.0900 O.2    71  ARG71      -0.2867
     87  CB        81.0030  -15.4560  104.0950 C.3    71  ARG71       0.0307
     88  CG        81.8440  -16.6920  103.8820 C.3    71  ARG71       0.0489
     89  CD        81.2090  -17.8960  104.5580 C.3    71  ARG71       0.2205
     90  NE        80.9510  -17.6650  105.9760 N.pl3  71  ARG71      -0.0865
     91  CZ        79.9300  -18.1880  106.6480 C.cat  71  ARG71       0.5346
     92  NH1       79.0580  -18.9720  106.0280 N.pl3  71  ARG71       0.1354
     93  NH2       79.7760  -17.9240  107.9400 N.pl3  71  ARG71       0.1354
     94  N         75.0900  -18.3340   98.0280 N.3    79  ILE79      -0.1245
     95  CA        75.7370  -18.0500   99.3030 C.3    79  ILE79       0.1561
     96  C         76.6520  -19.1850   99.7480 C.2    79  ILE79       0.2260
     97  O         76.4070  -20.3600   99.4580 O.2    79  ILE79      -0.2867
     98  CB        74.7060  -17.7830  100.4200 C.3    79  ILE79       0.0252
     99  CG1       73.8150  -19.0080  100.6280 C.3    79  ILE79       0.0019
    100  CG2       73.8670  -16.5560  100.0950 C.3    79  ILE79       0.0019
    101  CD1       72.8000  -18.8380  101.7330 C.3    79  ILE79       0.0001
    102  N         77.9510  -21.2800  102.7980 N.3    81  LEU81      -0.1231
    103  CA        77.6580  -21.6500  104.1770 C.3    81  LEU81       0.1693
    104  C         78.9480  -21.9470  104.9350 C.2    81  LEU81       0.2591
    105  O         80.0110  -22.1020  104.3320 O.2    81  LEU81      -0.2718
    106  CB        76.7210  -22.8580  104.2220 C.3    81  LEU81       0.0284
    107  CG        75.3650  -22.6910  103.5300 C.3    81  LEU81       0.0019
    108  CD1       74.5190  -23.9500  103.6810 C.3    81  LEU81       0.0001
    109  CD2       74.6260  -21.4740  104.0660 C.3    81  LEU81       0.0001
    110  N         78.8510  -22.0260  106.2580 N.am   82  ALA82      -0.1980
    111  CA        80.0190  -22.2740  107.0990 C.3    82  ALA82       0.1597
    112  C         80.4760  -23.7260  107.0160 C.2    82  ALA82       0.2287
    113  O         81.6420  -24.0310  107.2740 O.2    82  ALA82      -0.2864
    114  CB        79.7200  -21.9040  108.5290 C.3    82  ALA82       0.0319
    115  N         62.4740  -21.4120   98.9200 N.3    97  VAL97      -0.1245
    116  CA        62.8830  -20.2310   99.6740 C.3    97  VAL97       0.1561
    117  C         63.5410  -19.1890   98.7770 C.2    97  VAL97       0.2260
    118  O         64.3170  -18.3570   99.2450 O.2    97  VAL97      -0.2867
    119  CB        63.8590  -20.5900  100.8140 C.3    97  VAL97       0.0252
    120  CG1       63.1730  -21.4710  101.8490 C.3    97  VAL97       0.0019
    121  CG2       65.0990  -21.2750  100.2590 C.3    97  VAL97       0.0019
    122  N         63.1340  -15.1100   99.8380 N.3   100  ILE100     -0.1231
    123  CA        63.9820  -14.5640  100.8830 C.3   100  ILE100      0.1692
    124  C         65.4540  -14.6570  100.4760 C.2   100  ILE100      0.2592
    125  O         66.2690  -13.8220  100.8660 O.2   100  ILE100     -0.2718
    126  CB        63.7430  -15.2800  102.2330 C.3   100  ILE100      0.0266
    127  CG1       64.4600  -14.5370  103.3610 C.3   100  ILE100      0.0019
    128  CG2       64.1600  -16.7500  102.1620 C.3   100  ILE100      0.0020
    129  CD1       64.2170  -13.0440  103.3450 C.3   100  ILE100      0.0001
    130  N         65.7790  -15.6560   99.6620 N.am  101  PHE101     -0.1976
    131  CA        67.1370  -15.8470   99.1610 C.3   101  PHE101      0.1639
    132  C         67.5250  -14.7310   98.2000 C.2   101  PHE101      0.2290
    133  O         68.6660  -14.2720   98.1920 O.2   101  PHE101     -0.2864
    134  CB        67.2550  -17.2080   98.4700 C.3   101  PHE101      0.0560
    135  CG        68.6190  -17.5000   97.9050 C.ar  101  PHE101     -0.0200
    136  CD1       69.5830  -18.1260   98.6770 C.ar  101  PHE101     -0.0042
    137  CD2       68.9270  -17.1780   96.5930 C.ar  101  PHE101     -0.0042
    138  CE1       70.8320  -18.4110   98.1560 C.ar  101  PHE101     -0.0003
    139  CE2       70.1750  -17.4580   96.0700 C.ar  101  PHE101     -0.0003
    140  CZ        71.1270  -18.0750   96.8520 C.ar  101  PHE101     -0.0000
    141  N         68.3060  -11.4920  100.0550 N.3   104  VAL104     -0.1245
    142  CA        69.6540  -11.5160  100.5980 C.3   104  VAL104      0.1561
    143  C         70.6810  -11.1340   99.5330 C.2   104  VAL104      0.2260
    144  O         71.5820  -10.3330   99.7900 O.2   104  VAL104     -0.2867
    145  CB        69.9980  -12.8960  101.1840 C.3   104  VAL104      0.0252
    146  CG1       71.4670  -12.9620  101.5640 C.3   104  VAL104      0.0019
    147  CG2       69.1250  -13.1810  102.4000 C.3   104  VAL104      0.0019
    148  N         63.6520  -14.6060  107.6190 N.3   187  CYS187     -0.1235
    149  CA        64.4230  -15.8370  107.7390 C.3   187  CYS187      0.1677
    150  C         63.9780  -16.6010  108.9750 C.2   187  CYS187      0.2270
    151  O         63.7850  -17.8160  108.9290 O.2   187  CYS187     -0.2867
    152  CB        65.9210  -15.5470  107.8040 C.3   187  CYS187      0.0956
    153  SG        66.6610  -15.0980  106.2220 S.3   187  CYS187     -0.0801
    154  N         60.8690  -18.4550  108.4230 N.3   190  HIS190     -0.1226
    155  CA        61.1600  -19.6640  107.6640 C.3   190  HIS190      0.1752
    156  C         61.6900  -20.7570  108.5830 C.2   190  HIS190      0.2595
    157  O         61.3310  -21.9240  108.4410 O.2   190  HIS190     -0.2718
    158  CB        62.1610  -19.3780  106.5420 C.3   190  HIS190      0.0759
    159  CG        61.5260  -18.9090  105.2660 C.ar  190  HIS190      0.0818
    160  ND1       61.5350  -17.5890  104.8700 N.ar  190  HIS190     -0.2268
    161  CD2       60.8710  -19.5880  104.2950 C.ar  190  HIS190      0.1154
    162  CE1       60.9080  -17.4740  103.7110 C.ar  190  HIS190      0.1986
    163  NE2       60.4960  -18.6720  103.3420 N.ar  190  HIS190     -0.2212
    164  N         62.5320  -20.3690  109.5360 N.am  191  LEU191     -0.1980
    165  CA        63.0960  -21.3090  110.5000 C.3   191  LEU191      0.1596
    166  C         62.0300  -21.9490  111.3820 C.2   191  LEU191      0.2287
    167  O         62.1340  -23.1190  111.7520 O.2   191  LEU191     -0.2864
    168  CB        64.1270  -20.6090  111.3810 C.3   191  LEU191      0.0297
    169  CG        65.4840  -20.3450  110.7400 C.3   191  LEU191      0.0022
    170  CD1       66.3890  -19.6190  111.7180 C.3   191  LEU191      0.0001
    171  CD2       66.1080  -21.6520  110.2880 C.3   191  LEU191      0.0001
    172  N         59.9760  -24.6990  109.5700 N.3   194  PHE194     -0.1241
    173  CA        60.7950  -25.9120  109.5430 C.3   194  PHE194      0.1605
    174  C         60.6060  -26.7290  110.8240 C.2   194  PHE194      0.2264
    175  O         60.2820  -27.9170  110.7720 O.2   194  PHE194     -0.2867
    176  CB        62.2820  -25.5720  109.3660 C.3   194  PHE194      0.0534
    177  CG        62.5970  -24.7860  108.1160 C.ar  194  PHE194     -0.0203
    178  CD1       63.7390  -24.0000  108.0510 C.ar  194  PHE194     -0.0042
    179  CD2       61.7620  -24.8320  107.0110 C.ar  194  PHE194     -0.0042
    180  CE1       64.0410  -23.2710  106.9100 C.ar  194  PHE194     -0.0003
    181  CE2       62.0600  -24.1030  105.8610 C.ar  194  PHE194     -0.0003
    182  CZ        63.2000  -23.3240  105.8130 C.ar  194  PHE194     -0.0000
@<TRIPOS>BOND
     1   139   137   ar
     2   139   140   ar
     3   137   135   ar
     4   140   138   ar
     5   135   134    1
     6   135   136   ar
     7    94    95    1
     8   138   136   ar
     9   133   132    2
    10   132   131    1
    11   134   131    1
    12   117   118    2
    13   117   116    1
    14   115   116    1
    15   131   130    1
    16    95    96    1
    17    95    98    1
    18    97    96    2
    19   143   144    2
    20   143   142    1
    21   130   124   am
    22   116   119    1
    23   122   123    1
    24   141   142    1
    25   100    98    1
    26   121   119    1
    27    98    99    1
    28   124   125    2
    29   124   123    1
    30   142   145    1
    31    99   101    1
    32   119   120    1
    33   123   126    1
    34    86    85    2
    35   145   146    1
    36   145   147    1
    37    85    84    1
    38   128   126    1
    39   126   127    1
    40   102   103    1
    41    75    74    2
    42    84    83    1
    43    84    87    1
    44   163   162   ar
    45   163   161   ar
    46   129   127    1
    47   107   108    1
    48   107   109    1
    49   107   106    1
    50     8     6    1
    51   162   160   ar
    52    88    87    1
    53    88    89    1
    54   103   106    1
    55   103   104    1
    56    74    73    1
    57   161   159   ar
    58    80    78   ar
    59    80    82   ar
    60   105   104    2
    61     6     5    1
    62    78    77   ar
    63    89    90    1
    64   160   159   ar
    65   104   110   am
    66   159   158    1
    67    82    81   ar
    68    73    76    1
    69    73    72    1
    70    77    76    1
    71    77    79   ar
    72     5     2    1
    73     5     7    1
    74     1     2    1
    75   182   181   ar
    76   182   180   ar
    77   181   179   ar
    78    90    91    2
    79    92    91    1
    80   153   152    1
    81   110   111    1
    82     2     3    1
    83    69    68    2
    84   158   155    1
    85    81    79   ar
    86    61    60    2
    87    91    93    1
    88    72    68   am
    89   180   178   ar
    90    64    62    1
    91   179   177   ar
    92   112   111    1
    93   112   113    2
    94    68    67    1
    95   111   114    1
    96   148   149    1
    97   155   154    1
    98   155   156    1
    99   149   152    1
   100   149   150    1
   101    60    59    1
   102     3     4    2
   103   178   177   ar
   104    13    10    1
   105   177   176    1
   106    62    59    1
   107    62    63    1
   108    59    58    1
   109    67    66    1
   110    67    70    1
   111   157   156    2
   112   156   164   am
   113    63    65    1
   114   151   150    2
   115    53    52    2
   116     9    10    1
   117   176   173    1
   118    10    11    1
   119   164   165    1
   120   173   172    1
   121   173   174    1
   122    70    71    1
   123    58    52   am
   124    52    51    1
   125   171   169    1
   126    11    14   am
   127    11    12    2
   128   165   168    1
   129   165   166    1
   130    14    15    1
   131   169   168    1
   132   169   170    1
   133   175   174    2
   134    24    25    1
   135    24    23    1
   136   166   167    2
   137    27    25   am
   138    18    15    1
   139    25    26    2
   140    51    54    1
   141    51    50    1
   142    48    47    2
   143    45    44    2
   144    15    16    1
   145    49    47   am
   146    54    55    1
   147    47    46    1
   148    23    20    1
   149    44    43    1
   150    16    17    2
   151    55    57    1
   152    55    56    1
   153    46    43    1
   154    19    20    1
   155    43    42    1
   156    20    21    1
   157    40    41   ar
   158    40    38   ar
   159    31    30    2
   160    41    39   ar
   161    42    30   am
   162    21    22    2
   163    38    35   ar
   164    30    29    1
   165    39    37   ar
   166    35    37   ar
   167    35    33   ar
   168    37    36   ar
   169    29    28    1
   170    29    32    1
   171    33    32    1
   172    33    34   ar
   173    36    34   ar
