@<TRIPOS>MOLECULE
tmp/4ocaA00.pdb
 217 214 0 0 0
SMALL
GASTEIGER

@<TRIPOS>ATOM
      1  N        -14.3920    1.4370   20.2770 N.3     5  PRO5       -0.2102
      2  CA       -15.0530    0.1700   19.9450 C.3     5  PRO5        0.1504
      3  C        -14.5250   -0.9740   20.8000 C.2     5  PRO5        0.2576
      4  O        -13.4640   -0.8300   21.4080 O.2     5  PRO5       -0.2718
      5  CB       -14.7060   -0.0330   18.4700 C.3     5  PRO5        0.0282
      6  CG       -13.4250    0.6990   18.2860 C.3     5  PRO5        0.0208
      7  CD       -13.5020    1.8910   19.1930 C.3     5  PRO5        0.0893
      8  N        -15.2440   -2.0910   20.8510 N.am    6  PHE6       -0.1963
      9  CA       -14.8240   -3.1960   21.6990 C.3     6  PHE6        0.1771
     10  C        -13.7280   -4.0140   21.0170 C.2     6  PHE6        0.2620
     11  O        -13.1470   -4.9120   21.6260 O.2     6  PHE6       -0.2715
     12  CB       -16.0190   -4.0840   22.0770 C.3     6  PHE6        0.0574
     13  CG       -16.3390   -5.1550   21.0700 C.ar    6  PHE6       -0.0200
     14  CD1      -15.7610   -6.4120   21.1670 C.ar    6  PHE6       -0.0042
     15  CD2      -17.2390   -4.9160   20.0460 C.ar    6  PHE6       -0.0042
     16  CE1      -16.0590   -7.4020   20.2490 C.ar    6  PHE6       -0.0003
     17  CE2      -17.5440   -5.9030   19.1280 C.ar    6  PHE6       -0.0003
     18  CZ       -16.9520   -7.1470   19.2290 C.ar    6  PHE6       -0.0000
     19  N        -13.4370   -3.6950   19.7590 N.am    7  SER7       -0.1936
     20  CA       -12.3550   -4.3610   19.0420 C.3     7  SER7        0.2055
     21  C        -11.8990   -3.5690   17.8210 C.2     7  SER7        0.2643
     22  O        -12.6700   -2.8090   17.2340 O.2     7  SER7       -0.2714
     23  CB       -12.7840   -5.7620   18.6080 C.3     7  SER7        0.2130
     24  OG       -11.7080   -6.4450   17.9880 O.3     7  SER7       -0.2179
     25  N        -10.6350   -3.7600   17.4540 N.am    8  ARG8       -0.1963
     26  CA       -10.0550   -3.1620   16.2570 C.3     8  ARG8        0.1714
     27  C         -8.9900   -4.0970   15.6980 C.2     8  ARG8        0.2458
     28  O         -8.2490   -4.7130   16.4620 O.2     8  ARG8       -0.2730
     29  CB        -9.4310   -1.7970   16.5600 C.3     8  ARG8        0.0347
     30  CG       -10.3980   -0.6320   16.5970 C.3     8  ARG8        0.0492
     31  CD        -9.7030    0.6220   17.1100 C.3     8  ARG8        0.2205
     32  NE       -10.5660    1.7980   17.0390 N.pl3   8  ARG8       -0.0865
     33  CZ       -10.4370    2.8790   17.8050 C.cat   8  ARG8        0.5346
     34  NH1       -9.4810    2.9480   18.7240 N.pl3   8  ARG8        0.1354
     35  NH2      -11.2760    3.8950   17.6570 N.pl3   8  ARG8        0.1354
     36  N         -8.9090   -4.2160   14.3640 N.am    9  PRO9       -0.2727
     37  CA        -7.8240   -5.0250   13.7990 C.3     9  PRO9        0.1402
     38  C         -6.4700   -4.3260   13.9240 C.2     9  PRO9        0.2269
     39  O         -6.4020   -3.0990   13.8390 O.2     9  PRO9       -0.2865
     40  CB        -8.2360   -5.1940   12.3330 C.3     9  PRO9        0.0296
     41  CG        -9.1210   -4.0380   12.0450 C.3     9  PRO9        0.0237
     42  CD        -9.8290   -3.7160   13.3280 C.3     9  PRO9        0.0939
     43  N        -13.7730  -18.1910    4.6040 N.3    55  SER55      -0.1202
     44  CA       -14.2510  -17.9080    5.9560 C.3    55  SER55       0.2020
     45  C        -14.3120  -19.1950    6.7730 C.2    55  SER55       0.2619
     46  O        -14.3310  -20.2900    6.2120 O.2    55  SER55      -0.2717
     47  CB       -15.6310  -17.2450    5.9190 C.3    55  SER55       0.2103
     48  OG       -16.6000  -18.1100    5.3560 O.3    55  SER55      -0.2182
     49  N        -14.3420  -19.0690    8.0960 N.am   56  ALA56      -0.1965
     50  CA       -14.4490  -20.2440    8.9570 C.3    56  ALA56       0.1728
     51  C        -15.8310  -20.8740    8.8150 C.2    56  ALA56       0.2616
     52  O        -15.9930  -22.0780    9.0010 O.2    56  ALA56      -0.2715
     53  CB       -14.1760  -19.8780   10.4010 C.3    56  ALA56       0.0334
     54  N        -16.8250  -20.0520    8.4870 N.am   57  THR57      -0.1951
     55  CA       -18.1610  -20.5510    8.1800 C.3    57  THR57       0.1897
     56  C        -18.0830  -21.4720    6.9720 C.2    57  THR57       0.2313
     57  O        -18.6730  -22.5520    6.9560 O.2    57  THR57      -0.2863
     58  CB       -19.1530  -19.4080    7.8870 C.3    57  THR57       0.1794
     59  OG1      -19.2880  -18.5760    9.0460 O.3    57  THR57      -0.2208
     60  CG2      -20.5230  -19.9560    7.4940 C.3    57  THR57       0.0378
     61  N        -16.5150  -24.7120    7.9290 N.3    60  MET60      -0.1245
     62  CA       -17.4590  -25.5860    8.6130 C.3    60  MET60       0.1570
     63  C        -18.3620  -26.2860    7.6060 C.2    60  MET60       0.2261
     64  O        -18.6850  -27.4640    7.7600 O.2    60  MET60      -0.2867
     65  CB       -18.3020  -24.7890    9.6090 C.3    60  MET60       0.0387
     66  CG       -19.2210  -25.6450   10.4650 C.3    60  MET60       0.0595
     67  SD       -18.3140  -26.8070   11.5030 S.3    60  MET60      -0.1393
     68  CE       -17.5240  -25.6920   12.6600 C.3    60  MET60       0.0692
     69  N        -23.1520  -20.3110   20.7050 N.3    81  THR81      -0.1203
     70  CA       -22.1180  -20.1700   19.6900 C.3    81  THR81       0.1994
     71  C        -22.6070  -19.2370   18.5920 C.2    81  THR81       0.2617
     72  O        -23.6800  -18.6460   18.7040 O.2    81  THR81      -0.2717
     73  CB       -21.7210  -21.5360   19.0810 C.3    81  THR81       0.1784
     74  OG1      -20.6570  -21.3540   18.1400 O.3    81  THR81      -0.2211
     75  CG2      -22.9070  -22.1940   18.3860 C.3    81  THR81       0.0376
     76  N        -21.8140  -19.1040   17.5360 N.am   82  TRP82      -0.1975
     77  CA       -22.1900  -18.2820   16.3920 C.3    82  TRP82       0.1640
     78  C        -23.1740  -19.0600   15.5220 C.2    82  TRP82       0.2290
     79  O        -23.0630  -20.2780   15.3840 O.2    82  TRP82      -0.2864
     80  CB       -20.9420  -17.8710   15.6030 C.3    82  TRP82       0.0576
     81  CG       -21.1910  -16.9470   14.4440 C.ar   82  TRP82       0.0006
     82  CD1      -20.7360  -17.1010   13.1670 C.ar   82  TRP82       0.0946
     83  CD2      -21.9420  -15.7250   14.4550 C.ar   82  TRP82       0.0152
     84  NE1      -21.1560  -16.0550   12.3830 N.ar   82  TRP82      -0.2442
     85  CE2      -21.8980  -15.1960   13.1500 C.ar   82  TRP82       0.0810
     86  CE3      -22.6480  -15.0290   15.4410 C.ar   82  TRP82       0.0012
     87  CZ2      -22.5330  -14.0060   12.8050 C.ar   82  TRP82       0.0191
     88  CZ3      -23.2760  -13.8490   15.0960 C.ar   82  TRP82       0.0001
     89  CH2      -23.2150  -13.3480   13.7900 C.ar   82  TRP82       0.0015
     90  N        -23.4870  -19.5200   12.5670 N.3    84  SER84      -0.1202
     91  CA       -22.9320  -20.1410   11.3680 C.3    84  SER84       0.2020
     92  C        -22.9760  -21.6650   11.4370 C.2    84  SER84       0.2619
     93  O        -23.3900  -22.3210   10.4830 O.2    84  SER84      -0.2717
     94  CB       -21.4910  -19.6790   11.1450 C.3    84  SER84       0.2103
     95  OG       -20.6620  -20.0400   12.2360 O.3    84  SER84      -0.2182
     96  N        -22.5540  -22.2240   12.5650 N.am   85  THR85      -0.1952
     97  CA       -22.4920  -23.6730   12.7170 C.3    85  THR85       0.1897
     98  C        -23.8810  -24.2890   12.5850 C.2    85  THR85       0.2313
     99  O        -24.0650  -25.2720   11.8700 O.2    85  THR85      -0.2863
    100  CB       -21.8780  -24.0700   14.0730 C.3    85  THR85       0.1794
    101  OG1      -20.5480  -23.5460   14.1630 O.3    85  THR85      -0.2208
    102  CG2      -21.8300  -25.5860   14.2310 C.3    85  THR85       0.0378
    103  N        -16.7330  -25.8660   20.9380 N.3   127  VAL127     -0.1245
    104  CA       -16.2440  -24.5150   20.6920 C.3   127  VAL127      0.1561
    105  C        -15.2400  -24.1040   21.7610 C.2   127  VAL127      0.2260
    106  O        -15.5620  -24.0630   22.9480 O.2   127  VAL127     -0.2867
    107  CB       -17.3970  -23.4900   20.6630 C.3   127  VAL127      0.0252
    108  CG1      -16.8770  -22.1020   20.2970 C.3   127  VAL127      0.0019
    109  CG2      -18.4750  -23.9270   19.6810 C.3   127  VAL127      0.0019
    110  N        -14.3990  -26.1380   16.6340 N.3   153  ASP153     -0.1239
    111  CA       -14.6200  -24.7420   16.2850 C.3   153  ASP153      0.1674
    112  C        -13.5780  -23.8780   16.9870 C.2   153  ASP153      0.2266
    113  O        -13.7430  -23.5190   18.1550 O.2   153  ASP153     -0.2867
    114  CB       -16.0370  -24.3110   16.6770 C.3   153  ASP153      0.1410
    115  CG       -16.3970  -22.9270   16.1660 C.2   153  ASP153      0.3668
    116  OD1      -15.4850  -22.1510   15.8060 O.co2 153  ASP153     -0.2456
    117  OD2      -17.6040  -22.6130   16.1290 O.co2 153  ASP153     -0.2456
    118  N        -12.5830  -20.8060   16.0520 N.3   155  ALA155     -0.1231
    119  CA       -12.7160  -19.4560   15.5160 C.3   155  ALA155      0.1694
    120  C        -12.1600  -18.4150   16.4840 C.2   155  ALA155      0.2592
    121  O        -11.7770  -17.3190   16.0730 O.2   155  ALA155     -0.2718
    122  CB       -14.1750  -19.1560   15.2000 C.3   155  ALA155      0.0304
    123  N        -12.1260  -18.7660   17.7660 N.am  156  HIS156     -0.1976
    124  CA       -11.6190  -17.8800   18.8110 C.3   156  HIS156      0.1656
    125  C        -10.2390  -18.3040   19.3070 C.2   156  HIS156      0.2291
    126  O         -9.6480  -17.6260   20.1490 O.2   156  HIS156     -0.2864
    127  CB       -12.5850  -17.8550   20.0010 C.3   156  HIS156      0.0771
    128  CG       -13.9770  -17.4290   19.6490 C.ar  156  HIS156      0.0820
    129  ND1      -15.0670  -17.7320   20.4360 N.ar  156  HIS156     -0.2267
    130  CD2      -14.4560  -16.7170   18.6020 C.ar  156  HIS156      0.1154
    131  CE1      -16.1580  -17.2290   19.8870 C.ar  156  HIS156      0.1986
    132  NE2      -15.8140  -16.6080   18.7730 N.ar  156  HIS156     -0.2212
    133  N        -10.5180  -18.8630   12.2840 N.3   176  SER176     -0.1217
    134  CA       -11.1630  -17.7400   11.6080 C.3   176  SER176      0.1889
    135  C        -10.2320  -16.5420   11.4800 C.2   176  SER176      0.2288
    136  O         -9.4900  -16.2190   12.4080 O.2   176  SER176     -0.2866
    137  CB       -12.4250  -17.3200   12.3580 C.3   176  SER176      0.2089
    138  OG       -13.0130  -16.1870   11.7430 O.3   176  SER176     -0.2183
    139  N        -11.5160  -13.5350   10.6720 N.3   178  HIS178     -0.1226
    140  CA       -12.4790  -12.4430   10.6480 C.3   178  HIS178      0.1752
    141  C        -11.8500  -11.1700   11.2240 C.2   178  HIS178      0.2596
    142  O        -10.8450  -11.2340   11.9310 O.2   178  HIS178     -0.2718
    143  CB       -13.7370  -12.8360   11.4270 C.3   178  HIS178      0.0759
    144  CG       -14.7780  -11.7650   11.4740 C.ar  178  HIS178      0.0818
    145  ND1      -15.7150  -11.5860   10.4790 N.ar  178  HIS178     -0.2268
    146  CD2      -15.0250  -10.8060   12.3980 C.ar  178  HIS178      0.1154
    147  CE1      -16.4960  -10.5680   10.7900 C.ar  178  HIS178      0.1986
    148  NE2      -16.0990  -10.0760   11.9490 N.ar  178  HIS178     -0.2212
    149  N        -12.4480  -10.0250   10.9040 N.am  179  ALA179     -0.1966
    150  CA       -11.9290   -8.7140   11.2920 C.3   179  ALA179      0.1728
    151  C        -11.5160   -8.6120   12.7640 C.2   179  ALA179      0.2616
    152  O        -10.4870   -8.0120   13.0710 O.2   179  ALA179     -0.2715
    153  CB       -12.9640   -7.6440   10.9770 C.3   179  ALA179      0.0334
    154  N        -12.3070   -9.1900   13.6660 N.am  180  ILE180     -0.1977
    155  CA       -12.0450   -9.0610   15.1010 C.3   180  ILE180      0.1596
    156  C        -11.2900  -10.2570   15.6820 C.2   180  ILE180      0.2287
    157  O        -11.0460  -10.3100   16.8860 O.2   180  ILE180     -0.2864
    158  CB       -13.3600   -8.8660   15.9100 C.3   180  ILE180      0.0276
    159  CG1      -14.2290  -10.1300   15.9080 C.3   180  ILE180      0.0022
    160  CG2      -14.1500   -7.6860   15.3610 C.3   180  ILE180      0.0022
    161  CD1      -15.2960  -10.1300   16.9790 C.3   180  ILE180      0.0001
    162  N        -11.8610  -11.1210    5.9170 N.3   187  GLU187     -0.1231
    163  CA       -12.5990  -12.3870    5.9330 C.3   187  GLU187      0.1699
    164  C        -11.6970  -13.5100    5.4760 C.2   187  GLU187      0.2592
    165  O        -11.0130  -13.3980    4.4600 O.2   187  GLU187     -0.2718
    166  CB       -13.8360  -12.3380    5.0360 C.3   187  GLU187      0.0402
    167  CG       -14.8500  -11.3010    5.4380 C.3   187  GLU187      0.1161
    168  CD       -15.5570  -11.6100    6.7480 C.2   187  GLU187      0.3649
    169  OE1      -16.3720  -10.7740    7.1930 O.co2 187  GLU187     -0.2457
    170  OE2      -15.3110  -12.6850    7.3280 O.co2 187  GLU187     -0.2457
    171  N        -11.7120  -14.6010    6.2250 N.am  188  GLY188     -0.1957
    172  CA       -10.9230  -15.7600    5.8790 C.3   188  GLY188      0.1869
    173  C        -11.0270  -16.8230    6.9460 C.2   188  GLY188      0.2309
    174  O        -11.5520  -16.5890    8.0340 O.2   188  GLY188     -0.2863
    175  N         -9.4250  -13.9960   22.9020 N.3   276  HIS276     -0.1241
    176  CA       -10.1270  -13.3680   21.7940 C.3   276  HIS276      0.1621
    177  C        -11.1770  -12.4000   22.3290 C.2   276  HIS276      0.2264
    178  O        -11.4290  -11.3480   21.7380 O.2   276  HIS276     -0.2867
    179  CB       -10.7750  -14.4310   20.9050 C.3   276  HIS276      0.0745
    180  CG       -11.6020  -13.8680   19.7940 C.ar  276  HIS276      0.0817
    181  ND1      -12.9530  -14.1150   19.6730 N.ar  276  HIS276     -0.2268
    182  CD2      -11.2700  -13.0710   18.7510 C.ar  276  HIS276      0.1154
    183  CE1      -13.4180  -13.4940   18.6040 C.ar  276  HIS276      0.1986
    184  NE2      -12.4170  -12.8540   18.0260 N.ar  276  HIS276     -0.2212
    185  N        -19.6680   -5.9130   22.9030 N.3   306  GLY306     -0.1210
    186  CA       -20.1260   -7.0050   22.0650 C.3   306  GLY306      0.1956
    187  C        -21.0870   -7.9260   22.7880 C.2   306  GLY306      0.2612
    188  O        -21.2410   -7.8530   24.0080 O.2   306  GLY306     -0.2717
    189  N        -21.7390   -8.7900   22.0180 N.am  307  LEU307     -0.1965
    190  CA       -22.6460   -9.7950   22.5550 C.3   307  LEU307      0.1728
    191  C        -22.3390  -11.1260   21.8840 C.2   307  LEU307      0.2616
    192  O        -22.7760  -11.3780   20.7580 O.2   307  LEU307     -0.2715
    193  CB       -24.1030   -9.3860   22.3260 C.3   307  LEU307      0.0311
    194  CG       -25.1960  -10.3790   22.7300 C.3   307  LEU307      0.0022
    195  CD1      -25.1920  -10.6310   24.2290 C.3   307  LEU307      0.0001
    196  CD2      -26.5520   -9.8640   22.2760 C.3   307  LEU307      0.0001
    197  N        -21.5730  -11.9640   22.5790 N.am  308  HIS308     -0.1959
    198  CA       -21.0880  -13.2210   22.0210 C.3   308  HIS308      0.1787
    199  C        -21.4410  -14.4110   22.9140 C.2   308  HIS308      0.2620
    200  O        -20.6420  -14.7840   23.7710 O.2   308  HIS308     -0.2715
    201  CB       -19.5710  -13.1620   21.8220 C.3   308  HIS308      0.0785
    202  CG       -19.1210  -12.0320   20.9500 C.ar  308  HIS308      0.0821
    203  ND1      -18.7020  -10.8210   21.4580 N.ar  308  HIS308     -0.2267
    204  CD2      -19.0330  -11.9260   19.6030 C.ar  308  HIS308      0.1154
    205  CE1      -18.3710  -10.0190   20.4620 C.ar  308  HIS308      0.1986
    206  NE2      -18.5630  -10.6650   19.3260 N.ar  308  HIS308     -0.2212
    207  N        -22.6180  -15.0140   22.7380 N.am  309  PHE309     -0.1974
    208  CA       -23.6460  -14.5860   21.7880 C.3   309  PHE309      0.1639
    209  C        -25.0010  -14.7610   22.4500 C.2   309  PHE309      0.2290
    210  O        -25.0920  -15.3470   23.5290 O.2   309  PHE309     -0.2864
    211  CB       -23.5970  -15.4100   20.4940 C.3   309  PHE309      0.0560
    212  CG       -22.2230  -15.5410   19.8990 C.ar  309  PHE309     -0.0200
    213  CD1      -21.3420  -16.5060   20.3590 C.ar  309  PHE309     -0.0042
    214  CD2      -21.8170  -14.7040   18.8730 C.ar  309  PHE309     -0.0042
    215  CE1      -20.0800  -16.6260   19.8130 C.ar  309  PHE309     -0.0003
    216  CE2      -20.5560  -14.8200   18.3250 C.ar  309  PHE309     -0.0003
    217  CZ       -19.6880  -15.7830   18.7940 C.ar  309  PHE309     -0.0000
@<TRIPOS>BOND
     1   165   164    2
     2    43    44    1
     3   166   167    1
     4   166   163    1
     5    48    47    1
     6   167   168    1
     7   164   163    1
     8   164   171   am
     9   172   171    1
    10   172   173    1
    11   162   163    1
    12    47    44    1
    13    44    45    1
    14    46    45    2
    15   168   169   ar
    16   168   170   ar
    17    45    49   am
    18   173   174    2
    19    57    56    2
    20    56    55    1
    21    60    58    1
    22    63    64    2
    23    63    62    1
    24    58    55    1
    25    58    59    1
    26    61    62    1
    27    49    50    1
    28    55    54    1
    29    54    51   am
    30    62    65    1
    31    51    50    1
    32    51    52    2
    33    50    53    1
    34    65    66    1
    35    66    67    1
    36   145   147   ar
    37   145   144   ar
    38    93    92    2
    39   140   139    1
    40   140   141    1
    41   140   143    1
    42   147   148   ar
    43   149   141   am
    44   149   150    1
    45   153   150    1
    46    94    91    1
    47    94    95    1
    48   141   142    2
    49   150   151    1
    50    91    92    1
    51    91    90    1
    52   143   144    1
    53    92    96   am
    54   144   146   ar
    55   135   134    1
    56   135   136    2
    57    67    68    1
    58   134   133    1
    59   134   137    1
    60   138   137    1
    61    99    98    2
    62   148   146   ar
    63    41    40    1
    64    41    42    1
    65    40    37    1
    66    84    85   ar
    67    84    82   ar
    68    96    97    1
    69    98    97    1
    70    97   100    1
    71   151   152    2
    72   151   154   am
    73    87    85   ar
    74    87    89   ar
    75    85    83   ar
    76    82    81   ar
    77    42    36    1
    78   154   155    1
    79    89    88   ar
    80    37    38    1
    81    37    36    1
    82    39    38    2
    83   100   101    1
    84   100   102    1
    85    36    27   am
    86    81    83   ar
    87    81    80    1
    88    83    86   ar
    89    88    86   ar
    90   155   156    1
    91   155   158    1
    92   122   119    1
    93   160   158    1
    94    79    78    2
    95   119   118    1
    96   119   120    1
    97    78    77    1
    98    80    77    1
    99   156   157    2
   100    27    26    1
   101    27    28    2
   102   116   115   ar
   103   159   158    1
   104   159   161    1
   105   121   120    2
   106   117   115   ar
   107   115   114    1
   108    26    29    1
   109    26    25    1
   110   111   110    1
   111   111   114    1
   112   111   112    1
   113    77    76    1
   114   120   123   am
   115    29    30    1
   116    30    31    1
   117   112   113    2
   118    32    31    1
   119    32    33    2
   120    22    21    2
   121    25    21   am
   122    76    71   am
   123    35    33    1
   124   123   124    1
   125    33    34    1
   126    21    20    1
   127    24    23    1
   128   184   183   ar
   129   184   182   ar
   130    74    73    1
   131     6     5    1
   132     6     7    1
   133   216   217   ar
   134   216   214   ar
   135    75    73    1
   136     5     2    1
   137    71    72    2
   138    71    70    1
   139   130   132   ar
   140   130   128   ar
   141   183   181   ar
   142    23    20    1
   143   182   180   ar
   144   132   131   ar
   145   217   215   ar
   146   124   125    1
   147   124   127    1
   148   214   212   ar
   149    20    19    1
   150    73    70    1
   151    17    18   ar
   152    17    15   ar
   153     7     1    1
   154    18    16   ar
   155   125   126    2
   156   206   204   ar
   157   206   205   ar
   158   204   202   ar
   159   128   127    1
   160   128   129   ar
   161   181   180   ar
   162   109   107    1
   163    70    69    1
   164    19    10   am
   165   180   179    1
   166   215   213   ar
   167   131   129   ar
   168   212   213   ar
   169   212   211    1
   170     2     1    1
   171     2     3    1
   172    15    13   ar
   173    16    14   ar
   174   108   107    1
   175   205   203   ar
   176   211   208    1
   177   107   104    1
   178   104   103    1
   179   104   105    1
   180   192   191    2
   181     3     8   am
   182     3     4    2
   183     8     9    1
   184   179   176    1
   185   202   203   ar
   186   202   201    1
   187    10    11    2
   188    10     9    1
   189    13    14   ar
   190    13    12    1
   191     9    12    1
   192   178   177    2
   193   105   106    2
   194   208   209    1
   195   208   207    1
   196   176   177    1
   197   176   175    1
   198   201   198    1
   199   191   190    1
   200   191   197   am
   201   189   190    1
   202   189   187   am
   203   198   197    1
   204   198   199    1
   205   186   187    1
   206   186   185    1
   207   196   194    1
   208   193   190    1
   209   193   194    1
   210   209   210    2
   211   194   195    1
   212   207   199   am
   213   187   188    2
   214   199   200    2
