@<TRIPOS>MOLECULE
tmp/4occA00.pdb
 145 141 0 0 0
SMALL
GASTEIGER

@<TRIPOS>ATOM
      1  N        -25.5640    8.0700  -17.7120 N.3     7  GLN7       -0.1245
      2  CA       -24.9800    7.7450  -19.0010 C.3     7  GLN7        0.1566
      3  C        -25.7460    8.2680  -20.1830 C.2     7  GLN7        0.2260
      4  O        -25.2480    8.2220  -21.3000 O.2     7  GLN7       -0.2867
      5  CB       -24.8020    6.2460  -19.1530 C.3     7  GLN7        0.0367
      6  CG       -23.7090    5.7170  -18.3050 C.3     7  GLN7        0.0905
      7  CD       -23.0540    4.5210  -18.9030 C.2     7  GLN7        0.2608
      8  OE1      -22.3130    4.6380  -19.8780 O.2     7  GLN7       -0.2717
      9  NE2      -23.2960    3.3540  -18.3120 N.am    7  GLN7       -0.0878
     10  N        -17.7020    7.2950  -22.3540 N.3    37  LEU37      -0.1231
     11  CA       -17.1360    6.2060  -21.5730 C.3    37  LEU37       0.1693
     12  C        -16.6390    5.0560  -22.4480 C.2    37  LEU37       0.2592
     13  O        -15.5770    4.4830  -22.1950 O.2    37  LEU37      -0.2718
     14  CB       -18.1630    5.6870  -20.5590 C.3    37  LEU37       0.0284
     15  CG       -18.4110    6.6310  -19.3790 C.3    37  LEU37       0.0019
     16  CD1      -19.6670    6.2040  -18.6280 C.3    37  LEU37       0.0001
     17  CD2      -17.2010    6.6200  -18.4590 C.3    37  LEU37       0.0001
     18  N        -17.4050    4.7160  -23.4810 N.am   38  PHE38      -0.1976
     19  CA       -16.9840    3.6390  -24.3540 C.3    38  PHE38       0.1639
     20  C        -15.7310    4.0100  -25.1430 C.2    38  PHE38       0.2290
     21  O        -14.7630    3.2570  -25.1790 O.2    38  PHE38      -0.2864
     22  CB       -18.0860    3.2620  -25.3460 C.3    38  PHE38       0.0560
     23  CG       -17.6170    2.3260  -26.4230 C.ar   38  PHE38      -0.0200
     24  CD1      -17.3950    0.9790  -26.1480 C.ar   38  PHE38      -0.0042
     25  CD2      -17.3390    2.8050  -27.7040 C.ar   38  PHE38      -0.0042
     26  CE1      -16.9020    0.1240  -27.1290 C.ar   38  PHE38      -0.0003
     27  CE2      -16.8430    1.9560  -28.6900 C.ar   38  PHE38      -0.0003
     28  CZ       -16.6250    0.6150  -28.4060 C.ar   38  PHE38      -0.0000
     29  N        -13.5030    6.2370  -24.5090 N.3    40  LEU40      -0.1231
     30  CA       -12.3550    6.3630  -23.6260 C.3    40  LEU40       0.1693
     31  C        -11.8810    4.9660  -23.2590 C.2    40  LEU40       0.2593
     32  O        -10.6800    4.6880  -23.2470 O.2    40  LEU40      -0.2718
     33  CB       -12.7250    7.1080  -22.3500 C.3    40  LEU40       0.0284
     34  CG       -12.2510    8.5530  -22.2180 C.3    40  LEU40       0.0019
     35  CD1      -12.8830    9.1540  -20.9710 C.3    40  LEU40       0.0001
     36  CD2      -10.7350    8.6060  -22.1260 C.3    40  LEU40       0.0001
     37  N        -12.8270    4.0920  -22.9470 N.am   41  GLY41      -0.1942
     38  CA       -12.4690    2.7350  -22.5890 C.3    41  GLY41       0.2014
     39  C        -11.8440    1.9900  -23.7520 C.2    41  GLY41       0.2638
     40  O        -10.9120    1.1970  -23.5660 O.2    41  GLY41      -0.2714
     41  N        -12.3460    2.2350  -24.9580 N.am   42  GLN42      -0.1977
     42  CA       -11.8130    1.5580  -26.1360 C.3    42  GLN42       0.1601
     43  C        -10.4020    2.0450  -26.4600 C.2    42  GLN42       0.2287
     44  O         -9.5600    1.2810  -26.9270 O.2    42  GLN42      -0.2864
     45  CB       -12.7320    1.7840  -27.3380 C.3    42  GLN42       0.0394
     46  CG       -12.3550    0.9490  -28.5620 C.3    42  GLN42       0.0908
     47  CD       -12.3390   -0.5480  -28.2710 C.2    42  GLN42       0.2608
     48  OE1      -11.2730   -1.1650  -28.1380 O.2    42  GLN42      -0.2717
     49  NE2      -13.5210   -1.1370  -28.1650 N.am   42  GLN42      -0.0878
     50  N         -8.2170    3.0660  -24.2830 N.3    44  ILE44      -0.1231
     51  CA        -7.3550    2.4150  -23.2960 C.3    44  ILE44       0.1692
     52  C         -7.0280    0.9610  -23.6540 C.2    44  ILE44       0.2591
     53  O         -5.8950    0.4980  -23.4580 O.2    44  ILE44      -0.2718
     54  CB        -8.0160    2.4440  -21.8960 C.3    44  ILE44       0.0266
     55  CG1       -8.1140    3.8970  -21.4100 C.3    44  ILE44       0.0019
     56  CG2       -7.2130    1.5880  -20.9210 C.3    44  ILE44       0.0020
     57  CD1       -8.9220    4.0830  -20.1400 C.3    44  ILE44       0.0001
     58  N         -8.0190    0.2380  -24.1700 N.am   45  MET45      -0.1979
     59  CA        -7.8080   -1.1580  -24.5420 C.3    45  MET45       0.1605
     60  C         -7.0080   -1.3450  -25.8200 C.2    45  MET45       0.2287
     61  O         -6.1540   -2.2320  -25.8930 O.2    45  MET45      -0.2864
     62  CB        -9.1460   -1.8930  -24.6940 C.3    45  MET45       0.0413
     63  CG        -9.9930   -1.9220  -23.4380 C.3    45  MET45       0.0598
     64  SD        -9.1490   -2.6050  -22.0000 S.3    45  MET45      -0.1393
     65  CE        -8.8220   -4.2870  -22.5530 C.3    45  MET45       0.0692
     66  N         -4.1410   -0.5820  -20.3770 N.3    50  TYR50      -0.1241
     67  CA        -4.7350   -1.4200  -19.3510 C.3    50  TYR50       0.1605
     68  C         -4.5250   -2.8740  -19.7430 C.2    50  TYR50       0.2264
     69  O         -5.0900   -3.3490  -20.7320 O.2    50  TYR50      -0.2867
     70  CB        -6.2460   -1.1760  -19.2250 C.3    50  TYR50       0.0534
     71  CG        -6.9100   -2.0960  -18.2210 C.ar   50  TYR50      -0.0201
     72  CD1       -8.1160   -2.7420  -18.5170 C.ar   50  TYR50      -0.0009
     73  CD2       -6.3230   -2.3380  -16.9790 C.ar   50  TYR50      -0.0009
     74  CE1       -8.7180   -3.6100  -17.5920 C.ar   50  TYR50       0.0417
     75  CE2       -6.9100   -3.2030  -16.0520 C.ar   50  TYR50       0.0417
     76  CZ        -8.1130   -3.8380  -16.3660 C.ar   50  TYR50       0.1957
     77  OH        -8.7030   -4.6880  -15.4500 O.3    50  TYR50      -0.2866
     78  N         -6.0970   13.3740  -17.5830 N.3    69  PHE69      -0.1241
     79  CA        -6.5260   13.0580  -16.2200 C.3    69  PHE69       0.1605
     80  C         -5.6390   13.6200  -15.1070 C.2    69  PHE69       0.2264
     81  O         -6.0380   13.6400  -13.9430 O.2    69  PHE69      -0.2867
     82  CB        -6.6500   11.5390  -16.0710 C.3    69  PHE69       0.0534
     83  CG        -7.9090   10.9670  -16.6770 C.ar   69  PHE69      -0.0203
     84  CD1       -8.7430   11.7520  -17.4670 C.ar   69  PHE69      -0.0042
     85  CD2       -8.2550    9.6460  -16.4470 C.ar   69  PHE69      -0.0042
     86  CE1       -9.9080   11.2260  -18.0210 C.ar   69  PHE69      -0.0003
     87  CE2       -9.4220    9.1050  -16.9970 C.ar   69  PHE69      -0.0003
     88  CZ       -10.2440    9.9020  -17.7830 C.ar   69  PHE69      -0.0000
     89  N         -4.4680    4.9360  -12.6270 N.3    74  PHE74      -0.1241
     90  CA        -5.7280    4.9080  -11.8880 C.3    74  PHE74       0.1605
     91  C         -6.3870    3.5460  -12.0320 C.2    74  PHE74       0.2264
     92  O         -6.0930    2.8110  -12.9730 O.2    74  PHE74      -0.2867
     93  CB        -6.6730    6.0220  -12.3650 C.3    74  PHE74       0.0534
     94  CG        -7.1250    5.8870  -13.7940 C.ar   74  PHE74      -0.0203
     95  CD1       -8.2760    5.1730  -14.1190 C.ar   74  PHE74      -0.0042
     96  CD2       -6.4180    6.5170  -14.8180 C.ar   74  PHE74      -0.0042
     97  CE1       -8.7170    5.0940  -15.4410 C.ar   74  PHE74      -0.0003
     98  CE2       -6.8530    6.4400  -16.1370 C.ar   74  PHE74      -0.0003
     99  CZ        -8.0040    5.7280  -16.4470 C.ar   74  PHE74      -0.0000
    100  N         -9.4610    0.9800  -12.7600 N.3    76  VAL76      -0.1231
    101  CA       -10.6440    0.9350  -13.6020 C.3    76  VAL76       0.1692
    102  C        -11.8960    0.6800  -12.7810 C.2    76  VAL76       0.2591
    103  O        -13.0130    0.8430  -13.2880 O.2    76  VAL76      -0.2718
    104  CB       -10.5570   -0.1790  -14.6760 C.3    76  VAL76       0.0266
    105  CG1       -9.3670    0.0620  -15.5740 C.3    76  VAL76       0.0020
    106  CG2      -10.4470   -1.5520  -14.0180 C.3    76  VAL76       0.0020
    107  N        -11.7170    0.2870  -11.5230 N.am   77  LYS77      -0.1980
    108  CA       -12.8360   -0.0250  -10.6360 C.3    77  LYS77       0.1596
    109  C        -13.2920    1.1500   -9.7540 C.2    77  LYS77       0.2287
    110  O        -14.3310    1.0710   -9.0970 O.2    77  LYS77      -0.2864
    111  CB       -12.4640   -1.2020   -9.7270 C.3    77  LYS77       0.0298
    112  CG       -12.1370   -2.5190  -10.4340 C.3    77  LYS77       0.0038
    113  CD       -13.4000   -3.3120  -10.7250 C.3    77  LYS77       0.0206
    114  CE       -13.0430   -4.6740  -11.3180 C.3    77  LYS77       0.1093
    115  NZ       -14.0810   -5.2550  -12.2400 N.3    77  LYS77      -0.1314
    116  N        -14.8220    4.0700  -10.1770 N.3    79  HIS79      -0.1241
    117  CA       -15.6340    4.8610  -11.0940 C.3    79  HIS79       0.1621
    118  C        -15.9260    6.3000  -10.6950 C.2    79  HIS79       0.2264
    119  O        -15.9150    7.1880  -11.5460 O.2    79  HIS79      -0.2867
    120  CB       -16.9480    4.1210  -11.3780 C.3    79  HIS79       0.0745
    121  CG       -16.7510    2.7980  -12.0610 C.ar   79  HIS79       0.0817
    122  ND1      -17.8060    2.0050  -12.4590 N.ar   79  HIS79      -0.2268
    123  CD2      -15.6280    2.1410  -12.4220 C.ar   79  HIS79       0.1154
    124  CE1      -17.3350    0.9150  -13.0420 C.ar   79  HIS79       0.1986
    125  NE2      -16.0180    0.9700  -13.0350 N.ar   79  HIS79      -0.2212
    126  N        -13.1130    8.3610  -11.7270 N.3    82  ILE82      -0.1231
    127  CA       -13.0190    8.4330  -13.1820 C.3    82  ILE82       0.1692
    128  C        -13.9870    9.4930  -13.7040 C.2    82  ILE82       0.2592
    129  O        -13.6280   10.3270  -14.5360 O.2    82  ILE82      -0.2718
    130  CB       -13.3280    7.0530  -13.8050 C.3    82  ILE82       0.0266
    131  CG1      -12.2070    6.0730  -13.4380 C.3    82  ILE82       0.0019
    132  CG2      -13.4810    7.1710  -15.3230 C.3    82  ILE82       0.0020
    133  CD1      -12.4950    4.6260  -13.8030 C.3    82  ILE82       0.0001
    134  N        -15.2150    9.4700  -13.2070 N.am   83  TYR83      -0.1976
    135  CA       -16.1840   10.4750  -13.6300 C.3    83  TYR83       0.1639
    136  C        -15.6770   11.8880  -13.3670 C.2    83  TYR83       0.2290
    137  O        -15.8270   12.7730  -14.2040 O.2    83  TYR83      -0.2864
    138  CB       -17.5020   10.2930  -12.8980 C.3    83  TYR83       0.0560
    139  CG       -18.4280    9.3490  -13.5900 C.ar   83  TYR83      -0.0198
    140  CD1      -19.1200    9.7390  -14.7370 C.ar   83  TYR83      -0.0009
    141  CD2      -18.5900    8.0490  -13.1270 C.ar   83  TYR83      -0.0009
    142  CE1      -19.9620    8.8540  -15.3970 C.ar   83  TYR83       0.0417
    143  CE2      -19.4220    7.1640  -13.7730 C.ar   83  TYR83       0.0417
    144  CZ       -20.1020    7.5660  -14.9140 C.ar   83  TYR83       0.1957
    145  OH       -20.9170    6.6610  -15.5480 O.3    83  TYR83      -0.2866
@<TRIPOS>BOND
     1    27    28   ar
     2    27    25   ar
     3    46    47    1
     4    46    45    1
     5    28    26   ar
     6    47    49   am
     7    47    48    2
     8    25    23   ar
     9    45    42    1
    10    26    24   ar
    11    44    43    2
    12    43    42    1
    13    23    24   ar
    14    23    22    1
    15    42    41    1
    16    61    60    2
    17    60    59    1
    18    22    19    1
    19    21    20    2
    20    20    19    1
    21    41    39   am
    22    62    59    1
    23    62    63    1
    24    59    58    1
    25    29    30    1
    26    19    18    1
    27    50    51    1
    28    58    52   am
    29    39    40    2
    30    39    38    1
    31    52    53    2
    32    52    51    1
    33    30    31    1
    34    30    33    1
    35    18    12   am
    36    63    64    1
    37    51    54    1
    38    31    32    2
    39    31    37   am
    40    37    38    1
    41    65    64    1
    42    12    13    2
    43    12    11    1
    44    10    11    1
    45    33    34    1
    46    34    36    1
    47    34    35    1
    48    54    55    1
    49    54    56    1
    50    11    14    1
    51    55    57    1
    52     4     3    2
    53    69    68    2
    54    14    15    1
    55    66    67    1
    56     3     2    1
    57     8     7    2
    58    68    67    1
    59    15    16    1
    60    15    17    1
    61    67    70    1
    62    70    71    1
    63     5     2    1
    64     5     6    1
    65     2     1    1
    66     7     9   am
    67     7     6    1
    68    72    71   ar
    69    72    74   ar
    70    71    73   ar
    71    86    88   ar
    72    86    84   ar
    73    88    87   ar
    74    74    76   ar
    75    78    79    1
    76    84    83   ar
    77    87    85   ar
    78    73    75   ar
    79    83    85   ar
    80    83    82    1
    81    99    98   ar
    82    99    97   ar
    83    76    75   ar
    84    76    77    1
    85    79    82    1
    86    79    80    1
    87    98    96   ar
    88   105   104    1
    89   145   144    1
    90    97    95   ar
    91   142   144   ar
    92   142   140   ar
    93   132   130    1
    94    80    81    2
    95   144   143   ar
    96    96    94   ar
    97   140   139   ar
    98   104   106    1
    99   104   101    1
   100   129   128    2
   101   137   136    2
   102    95    94   ar
   103   130   131    1
   104   130   127    1
   105   133   131    1
   106    94    93    1
   107   143   141   ar
   108   128   134   am
   109   128   127    1
   110   135   136    1
   111   135   134    1
   112   135   138    1
   113   101   102    1
   114   101   100    1
   115   139   141   ar
   116   139   138    1
   117   103   102    2
   118   127   126    1
   119   124   125   ar
   120   124   122   ar
   121   125   123   ar
   122    92    91    2
   123   102   107   am
   124    89    90    1
   125   122   121   ar
   126   123   121   ar
   127    93    90    1
   128   115   114    1
   129   121   120    1
   130    91    90    1
   131   119   118    2
   132   107   108    1
   133   120   117    1
   134   114   113    1
   135   117   118    1
   136   117   116    1
   137   113   112    1
   138   108   109    1
   139   108   111    1
   140   112   111    1
   141   109   110    2
