@<TRIPOS>MOLECULE
tmp/4ocoA00.pdb
 205 197 0 0 0
SMALL
GASTEIGER

@<TRIPOS>ATOM
      1  N         -4.5150  -11.4130  -30.2570 N.3    28  GLY28      -0.1210
      2  CA        -4.8630  -10.1190  -30.8630 C.3    28  GLY28       0.1956
      3  C         -6.1190   -9.6220  -30.1720 C.2    28  GLY28       0.2612
      4  O         -7.0050  -10.4190  -29.8560 O.2    28  GLY28      -0.2717
      5  N         -6.2090   -8.3160  -29.9370 N.am   29  HIS29      -0.1961
      6  CA        -7.3170   -7.7590  -29.1770 C.3    29  HIS29       0.1787
      7  C         -8.4000   -7.1850  -30.0400 C.2    29  HIS29       0.2620
      8  O         -9.4460   -6.8130  -29.5090 O.2    29  HIS29      -0.2715
      9  CB        -6.8260   -6.6510  -28.2460 C.3    29  HIS29       0.0785
     10  CG        -5.8820   -7.1260  -27.1640 C.ar   29  HIS29       0.0821
     11  ND1       -4.8030   -6.4050  -26.7710 N.ar   29  HIS29      -0.2267
     12  CD2       -5.8940   -8.2690  -26.3860 C.ar   29  HIS29       0.1154
     13  CE1       -4.1620   -7.0700  -25.7800 C.ar   29  HIS29       0.1986
     14  NE2       -4.8270   -8.2090  -25.5550 N.ar   29  HIS29      -0.2212
     15  N         -8.1560   -7.0760  -31.3490 N.am   30  ILE30      -0.1963
     16  CA        -8.9810   -6.2870  -32.2510 C.3    30  ILE30       0.1727
     17  C         -9.7420   -7.1570  -33.2600 C.2    30  ILE30       0.2616
     18  O        -10.9760   -7.1790  -33.2830 O.2    30  ILE30      -0.2715
     19  CB        -8.1420   -5.2130  -33.0070 C.3    30  ILE30       0.0290
     20  CG1       -7.5640   -4.1900  -32.0390 C.3    30  ILE30       0.0022
     21  CG2       -8.9840   -4.4900  -34.0650 C.3    30  ILE30       0.0023
     22  CD1       -8.5040   -3.8250  -30.9000 C.3    30  ILE30       0.0001
     23  N         -9.0000   -7.8550  -34.1070 N.am   31  ASN31      -0.1972
     24  CA        -9.6010   -8.7770  -35.0520 C.3    31  ASN31       0.1688
     25  C         -9.8800  -10.1120  -34.3790 C.2    31  ASN31       0.2292
     26  O         -9.2590  -10.4550  -33.3810 O.2    31  ASN31      -0.2864
     27  CB        -8.7000   -8.9190  -36.2670 C.3    31  ASN31       0.1181
     28  CG        -8.6030   -7.6290  -37.0640 C.2    31  ASN31       0.2629
     29  OD1       -7.6510   -7.4260  -37.8200 O.2    31  ASN31      -0.2716
     30  ND2       -9.5890   -6.7490  -36.9060 N.am   31  ASN31      -0.0877
     31  N        -13.4610   -0.6600  -36.2140 N.3    51  ILE51      -0.1231
     32  CA       -12.1330   -0.0850  -35.9990 C.3    51  ILE51       0.1692
     33  C        -11.4060    0.1880  -37.3250 C.2    51  ILE51       0.2592
     34  O        -10.6990    1.1720  -37.4570 O.2    51  ILE51      -0.2718
     35  CB       -11.2760   -0.9210  -35.0180 C.3    51  ILE51       0.0266
     36  CG1      -11.7730   -0.7060  -33.5960 C.3    51  ILE51       0.0019
     37  CG2       -9.8120   -0.5010  -35.0780 C.3    51  ILE51       0.0020
     38  CD1      -11.4160   -1.8310  -32.6550 C.3    51  ILE51       0.0001
     39  N        -11.5820   -0.6920  -38.3040 N.am   52  PHE52      -0.1976
     40  CA       -11.0330   -0.4610  -39.6380 C.3    52  PHE52       0.1639
     41  C        -12.2320   -0.3710  -40.5810 C.2    52  PHE52       0.2290
     42  O        -12.5600   -1.3620  -41.2340 O.2    52  PHE52      -0.2864
     43  CB       -10.1400   -1.6320  -40.0580 C.3    52  PHE52       0.0560
     44  CG        -8.9300   -1.8600  -39.1780 C.ar   52  PHE52      -0.0200
     45  CD1       -7.7970   -1.0700  -39.3090 C.ar   52  PHE52      -0.0042
     46  CD2       -8.9030   -2.9170  -38.2560 C.ar   52  PHE52      -0.0042
     47  CE1       -6.6620   -1.3200  -38.5260 C.ar   52  PHE52      -0.0003
     48  CE2       -7.7800   -3.1610  -37.4630 C.ar   52  PHE52      -0.0003
     49  CZ        -6.6560   -2.3710  -37.6100 C.ar   52  PHE52      -0.0000
     50  N         -6.1690    3.9270  -39.6510 N.3   142  ILE142     -0.1245
     51  CA        -6.8500    4.5170  -38.4990 C.3   142  ILE142      0.1561
     52  C         -6.2300    5.9000  -38.2910 C.2   142  ILE142      0.2260
     53  O         -5.0040    6.0250  -38.1660 O.2   142  ILE142     -0.2867
     54  CB        -6.6390    3.7150  -37.2090 C.3   142  ILE142      0.0252
     55  CG1       -7.0720    2.2540  -37.3770 C.3   142  ILE142      0.0019
     56  CG2       -7.3940    4.3690  -36.0460 C.3   142  ILE142      0.0019
     57  CD1       -6.6600    1.3680  -36.2080 C.3   142  ILE142      0.0001
     58  N         -3.6340    7.6410  -34.8790 N.3   145  PHE145     -0.1227
     59  CA        -3.4770    6.3370  -34.2280 C.3   145  PHE145      0.1736
     60  C         -2.5290    6.3690  -33.0160 C.2   145  PHE145      0.2595
     61  O         -2.8740    5.8610  -31.9430 O.2   145  PHE145     -0.2718
     62  CB        -3.0910    5.2620  -35.2450 C.3   145  PHE145      0.0547
     63  CG        -3.0860    3.8990  -34.6740 C.ar  145  PHE145     -0.0202
     64  CD1       -4.2730    3.3170  -34.2340 C.ar  145  PHE145     -0.0042
     65  CD2       -1.8940    3.2040  -34.5190 C.ar  145  PHE145     -0.0042
     66  CE1       -4.2760    2.0510  -33.6600 C.ar  145  PHE145     -0.0003
     67  CE2       -1.8840    1.9230  -33.9870 C.ar  145  PHE145     -0.0003
     68  CZ        -3.0750    1.3550  -33.5260 C.ar  145  PHE145     -0.0000
     69  N         -1.3630    6.9900  -33.1850 N.am  146  HIS146     -0.1975
     70  CA        -0.4810    7.2810  -32.0450 C.3   146  HIS146      0.1656
     71  C         -0.3080    8.7520  -31.7940 C.2   146  HIS146      0.2291
     72  O          0.7850    9.2310  -31.4760 O.2   146  HIS146     -0.2864
     73  CB         0.8720    6.6210  -32.2280 C.3   146  HIS146      0.0771
     74  CG         0.8260    5.1210  -32.1220 C.ar  146  HIS146      0.0820
     75  ND1        0.2560    4.4840  -31.0800 N.ar  146  HIS146     -0.2267
     76  CD2        1.3390    4.1340  -32.9580 C.ar  146  HIS146      0.1154
     77  CE1        0.3800    3.1700  -31.2500 C.ar  146  HIS146      0.1986
     78  NE2        1.0460    2.9530  -32.4040 N.ar  146  HIS146     -0.2212
     79  N          3.6260    0.4460  -36.3100 N.3   202  ASN202     -0.1225
     80  CA         2.6200    0.9450  -35.3560 C.3   202  ASN202      0.1785
     81  C          1.9180   -0.0240  -34.4090 C.2   202  ASN202      0.2597
     82  O          1.0640    0.4080  -33.6480 O.2   202  ASN202     -0.2718
     83  CB         1.5970    1.8470  -36.0470 C.3   202  ASN202      0.1169
     84  CG         2.2500    2.9880  -36.7710 C.2   202  ASN202      0.2627
     85  OD1        2.8750    3.8740  -36.1540 O.2   202  ASN202     -0.2716
     86  ND2        2.1430    2.9700  -38.0890 N.am  202  ASN202     -0.0877
     87  N          2.2840   -1.3070  -34.4410 N.am  203  ASP203     -0.1974
     88  CA         1.7730   -2.3270  -33.4990 C.3   203  ASP203      0.1709
     89  C          2.8650   -3.3760  -33.2660 C.2   203  ASP203      0.2293
     90  O          2.6790   -4.5520  -33.5710 O.2   203  ASP203     -0.2864
     91  CB         0.4870   -3.0040  -34.0240 C.3   203  ASP203      0.1436
     92  CG        -0.1490   -3.9610  -32.9960 C.2   203  ASP203      0.3671
     93  OD1        0.2600   -3.9830  -31.8220 O.co2 203  ASP203     -0.2456
     94  OD2       -1.0610   -4.7270  -33.3710 O.co2 203  ASP203     -0.2456
     95  N          4.2930   -5.0600  -30.8890 N.3   205  LYS205     -0.1245
     96  CA         4.3870   -5.8660  -29.6810 C.3   205  LYS205      0.1561
     97  C          4.9970   -7.2150  -30.0470 C.2   205  LYS205      0.2260
     98  O          4.8570   -7.6710  -31.1930 O.2   205  LYS205     -0.2867
     99  CB         3.0330   -6.0000  -28.9350 C.3   205  LYS205      0.0271
    100  CG         1.8580   -6.5250  -29.7450 C.3   205  LYS205      0.0035
    101  CD         0.6240   -6.5160  -28.8330 C.3   205  LYS205      0.0206
    102  CE        -0.6520   -6.8380  -29.5950 C.3   205  LYS205      0.1093
    103  NZ        -1.7800   -6.9260  -28.6220 N.3   205  LYS205     -0.1314
    104  N          3.6700  -10.1560  -32.3100 N.3   208  ASN208     -0.1240
    105  CA         3.4650   -9.9160  -33.7340 C.3   208  ASN208      0.1653
    106  C          4.7010  -10.3340  -34.5980 C.2   208  ASN208      0.2266
    107  O          4.7150  -10.1200  -35.8110 O.2   208  ASN208     -0.2867
    108  CB         3.0600   -8.4500  -33.9730 C.3   208  ASN208      0.1155
    109  CG         1.5790   -8.1970  -33.7240 C.2   208  ASN208      0.2627
    110  OD1        0.7670   -9.1070  -33.8630 O.2   208  ASN208     -0.2716
    111  ND2        1.2180   -6.9490  -33.3880 N.am  208  ASN208     -0.0877
    112  N          1.2010   -8.8820  -38.2630 N.3   222  ASP222     -0.1239
    113  CA        -0.0500   -8.1200  -38.1640 C.3   222  ASP222      0.1674
    114  C          0.2100   -6.8070  -38.8400 C.2   222  ASP222      0.2266
    115  O          0.6280   -5.8580  -38.1670 O.2   222  ASP222     -0.2867
    116  CB        -0.4210   -7.8590  -36.7030 C.3   222  ASP222      0.1410
    117  CG        -1.7620   -7.1180  -36.5490 C.2   222  ASP222      0.3668
    118  OD1       -2.2680   -6.5050  -37.5130 O.co2 222  ASP222     -0.2456
    119  OD2       -2.3070   -7.1300  -35.4310 O.co2 222  ASP222     -0.2456
    120  N         -1.7270   -1.8430  -39.2100 N.3   225  THR225     -0.1218
    121  CA        -1.5340   -0.4380  -38.8480 C.3   225  THR225      0.1862
    122  C         -0.2580    0.1530  -39.4240 C.2   225  THR225      0.2287
    123  O          0.2790    1.1180  -38.8710 O.2   225  THR225     -0.2866
    124  CB        -1.5210   -0.2260  -37.3120 C.3   225  THR225      0.1770
    125  OG1       -0.5040   -1.0380  -36.7270 O.3   225  THR225     -0.2211
    126  CG2       -2.8360   -0.6220  -36.7000 C.3   225  THR225      0.0375
    127  N          6.5940    1.2020  -28.3300 N.3   235  ASP235     -0.1239
    128  CA         5.5450    0.1900  -28.1650 C.3   235  ASP235      0.1674
    129  C          6.1800   -1.1890  -27.9340 C.2   235  ASP235      0.2266
    130  O          5.6320   -2.0000  -27.1980 O.2   235  ASP235     -0.2867
    131  CB         4.6820    0.1620  -29.4260 C.3   235  ASP235      0.1410
    132  CG         3.2750   -0.3550  -29.1860 C.2   235  ASP235      0.3668
    133  OD1        2.7880   -0.3770  -28.0220 O.co2 235  ASP235     -0.2456
    134  OD2        2.6410   -0.7110  -30.2090 O.co2 235  ASP235     -0.2456
    135  N          7.3320   -1.1310  -24.3900 N.3   238  ARG238     -0.1245
    136  CA         6.1100   -1.2400  -23.5810 C.3   238  ARG238      0.1563
    137  C          5.7400   -2.7000  -23.3060 C.2   238  ARG238      0.2260
    138  O          5.5110   -3.0770  -22.1680 O.2   238  ARG238     -0.2867
    139  CB         4.9190   -0.5230  -24.2690 C.3   238  ARG238      0.0307
    140  CG         3.5650   -0.8400  -23.6180 C.3   238  ARG238      0.0489
    141  CD         2.3740   -0.3790  -24.4760 C.3   238  ARG238      0.2205
    142  NE         2.0950   -1.3150  -25.5700 N.pl3 238  ARG238     -0.0865
    143  CZ         1.4490   -2.4710  -25.4040 C.cat 238  ARG238      0.5346
    144  NH1        0.9980   -2.8270  -24.1870 N.pl3 238  ARG238      0.1354
    145  NH2        1.2510   -3.2870  -26.4490 N.pl3 238  ARG238      0.1354
    146  N          1.0320   -8.4050  -20.2290 N.3   246  GLU246     -0.1245
    147  CA         0.2600   -7.1730  -20.3280 C.3   246  GLU246      0.1567
    148  C         -0.9300   -7.1330  -19.3550 C.2   246  GLU246      0.2260
    149  O         -1.3190   -6.0650  -18.8890 O.2   246  GLU246     -0.2867
    150  CB        -0.2170   -7.0500  -21.7610 C.3   246  GLU246      0.0388
    151  CG        -0.8290   -5.7300  -22.1470 C.3   246  GLU246      0.1160
    152  CD        -1.2840   -5.7650  -23.5870 C.2   246  GLU246      0.3649
    153  OE1       -0.7530   -4.9740  -24.3920 O.co2 246  GLU246     -0.2457
    154  OE2       -2.1560   -6.6130  -23.9000 O.co2 246  GLU246     -0.2457
    155  N         -1.1290    3.5050  -24.4490 N.3   294  CYS294     -0.1235
    156  CA        -1.8500    2.2510  -24.5010 C.3   294  CYS294      0.1677
    157  C         -2.5910    2.0560  -23.1930 C.2   294  CYS294      0.2270
    158  O         -3.7300    1.6470  -23.1920 O.2   294  CYS294     -0.2867
    159  CB        -0.8910    1.0930  -24.7840 C.3   294  CYS294      0.0956
    160  SG        -1.7470   -0.4260  -25.1540 S.3   294  CYS294     -0.0801
    161  N         -5.6730    4.1770  -23.1410 N.3   296  ARG296     -0.1231
    162  CA        -6.6630    3.5140  -24.0000 C.3   296  ARG296      0.1694
    163  C         -7.3560    2.3400  -23.3130 C.2   296  ARG296      0.2592
    164  O         -8.5860    2.2020  -23.4130 O.2   296  ARG296     -0.2718
    165  CB        -6.0320    3.0900  -25.3150 C.3   296  ARG296      0.0321
    166  CG        -5.5710    4.2820  -26.1560 C.3   296  ARG296      0.0489
    167  CD        -4.7830    3.7980  -27.3620 C.3   296  ARG296      0.2205
    168  NE        -5.5990    2.9500  -28.2240 N.pl3 296  ARG296     -0.0865
    169  CZ        -5.1180    2.0090  -29.0340 C.cat 296  ARG296      0.5346
    170  NH1       -3.7970    1.8100  -29.1330 N.pl3 296  ARG296      0.1354
    171  NH2       -5.9690    1.2630  -29.7630 N.pl3 296  ARG296      0.1354
    172  N         -6.5980    1.5080  -22.5920 N.am  297  PHE297     -0.1976
    173  CA        -7.2090    0.4490  -21.7920 C.3   297  PHE297      0.1639
    174  C         -8.1680    1.0230  -20.7650 C.2   297  PHE297      0.2290
    175  O         -9.2620    0.4840  -20.5870 O.2   297  PHE297     -0.2864
    176  CB        -6.1520   -0.3550  -21.0450 C.3   297  PHE297      0.0560
    177  CG        -5.3140   -1.2430  -21.9360 C.ar  297  PHE297     -0.0200
    178  CD1       -5.9010   -1.9950  -22.9530 C.ar  297  PHE297     -0.0042
    179  CD2       -3.9480   -1.3560  -21.7270 C.ar  297  PHE297     -0.0042
    180  CE1       -5.1190   -2.8090  -23.7620 C.ar  297  PHE297     -0.0003
    181  CE2       -3.1660   -2.1820  -22.5370 C.ar  297  PHE297     -0.0003
    182  CZ        -3.7560   -2.9020  -23.5580 C.ar  297  PHE297     -0.0000
    183  N        -13.8580   -1.5460  -27.1290 N.3   307  TYR307     -0.1227
    184  CA       -12.7970   -1.4960  -28.1330 C.3   307  TYR307      0.1736
    185  C        -11.9500   -2.7650  -28.1300 C.2   307  TYR307      0.2595
    186  O        -11.8280   -3.4400  -29.1630 O.2   307  TYR307     -0.2718
    187  CB       -11.9220   -0.2500  -27.9330 C.3   307  TYR307      0.0548
    188  CG       -10.9180   -0.0380  -29.0270 C.ar  307  TYR307     -0.0200
    189  CD1       -9.6850   -0.6770  -28.9910 C.ar  307  TYR307     -0.0009
    190  CD2      -11.2010    0.8170  -30.1050 C.ar  307  TYR307     -0.0009
    191  CE1       -8.7570   -0.4770  -29.9980 C.ar  307  TYR307      0.0417
    192  CE2      -10.2750    1.0310  -31.1110 C.ar  307  TYR307      0.0417
    193  CZ        -9.0500    0.3650  -31.0550 C.ar  307  TYR307      0.1957
    194  OH        -8.1080    0.5400  -32.0610 O.3   307  TYR307     -0.2866
    195  N        -11.3770   -3.0920  -26.9690 N.am  308  PHE308     -0.1976
    196  CA       -10.4670   -4.2450  -26.8170 C.3   308  PHE308      0.1639
    197  C        -11.2660   -5.4910  -26.4090 C.2   308  PHE308      0.2290
    198  O        -12.1290   -5.4010  -25.5270 O.2   308  PHE308     -0.2864
    199  CB        -9.4150   -3.9410  -25.7190 C.3   308  PHE308      0.0560
    200  CG        -8.4750   -2.7880  -26.0490 C.ar  308  PHE308     -0.0200
    201  CD1       -7.3760   -2.9730  -26.9020 C.ar  308  PHE308     -0.0042
    202  CD2       -8.6850   -1.5220  -25.4930 C.ar  308  PHE308     -0.0042
    203  CE1       -6.5390   -1.9190  -27.2030 C.ar  308  PHE308     -0.0003
    204  CE2       -7.8420   -0.4610  -25.7970 C.ar  308  PHE308     -0.0003
    205  CZ        -6.7720   -0.6650  -26.6580 C.ar  308  PHE308     -0.0000
@<TRIPOS>BOND
     1    42    41    2
     2    41    40    1
     3    43    40    1
     4    43    44    1
     5    50    51    1
     6    40    39    1
     7   122   123    2
     8   122   121    1
     9    45    44   ar
    10    45    47   ar
    11   120   121    1
    12    44    46   ar
    13   121   124    1
    14   114   115    2
    15   114   113    1
    16    47    49   ar
    17    51    52    1
    18    51    54    1
    19    39    33   am
    20    52    53    2
    21   112   113    1
    22    46    48   ar
    23   113   116    1
    24    86    84   am
    25    29    28    2
    26    49    48   ar
    27   118   117   ar
    28    34    33    2
    29    55    54    1
    30    55    57    1
    31    33    32    1
    32   124   125    1
    33   124   126    1
    34    54    56    1
    35    28    30   am
    36    28    27    1
    37    84    85    2
    38    84    83    1
    39   116   117    1
    40   117   119   ar
    41    79    80    1
    42    27    24    1
    43    31    32    1
    44    83    80    1
    45    32    35    1
    46   107   106    2
    47    80    81    1
    48    62    63    1
    49    62    59    1
    50    37    35    1
    51    24    25    1
    52    24    23    1
    53    35    36    1
    54    58    59    1
    55    63    65   ar
    56    63    64   ar
    57   106   105    1
    58    65    67   ar
    59    87    81   am
    60    87    88    1
    61    81    82    2
    62    25    26    2
    63    64    66   ar
    64    59    60    1
    65    23    17   am
    66    21    19    1
    67    91    88    1
    68    91    92    1
    69    67    68   ar
    70   108   105    1
    71   108   109    1
    72   110   109    2
    73   105   104    1
    74   109   111   am
    75    66    68   ar
    76    36    38    1
    77    90    89    2
    78    88    89    1
    79    94    92   ar
    80    18    17    2
    81    17    16    1
    82    69    60   am
    83    69    70    1
    84    60    61    2
    85    19    16    1
    86    19    20    1
    87    92    93   ar
    88    76    78   ar
    89    76    74   ar
    90    78    77   ar
    91    16    15    1
    92    73    74    1
    93    73    70    1
    94    74    75   ar
    95   194   193    1
    96    70    71    1
    97    20    22    1
    98    71    72    2
    99    15     7   am
   100    77    75   ar
   101    98    97    2
   102   192   193   ar
   103   192   190   ar
   104   193   191   ar
   105    95    96    1
   106     2     1    1
   107     2     3    1
   108   134   132   ar
   109     3     5   am
   110     3     4    2
   111   190   188   ar
   112    97    96    1
   113     7     8    2
   114     7     6    1
   115   191   189   ar
   116     5     6    1
   117   171   169    1
   118   100    99    1
   119   100   101    1
   120    96    99    1
   121   102   101    1
   122   102   103    1
   123   131   132    1
   124   131   128    1
   125   132   133   ar
   126     6     9    1
   127   186   185    2
   128   170   169    1
   129   169   168    2
   130   188   189   ar
   131   188   187    1
   132   127   128    1
   133     9    10    1
   134   168   167    1
   135   128   129    1
   136   184   185    1
   137   184   187    1
   138   184   183    1
   139   185   195   am
   140   129   130    2
   141   167   166    1
   142   203   201   ar
   143   203   205   ar
   144    10    11   ar
   145    10    12   ar
   146   195   196    1
   147   201   200   ar
   148   196   197    1
   149   196   199    1
   150    11    13   ar
   151   205   204   ar
   152   145   143    1
   153   197   198    2
   154    12    14   ar
   155   166   165    1
   156   200   199    1
   157   200   202   ar
   158   204   202   ar
   159    13    14   ar
   160   142   143    2
   161   142   141    1
   162   143   144    1
   163   165   162    1
   164   160   159    1
   165   159   156    1
   166   156   155    1
   167   156   157    1
   168   141   140    1
   169   153   152   ar
   170   135   136    1
   171   139   140    1
   172   139   136    1
   173   162   163    1
   174   162   161    1
   175   154   152   ar
   176   180   182   ar
   177   180   178   ar
   178   152   151    1
   179   136   137    1
   180   182   181   ar
   181   164   163    2
   182   163   172   am
   183   137   138    2
   184   157   158    2
   185   178   177   ar
   186   172   173    1
   187   181   179   ar
   188   151   150    1
   189   177   179   ar
   190   177   176    1
   191   173   176    1
   192   173   174    1
   193   150   147    1
   194   174   175    2
   195   147   146    1
   196   147   148    1
   197   148   149    2
