@<TRIPOS>MOLECULE
tmp/4ocuA00.pdb
 193 186 0 0 0
SMALL
GASTEIGER

@<TRIPOS>ATOM
      1  N        -40.7370   -1.0220   19.8890 N.3    29  HIS29      -0.1226
      2  CA       -41.0520   -2.3300   20.4830 C.3    29  HIS29       0.1752
      3  C        -41.3020   -2.2700   21.9660 C.2    29  HIS29       0.2595
      4  O        -41.8460   -3.2160   22.5220 O.2    29  HIS29      -0.2718
      5  CB       -39.8900   -3.3100   20.2560 C.3    29  HIS29       0.0759
      6  CG       -39.5820   -3.5710   18.8010 C.ar   29  HIS29       0.0818
      7  ND1      -38.3180   -3.8320   18.3530 N.ar   29  HIS29      -0.2268
      8  CD2      -40.4120   -3.6200   17.6870 C.ar   29  HIS29       0.1154
      9  CE1      -38.3510   -4.0440   17.0240 C.ar   29  HIS29       0.1986
     10  NE2      -39.6340   -3.9070   16.6150 N.ar   29  HIS29      -0.2212
     11  N        -40.8600   -1.1970   22.6210 N.am   30  ILE30      -0.1980
     12  CA       -40.6690   -1.2110   24.0840 C.3    30  ILE30       0.1595
     13  C        -41.6580   -0.2930   24.7950 C.2    30  ILE30       0.2287
     14  O        -42.5670   -0.7740   25.4570 O.2    30  ILE30      -0.2864
     15  CB       -39.2280   -0.8170   24.5080 C.3    30  ILE30       0.0276
     16  CG1      -38.1750   -1.6530   23.7430 C.3    30  ILE30       0.0022
     17  CG2      -39.0420   -0.9750   26.0220 C.3    30  ILE30       0.0022
     18  CD1      -38.4140   -3.1450   23.8290 C.3    30  ILE30       0.0001
     19  N        -40.2110   -3.7780   31.6650 N.3    52  ILE52      -0.1231
     20  CA       -38.8300   -3.8070   31.1870 C.3    52  ILE52       0.1692
     21  C        -37.9030   -2.8640   31.9570 C.2    52  ILE52       0.2592
     22  O        -36.7360   -3.1970   32.2140 O.2    52  ILE52      -0.2718
     23  CB       -38.7930   -3.5050   29.6670 C.3    52  ILE52       0.0266
     24  CG1      -39.4890   -4.6580   28.9320 C.3    52  ILE52       0.0019
     25  CG2      -37.3510   -3.2730   29.1710 C.3    52  ILE52       0.0020
     26  CD1      -39.6670   -4.4340   27.4450 C.3    52  ILE52       0.0001
     27  N        -38.4280   -1.6910   32.3050 N.am   53  PHE53      -0.1976
     28  CA       -37.6950   -0.6630   33.0570 C.3    53  PHE53       0.1639
     29  C        -38.3690   -0.4440   34.4300 C.2    53  PHE53       0.2290
     30  O        -39.0330    0.5870   34.6290 O.2    53  PHE53      -0.2864
     31  CB       -37.6540    0.6710   32.2710 C.3    53  PHE53       0.0560
     32  CG       -36.8270    0.6250   30.9920 C.ar   53  PHE53      -0.0200
     33  CD1      -35.4390    0.4820   31.0530 C.ar   53  PHE53      -0.0042
     34  CD2      -37.4320    0.7840   29.7420 C.ar   53  PHE53      -0.0042
     35  CE1      -34.6780    0.4800   29.8890 C.ar   53  PHE53      -0.0003
     36  CE2      -36.6760    0.7620   28.5690 C.ar   53  PHE53      -0.0003
     37  CZ       -35.2890    0.5990   28.6520 C.ar   53  PHE53      -0.0000
     38  N        -30.8880   -1.9040   32.6380 N.3   144  ILE144     -0.1245
     39  CA       -31.2310   -3.3220   32.4340 C.3   144  ILE144      0.1561
     40  C        -29.9340   -4.1100   32.6120 C.2   144  ILE144      0.2260
     41  O        -28.9110   -3.8150   31.9580 O.2   144  ILE144     -0.2867
     42  CB       -31.7920   -3.6230   31.0260 C.3   144  ILE144      0.0252
     43  CG1      -33.1180   -2.9030   30.7910 C.3   144  ILE144      0.0019
     44  CG2      -32.0310   -5.1280   30.8380 C.3   144  ILE144      0.0019
     45  CD1      -33.5470   -2.9030   29.3390 C.3   144  ILE144      0.0001
     46  N        -27.3790   -6.5770   29.7570 N.3   147  PHE147     -0.1227
     47  CA       -28.1250   -6.1240   28.5730 C.3   147  PHE147      0.1736
     48  C        -27.5590   -6.6260   27.2330 C.2   147  PHE147      0.2595
     49  O        -28.3060   -7.1080   26.3880 O.2   147  PHE147     -0.2718
     50  CB       -28.2760   -4.5860   28.5670 C.3   147  PHE147      0.0547
     51  CG       -29.2410   -4.0960   27.5190 C.ar  147  PHE147     -0.0202
     52  CD1      -30.5850   -4.4330   27.5990 C.ar  147  PHE147     -0.0042
     53  CD2      -28.7900   -3.3450   26.4200 C.ar  147  PHE147     -0.0042
     54  CE1      -31.4720   -3.9960   26.6210 C.ar  147  PHE147     -0.0003
     55  CE2      -29.6690   -2.8960   25.4540 C.ar  147  PHE147     -0.0003
     56  CZ       -31.0140   -3.2310   25.5430 C.ar  147  PHE147     -0.0000
     57  N        -26.2400   -6.4940   27.0470 N.am  148  HIS148     -0.1975
     58  CA       -25.5320   -7.1230   25.9350 C.3   148  HIS148      0.1656
     59  C        -24.5340   -8.1650   26.4020 C.2   148  HIS148      0.2291
     60  O        -23.4460   -8.3440   25.8120 O.2   148  HIS148     -0.2864
     61  CB       -24.8580   -6.0540   25.0650 C.3   148  HIS148      0.0771
     62  CG       -25.8480   -5.1950   24.2870 C.ar  148  HIS148      0.0820
     63  ND1      -26.8230   -5.7280   23.5310 N.ar  148  HIS148     -0.2267
     64  CD2      -25.9640   -3.7970   24.1510 C.ar  148  HIS148      0.1154
     65  CE1      -27.5470   -4.7300   22.9550 C.ar  148  HIS148      0.1986
     66  NE2      -27.0280   -3.5560   23.3460 N.ar  148  HIS148     -0.2212
     67  N        -25.9550    1.6320   23.5380 N.3   205  ASN205     -0.1225
     68  CA       -26.5220    0.2700   23.6720 C.3   205  ASN205      0.1785
     69  C        -27.7740   -0.0380   22.8550 C.2   205  ASN205      0.2597
     70  O        -28.2710   -1.1670   22.9100 O.2   205  ASN205     -0.2718
     71  CB       -26.7070   -0.0970   25.1460 C.3   205  ASN205      0.1169
     72  CG       -25.3760   -0.1880   25.8540 C.2   205  ASN205      0.2627
     73  OD1      -24.5510   -1.0390   25.5120 O.2   205  ASN205     -0.2716
     74  ND2      -25.1240    0.7340   26.7800 N.am  205  ASN205     -0.0877
     75  N        -28.2590    0.9380   22.0850 N.am  206  ASP206     -0.1974
     76  CA       -29.3980    0.6900   21.1720 C.3   206  ASP206      0.1709
     77  C        -29.2530    1.6050   19.9880 C.2   206  ASP206      0.2293
     78  O        -30.0890    2.4910   19.7450 O.2   206  ASP206     -0.2864
     79  CB       -30.7330    0.9070   21.9080 C.3   206  ASP206      0.1436
     80  CG       -31.9440    0.4260   21.1190 C.2   206  ASP206      0.3671
     81  OD1      -31.8340    0.0260   19.9480 O.co2 206  ASP206     -0.2456
     82  OD2      -33.0470    0.4530   21.6930 O.co2 206  ASP206     -0.2456
     83  N        -29.6400    1.5400   16.7830 N.3   208  LYS208     -0.1245
     84  CA       -30.3430    1.3970   15.5230 C.3   208  LYS208      0.1561
     85  C        -30.5420    2.7560   14.8500 C.2   208  LYS208      0.2260
     86  O        -30.6380    3.7990   15.5250 O.2   208  LYS208     -0.2867
     87  CB       -31.6630    0.6050   15.6880 C.3   208  LYS208      0.0271
     88  CG       -32.6360    1.0090   16.7850 C.3   208  LYS208      0.0035
     89  CD       -33.7550   -0.0660   16.8490 C.3   208  LYS208      0.0206
     90  CE       -34.9790    0.2200   17.7390 C.3   208  LYS208      0.1093
     91  NZ       -35.9940   -0.9490   17.6390 N.3   208  LYS208     -0.1314
     92  N        -33.1320    8.1010   22.0750 N.3   226  ASP226     -0.1239
     93  CA       -33.4690    6.9720   22.9360 C.3   226  ASP226      0.1674
     94  C        -32.2700    6.9950   23.8660 C.2   226  ASP226      0.2266
     95  O        -31.1330    6.7340   23.4520 O.2   226  ASP226     -0.2867
     96  CB       -33.5320    5.6760   22.1000 C.3   226  ASP226      0.1410
     97  CG       -33.7310    4.4000   22.9410 C.2   226  ASP226      0.3668
     98  OD1      -33.6100    4.4510   24.1980 O.co2 226  ASP226     -0.2456
     99  OD2      -33.9810    3.3310   22.3250 O.co2 226  ASP226     -0.2456
    100  N        -32.3950    5.4860   26.9330 N.3   228  ASP228     -0.1225
    101  CA       -32.8370    4.6130   28.0150 C.3   228  ASP228      0.1805
    102  C        -31.8190    3.5540   28.4450 C.2   228  ASP228      0.2598
    103  O        -31.9280    3.0140   29.5640 O.2   228  ASP228     -0.2718
    104  CB       -34.1550    3.8990   27.6320 C.3   228  ASP228      0.1424
    105  CG       -35.3560    4.8590   27.5690 C.2   228  ASP228      0.3668
    106  OD1      -35.2680    5.9600   28.1460 O.co2 228  ASP228     -0.2456
    107  OD2      -36.3800    4.4990   26.9450 O.co2 228  ASP228     -0.2456
    108  N        -30.8750    3.2340   27.5590 N.am  229  THR229     -0.1953
    109  CA       -29.8790    2.1920   27.8490 C.3   229  THR229      0.1897
    110  C        -28.4400    2.7150   27.8610 C.2   229  THR229      0.2313
    111  O        -27.4700    1.9630   27.7040 O.2   229  THR229     -0.2863
    112  CB       -30.0380    0.9640   26.9320 C.3   229  THR229      0.1794
    113  OG1      -30.0140    1.3510   25.5470 O.3   229  THR229     -0.2208
    114  CG2      -31.3640    0.2130   27.2560 C.3   229  THR229      0.0378
    115  N        -24.3400   -3.2860   16.8490 N.3   241  ASP241     -0.1239
    116  CA       -25.8070   -3.1450   16.8170 C.3   241  ASP241      0.1674
    117  C        -26.2210   -2.2000   15.6870 C.2   241  ASP241      0.2266
    118  O        -27.2440   -2.4270   15.0430 O.2   241  ASP241     -0.2867
    119  CB       -26.3140   -2.6400   18.1750 C.3   241  ASP241      0.1410
    120  CG       -27.7800   -3.0040   18.4490 C.2   241  ASP241      0.3668
    121  OD1      -28.3260   -3.9960   17.8920 O.co2 241  ASP241     -0.2456
    122  OD2      -28.3680   -2.2850   19.2660 O.co2 241  ASP241     -0.2456
    123  N        -25.9870   -4.3710   12.6270 N.3   244  ARG244     -0.1245
    124  CA       -27.1060   -5.3460   12.6300 C.3   244  ARG244      0.1563
    125  C        -28.3480   -4.7410   11.9490 C.2   244  ARG244      0.2260
    126  O        -28.9840   -5.3490   11.0650 O.2   244  ARG244     -0.2867
    127  CB       -27.4690   -5.7100   14.0760 C.3   244  ARG244      0.0307
    128  CG       -28.8040   -6.4530   14.2070 C.3   244  ARG244      0.0489
    129  CD       -29.3240   -6.4370   15.6460 C.3   244  ARG244      0.2205
    130  NE       -30.0060   -5.1770   16.0120 N.pl3 244  ARG244     -0.0865
    131  CZ       -31.2540   -4.8770   15.6740 C.cat 244  ARG244      0.5346
    132  NH1      -31.9510   -5.7190   14.9030 N.pl3 244  ARG244      0.1354
    133  NH2      -31.7990   -3.7300   16.0850 N.pl3 244  ARG244      0.1354
    134  N        -36.1290   -5.0700    9.6650 N.3   252  GLU252     -0.1245
    135  CA       -35.9050   -6.0330   10.7260 C.3   252  GLU252      0.1567
    136  C        -36.9940   -7.1100   10.7570 C.2   252  GLU252      0.2260
    137  O        -36.7170   -8.2640   11.0760 O.2   252  GLU252     -0.2867
    138  CB       -35.8450   -5.2620   12.0500 C.3   252  GLU252      0.0388
    139  CG       -35.5710   -6.0950   13.2760 C.3   252  GLU252      0.1160
    140  CD       -35.6780   -5.2330   14.5120 C.2   252  GLU252      0.3649
    141  OE1      -34.6180   -4.8230   15.0190 O.co2 252  GLU252     -0.2457
    142  OE2      -36.8290   -4.9390   14.9270 O.co2 252  GLU252     -0.2457
    143  N        -29.6010  -10.2950   19.1640 N.3   301  CYS301     -0.1235
    144  CA       -30.9520   -9.7330   18.9950 C.3   301  CYS301      0.1677
    145  C        -31.8840  -10.8070   18.4050 C.2   301  CYS301      0.2270
    146  O        -33.0300  -10.9640   18.8450 O.2   301  CYS301     -0.2867
    147  CB       -30.8790   -8.4640   18.1320 C.3   301  CYS301      0.0956
    148  SG       -32.3630   -7.4320   18.2680 S.3   301  CYS301     -0.0801
    149  N        -32.8520  -13.1190   21.1210 N.3   304  ARG304     -0.1231
    150  CA       -33.9000  -12.4760   21.9210 C.3   304  ARG304      0.1694
    151  C        -35.2610  -12.5190   21.2520 C.2   304  ARG304      0.2592
    152  O        -36.2750  -12.7260   21.9450 O.2   304  ARG304     -0.2718
    153  CB       -33.5420  -11.0120   22.2710 C.3   304  ARG304      0.0321
    154  CG       -32.3540  -10.9020   23.2290 C.3   304  ARG304      0.0489
    155  CD       -31.8330   -9.4690   23.3320 C.3   304  ARG304      0.2205
    156  NE       -32.8640   -8.5860   23.8810 N.pl3 304  ARG304     -0.0865
    157  CZ       -32.8990   -7.2620   23.7230 C.cat 304  ARG304      0.5346
    158  NH1      -31.9660   -6.6190   23.0200 N.pl3 304  ARG304      0.1354
    159  NH2      -33.8830   -6.5620   24.2880 N.pl3 304  ARG304      0.1354
    160  N        -35.3080  -12.2950   19.9340 N.am  305  PHE305     -0.1976
    161  CA       -36.5930  -12.3400   19.2230 C.3   305  PHE305      0.1639
    162  C        -37.1650  -13.7620   19.2990 C.2   305  PHE305      0.2290
    163  O        -38.3830  -13.9650   19.4990 O.2   305  PHE305     -0.2864
    164  CB       -36.4350  -11.9650   17.7530 C.3   305  PHE305      0.0560
    165  CG       -36.2060  -10.4890   17.4930 C.ar  305  PHE305     -0.0200
    166  CD1      -36.9380   -9.4970   18.1690 C.ar  305  PHE305     -0.0042
    167  CD2      -35.2900  -10.1060   16.5310 C.ar  305  PHE305     -0.0042
    168  CE1      -36.7260   -8.1440   17.8800 C.ar  305  PHE305     -0.0003
    169  CE2      -35.0790   -8.7620   16.2260 C.ar  305  PHE305     -0.0003
    170  CZ       -35.7930   -7.7850   16.9060 C.ar  305  PHE305     -0.0000
    171  N        -42.0240   -9.5870   25.6370 N.3   315  TYR315     -0.1227
    172  CA       -41.0260   -8.4920   25.7020 C.3   315  TYR315      0.1736
    173  C        -41.2340   -7.4310   24.6280 C.2   315  TYR315      0.2595
    174  O        -41.4160   -6.2320   24.9290 O.2   315  TYR315     -0.2718
    175  CB       -39.5840   -9.0530   25.6310 C.3   315  TYR315      0.0548
    176  CG       -38.5180   -8.0210   25.9670 C.ar  315  TYR315     -0.0200
    177  CD1      -38.0590   -7.1180   24.9990 C.ar  315  TYR315     -0.0009
    178  CD2      -37.9960   -7.9250   27.2620 C.ar  315  TYR315     -0.0009
    179  CE1      -37.0810   -6.1640   25.3100 C.ar  315  TYR315      0.0417
    180  CE2      -37.0210   -6.9870   27.5790 C.ar  315  TYR315      0.0417
    181  CZ       -36.5740   -6.1140   26.6030 C.ar  315  TYR315      0.1957
    182  OH       -35.6190   -5.1710   26.9430 O.3   315  TYR315     -0.2866
    183  N        -41.2140   -7.8610   23.3710 N.am  316  PHE316     -0.1976
    184  CA       -41.3170   -6.9520   22.2440 C.3   316  PHE316      0.1639
    185  C        -42.7790   -6.8370   21.8410 C.2   316  PHE316      0.2290
    186  O        -43.4710   -7.8360   21.7920 O.2   316  PHE316     -0.2864
    187  CB       -40.5110   -7.4860   21.0500 C.3   316  PHE316      0.0560
    188  CG       -39.0300   -7.6200   21.3270 C.ar  316  PHE316     -0.0200
    189  CD1      -38.1900   -6.5080   21.2580 C.ar  316  PHE316     -0.0042
    190  CD2      -38.4680   -8.8570   21.6390 C.ar  316  PHE316     -0.0042
    191  CE1      -36.8300   -6.6430   21.5130 C.ar  316  PHE316     -0.0003
    192  CE2      -37.1080   -8.9850   21.8900 C.ar  316  PHE316     -0.0003
    193  CZ       -36.2930   -7.8870   21.8310 C.ar  316  PHE316     -0.0000
@<TRIPOS>BOND
     1   134   135    1
     2   135   136    1
     3   135   138    1
     4   136   137    2
     5   126   125    2
     6   125   124    1
     7   138   139    1
     8   123   124    1
     9   124   127    1
    10   139   140    1
    11   127   128    1
    12   128   129    1
    13   140   142   ar
    14   140   141   ar
    15    85    84    1
    16    85    86    2
    17   132   131    1
    18   118   117    2
    19    84    87    1
    20    84    83    1
    21   129   130    1
    22   131   130    2
    23   131   133    1
    24   117   116    1
    25    87    88    1
    26   169   167   ar
    27   169   170   ar
    28   167   165   ar
    29    10     9   ar
    30    10     8   ar
    31    88    89    1
    32   116   115    1
    33   116   119    1
    34    89    90    1
    35   170   168   ar
    36     9     7   ar
    37   165   164    1
    38   165   166   ar
    39    91    90    1
    40     8     6   ar
    41   164   161    1
    42   168   166   ar
    43   121   120   ar
    44   147   148    1
    45   147   144    1
    46   119   120    1
    47     7     6   ar
    48   145   146    2
    49   145   144    1
    50   120   122   ar
    51     6     5    1
    52   144   143    1
    53   161   162    1
    54   161   160    1
    55   162   163    2
    56    78    77    2
    57     1     2    1
    58   160   151   am
    59    81    80   ar
    60    77    76    1
    61     5     2    1
    62     2     3    1
    63   187   188    1
    64   187   184    1
    65    80    82   ar
    66    80    79    1
    67   149   150    1
    68    76    79    1
    69    76    75    1
    70   151   150    1
    71   151   152    2
    72   189   188   ar
    73   189   191   ar
    74   188   190   ar
    75   191   193   ar
    76   190   192   ar
    77   186   185    2
    78   193   192   ar
    79   185   184    1
    80   150   153    1
    81     3     4    2
    82     3    11   am
    83    92    93    1
    84    75    69   am
    85    96    93    1
    86    96    97    1
    87   184   183    1
    88   153   154    1
    89    99    97   ar
    90    11    12    1
    91    69    70    2
    92    69    68    1
    93    93    94    1
    94    97    98   ar
    95    65    66   ar
    96    65    63   ar
    97   158   157    1
    98   154   155    1
    99   155   156    1
   100    66    64   ar
   101   183   173   am
   102    95    94    2
   103    63    62   ar
   104    67    68    1
   105    68    71    1
   106   157   156    2
   107   157   159    1
   108    16    18    1
   109    16    15    1
   110    12    15    1
   111    12    13    1
   112    64    62   ar
   113    62    61    1
   114    15    17    1
   115   173   174    2
   116   173   172    1
   117    13    14    2
   118   177   179   ar
   119   177   176   ar
   120    61    58    1
   121    71    72    1
   122   179   181   ar
   123    55    56   ar
   124    55    53   ar
   125    73    72    2
   126    56    54   ar
   127   113   112    1
   128   175   172    1
   129   175   176    1
   130   171   172    1
   131    60    59    2
   132    72    74   am
   133    58    59    1
   134    58    57    1
   135   176   178   ar
   136    49    48    2
   137    53    51   ar
   138   181   182    1
   139   181   180   ar
   140    54    52   ar
   141   112   114    1
   142   112   109    1
   143   100   101    1
   144   107   105   ar
   145    57    48   am
   146    48    47    1
   147   178   180   ar
   148    26    24    1
   149    51    52   ar
   150    51    50    1
   151   108   109    1
   152   108   102   am
   153   105   104    1
   154   105   106   ar
   155   104   101    1
   156   111   110    2
   157   109   110    1
   158   101   102    1
   159   102   103    2
   160    50    47    1
   161    36    37   ar
   162    36    34   ar
   163    47    46    1
   164    37    35   ar
   165    24    23    1
   166    25    23    1
   167    45    43    1
   168    23    20    1
   169    34    32   ar
   170    35    33   ar
   171    43    42    1
   172    44    42    1
   173    32    33   ar
   174    32    31    1
   175    42    39    1
   176    20    19    1
   177    20    21    1
   178    21    22    2
   179    21    27   am
   180    41    40    2
   181    31    28    1
   182    27    28    1
   183    39    40    1
   184    39    38    1
   185    28    29    1
   186    29    30    2
