@<TRIPOS>MOLECULE
tmp/4ocvA01.pdb
 226 215 0 0 0
SMALL
GASTEIGER

@<TRIPOS>ATOM
      1  N          7.2260   47.3050  -23.8930 N.3    24  TYR24      -0.1227
      2  CA         7.7230   46.2480  -24.7470 C.3    24  TYR24       0.1736
      3  C          6.7230   45.1040  -24.7970 C.2    24  TYR24       0.2596
      4  O          6.3140   44.5950  -23.7520 O.2    24  TYR24      -0.2718
      5  CB         9.0730   45.7560  -24.2160 C.3    24  TYR24       0.0548
      6  CG         9.8060   44.8320  -25.1550 C.ar   24  TYR24      -0.0200
      7  CD1       10.4000   45.3190  -26.3200 C.ar   24  TYR24      -0.0009
      8  CD2        9.9150   43.4770  -24.8740 C.ar   24  TYR24      -0.0009
      9  CE1       11.0800   44.4710  -27.1830 C.ar   24  TYR24       0.0417
     10  CE2       10.5960   42.6200  -25.7260 C.ar   24  TYR24       0.0417
     11  CZ        11.1700   43.1230  -26.8800 C.ar   24  TYR24       0.1957
     12  OH        11.8440   42.2710  -27.7200 O.3    24  TYR24      -0.2866
     13  N          6.3360   44.7050  -26.0100 N.am   25  GLY25      -0.1942
     14  CA         5.3600   43.6330  -26.2050 C.3    25  GLY25       0.2014
     15  C          3.9230   44.0780  -26.0060 C.2    25  GLY25       0.2639
     16  O          3.6450   45.2620  -25.7870 O.2    25  GLY25      -0.2714
     17  N          3.0030   43.1260  -26.1000 N.am   26  ASP26      -0.1957
     18  CA         1.5800   43.4200  -25.9590 C.3    26  ASP26       0.1840
     19  C          0.9400   42.4590  -24.9630 C.2    26  ASP26       0.2623
     20  O         -0.1930   42.0050  -25.1490 O.2    26  ASP26      -0.2715
     21  CB         0.8880   43.3380  -27.3230 C.3    26  ASP26       0.1450
     22  CG        -0.3760   44.1830  -27.3960 C.2    26  ASP26       0.3671
     23  OD1       -0.5240   45.1650  -26.6260 O.co2  26  ASP26      -0.2456
     24  OD2       -1.2300   43.8580  -28.2470 O.co2  26  ASP26      -0.2456
     25  N          1.6820   42.1580  -23.9000 N.am   27  GLY27      -0.1940
     26  CA         1.2250   41.2470  -22.8650 C.3    27  GLY27       0.2014
     27  C         -0.0640   41.6930  -22.2070 C.2    27  GLY27       0.2639
     28  O         -0.2960   42.8830  -22.0180 O.2    27  GLY27      -0.2714
     29  N         -0.9000   40.7180  -21.8520 N.am   28  HIS28      -0.1959
     30  CA        -2.1830   40.9830  -21.2090 C.3    28  HIS28       0.1787
     31  C         -2.1040   41.2020  -19.7260 C.2    28  HIS28       0.2620
     32  O         -3.0450   41.7370  -19.1550 O.2    28  HIS28      -0.2715
     33  CB        -3.1300   39.8000  -21.3940 C.3    28  HIS28       0.0785
     34  CG        -3.4200   39.4490  -22.8230 C.ar   28  HIS28       0.0821
     35  ND1       -3.6840   38.1870  -23.2110 N.ar   28  HIS28      -0.2267
     36  CD2       -3.4930   40.2390  -23.9660 C.ar   28  HIS28       0.1154
     37  CE1       -3.9230   38.1710  -24.5400 C.ar   28  HIS28       0.1986
     38  NE2       -3.8040   39.4280  -25.0000 N.ar   28  HIS28      -0.2212
     39  N         -1.0220   40.7460  -19.0890 N.am   29  ILE29      -0.1963
     40  CA        -1.0070   40.5650  -17.6260 C.3    29  ILE29       0.1727
     41  C         -0.0870   41.5480  -16.8980 C.2    29  ILE29       0.2616
     42  O         -0.5670   42.4670  -16.2220 O.2    29  ILE29      -0.2715
     43  CB        -0.6500   39.1060  -17.2290 C.3    29  ILE29       0.0290
     44  CG1       -1.5330   38.0910  -17.9770 C.3    29  ILE29       0.0022
     45  CG2       -0.7800   38.9060  -15.7160 C.3    29  ILE29       0.0023
     46  CD1       -3.0230   38.2460  -17.7520 C.3    29  ILE29       0.0001
     47  N          1.2190   41.3380  -17.0150 N.am   30  ASN30      -0.1972
     48  CA         2.1970   42.2230  -16.3820 C.3    30  ASN30       0.1688
     49  C          2.4550   43.4350  -17.2740 C.2    30  ASN30       0.2292
     50  O          2.0530   43.4510  -18.4390 O.2    30  ASN30      -0.2864
     51  CB         3.4870   41.4530  -16.0450 C.3    30  ASN30       0.1181
     52  CG         3.2580   40.3290  -15.0340 C.2    30  ASN30       0.2629
     53  OD1        2.4490   40.4530  -14.1140 O.2    30  ASN30      -0.2716
     54  ND2        3.9800   39.2230  -15.2000 N.am   30  ASN30      -0.0877
     55  N          5.3010   45.3670  -19.0710 N.3    32  THR32      -0.1218
     56  CA         6.6710   45.0610  -19.4520 C.3    32  THR32       0.1862
     57  C          7.3280   46.2050  -20.1950 C.2    32  THR32       0.2287
     58  O          6.7140   46.8280  -21.0710 O.2    32  THR32      -0.2866
     59  CB         6.7150   43.7840  -20.3060 C.3    32  THR32       0.1770
     60  OG1        6.1680   42.6970  -19.5420 O.3    32  THR32      -0.2211
     61  CG2        8.1430   43.4500  -20.7260 C.3    32  THR32       0.0375
     62  N         14.8650   43.6420  -19.2690 N.3    43  ILE43      -0.1245
     63  CA        13.4130   43.6870  -19.2110 C.3    43  ILE43       0.1561
     64  C         13.0470   44.0840  -17.7960 C.2    43  ILE43       0.2260
     65  O         13.4680   43.4210  -16.8440 O.2    43  ILE43      -0.2867
     66  CB        12.7840   42.3160  -19.5640 C.3    43  ILE43       0.0252
     67  CG1       12.9890   41.9980  -21.0610 C.3    43  ILE43       0.0019
     68  CG2       11.3190   42.2450  -19.1320 C.3    43  ILE43       0.0019
     69  CD1       12.2510   42.8930  -22.0380 C.3    43  ILE43       0.0001
     70  N          9.8110   44.6800  -15.3460 N.3    45  GLN45      -0.1245
     71  CA         8.4000   44.3120  -15.2880 C.3    45  GLN45       0.1566
     72  C          7.7380   44.7270  -14.0020 C.2    45  GLN45       0.2260
     73  O          8.2820   44.4780  -12.9200 O.2    45  GLN45      -0.2867
     74  CB         8.2350   42.8040  -15.4210 C.3    45  GLN45       0.0367
     75  CG         8.3960   42.2610  -16.8230 C.3    45  GLN45       0.0905
     76  CD         7.9100   40.8350  -16.9210 C.2    45  GLN45       0.2608
     77  OE1        8.2480   39.9910  -16.0830 O.2    45  GLN45      -0.2717
     78  NE2        7.1200   40.5500  -17.9530 N.am   45  GLN45      -0.0878
     79  N         -1.5840   38.3070   -9.3540 N.3    52  PHE52      -0.1241
     80  CA        -0.5950   37.5760   -8.5570 C.3    52  PHE52       0.1605
     81  C         -0.3680   38.2940   -7.2200 C.2    52  PHE52       0.2264
     82  O          0.6770   38.9230   -7.0300 O.2    52  PHE52      -0.2867
     83  CB         0.7410   37.5090   -9.3080 C.3    52  PHE52       0.0534
     84  CG         0.7010   36.7300  -10.5960 C.ar   52  PHE52      -0.0203
     85  CD1        0.5890   35.3420  -10.5820 C.ar   52  PHE52      -0.0042
     86  CD2        0.8280   37.3800  -11.8190 C.ar   52  PHE52      -0.0042
     87  CE1        0.5790   34.6170  -11.7640 C.ar   52  PHE52      -0.0003
     88  CE2        0.8150   36.6580  -13.0100 C.ar   52  PHE52      -0.0003
     89  CZ         0.6830   35.2760  -12.9760 C.ar   52  PHE52      -0.0000
     90  N         15.6960   32.8100  -17.8650 N.3    77  LEU77      -0.1245
     91  CA        15.5650   34.1720  -17.3560 C.3    77  LEU77       0.1561
     92  C         16.5730   34.3990  -16.2300 C.2    77  LEU77       0.2260
     93  O         16.6460   33.6050  -15.2910 O.2    77  LEU77      -0.2867
     94  CB        14.1360   34.4050  -16.8600 C.3    77  LEU77       0.0270
     95  CG        12.9860   34.4210  -17.8750 C.3    77  LEU77       0.0019
     96  CD1       11.6620   34.4330  -17.1310 C.3    77  LEU77       0.0001
     97  CD2       13.1050   35.6150  -18.8090 C.3    77  LEU77       0.0001
     98  N         10.3640   43.6040  -10.9720 N.3    97  ARG97      -0.1245
     99  CA        11.5040   42.7150  -11.1630 C.3    97  ARG97       0.1563
    100  C         12.2210   43.0550  -12.4590 C.2    97  ARG97       0.2260
    101  O         11.6450   43.7030  -13.3430 O.2    97  ARG97      -0.2867
    102  CB        11.0630   41.2410  -11.1650 C.3    97  ARG97       0.0307
    103  CG        10.0830   40.9030  -12.2820 C.3    97  ARG97       0.0489
    104  CD         9.5340   39.4910  -12.1500 C.3    97  ARG97       0.2205
    105  NE         8.6100   39.2090  -13.2460 N.pl3  97  ARG97      -0.0865
    106  CZ         7.7470   38.1950  -13.2550 C.cat  97  ARG97       0.5346
    107  NH1        7.6780   37.3550  -12.2400 N.pl3  97  ARG97       0.1354
    108  NH2        6.9670   38.0080  -14.3150 N.pl3  97  ARG97       0.1354
    109  N         14.8560   41.2400  -15.4930 N.3    99  TYR99      -0.1227
    110  CA        15.5840   40.1490  -16.1240 C.3    99  TYR99       0.1736
    111  C         16.5700   40.7110  -17.1380 C.2    99  TYR99       0.2595
    112  O         16.3100   41.7470  -17.7580 O.2    99  TYR99      -0.2718
    113  CB        14.6310   39.2180  -16.8860 C.3    99  TYR99       0.0548
    114  CG        13.5340   38.5490  -16.0910 C.ar   99  TYR99      -0.0200
    115  CD1       13.8310   37.6930  -15.0280 C.ar   99  TYR99      -0.0009
    116  CD2       12.1890   38.7230  -16.4430 C.ar   99  TYR99      -0.0009
    117  CE1       12.8140   37.0560  -14.3130 C.ar   99  TYR99       0.0417
    118  CE2       11.1670   38.0890  -15.7430 C.ar   99  TYR99       0.0417
    119  CZ        11.4860   37.2580  -14.6790 C.ar   99  TYR99       0.1957
    120  OH        10.4900   36.6180  -13.9710 O.3    99  TYR99      -0.2866
    121  N         17.6770   40.0130  -17.3590 N.am  100  LYS100     -0.1966
    122  CA        18.5400   40.3580  -18.4810 C.3   100  LYS100      0.1728
    123  C         17.7630   40.1640  -19.7770 C.2   100  LYS100      0.2616
    124  O         16.9620   39.2370  -19.8980 O.2   100  LYS100     -0.2715
    125  CB        19.7790   39.4770  -18.4910 C.3   100  LYS100      0.0311
    126  CG        20.6840   39.6830  -17.2920 C.3   100  LYS100      0.0038
    127  CD        21.9680   38.8910  -17.4550 C.3   100  LYS100      0.0206
    128  CE        22.8900   39.1370  -16.2760 C.3   100  LYS100      0.1093
    129  NZ        24.0200   38.1630  -16.2810 N.3   100  LYS100     -0.1314
    130  N         17.9770   41.0490  -20.7500 N.am  101  PHE101     -0.1960
    131  CA        17.3640   40.8500  -22.0590 C.3   101  PHE101      0.1771
    132  C         18.0650   39.7030  -22.7760 C.2   101  PHE101      0.2619
    133  O         19.2780   39.6810  -22.8900 O.2   101  PHE101     -0.2715
    134  CB        17.4460   42.1270  -22.8980 C.3   101  PHE101      0.0574
    135  CG        16.6330   42.0790  -24.1580 C.ar  101  PHE101     -0.0200
    136  CD1       15.2850   42.3820  -24.1370 C.ar  101  PHE101     -0.0042
    137  CD2       17.2200   41.7320  -25.3670 C.ar  101  PHE101     -0.0042
    138  CE1       14.5230   42.3420  -25.3010 C.ar  101  PHE101     -0.0003
    139  CE2       16.4680   41.6840  -26.5350 C.ar  101  PHE101     -0.0003
    140  CZ        15.1170   41.9820  -26.5010 C.ar  101  PHE101     -0.0000
    141  N         17.2850   38.7480  -23.2580 N.am  102  ILE102     -0.1977
    142  CA        17.8510   37.6180  -23.9750 C.3   102  ILE102      0.1596
    143  C         18.0610   38.0410  -25.4310 C.2   102  ILE102      0.2287
    144  O         17.1010   38.2560  -26.1750 O.2   102  ILE102     -0.2864
    145  CB        16.9720   36.3640  -23.8200 C.3   102  ILE102      0.0276
    146  CG1       16.8830   35.9980  -22.3300 C.3   102  ILE102      0.0022
    147  CG2       17.5550   35.2100  -24.6240 C.3   102  ILE102      0.0022
    148  CD1       15.9630   34.8450  -21.9930 C.3   102  ILE102      0.0001
    149  N         17.3450   36.9660  -30.4440 N.3   105  THR105     -0.1218
    150  CA        16.1700   36.0960  -30.4980 C.3   105  THR105      0.1862
    151  C         15.0470   36.6560  -31.3660 C.2   105  THR105      0.2287
    152  O         14.9980   37.8510  -31.6700 O.2   105  THR105     -0.2866
    153  CB        15.5860   35.7910  -29.0960 C.3   105  THR105      0.1770
    154  OG1       15.1090   37.0030  -28.4960 O.3   105  THR105     -0.2211
    155  CG2       16.6280   35.1450  -28.2000 C.3   105  THR105      0.0375
    156  N         10.7160   36.1520  -31.4990 N.3   107  SER107     -0.1217
    157  CA         9.5330   35.4740  -31.0280 C.3   107  SER107      0.1889
    158  C          8.3690   35.8150  -31.9260 C.2   107  SER107      0.2288
    159  O          8.4020   36.7990  -32.6830 O.2   107  SER107     -0.2866
    160  CB         9.2370   35.7870  -29.5680 C.3   107  SER107      0.2089
    161  OG         8.8790   37.1390  -29.4020 O.3   107  SER107     -0.2183
    162  N          1.0720   28.2270  -19.5620 N.3   205  ASP205     -0.1239
    163  CA         0.8010   29.3500  -20.4770 C.3   205  ASP205      0.1674
    164  C          1.6970   29.2050  -21.6870 C.2   205  ASP205      0.2266
    165  O          2.6070   29.9980  -21.9160 O.2   205  ASP205     -0.2867
    166  CB         1.0260   30.6870  -19.7690 C.3   205  ASP205      0.1410
    167  CG         0.4630   31.8690  -20.5350 C.2   205  ASP205      0.3668
    168  OD1        0.0280   31.7220  -21.6890 O.co2 205  ASP205     -0.2456
    169  OD2        0.4500   32.9680  -19.9580 O.co2 205  ASP205     -0.2456
    170  N          1.6260   29.5410  -24.9010 N.3   207  LYS207     -0.1245
    171  CA         1.4970   30.2420  -26.1730 C.3   207  LYS207      0.1561
    172  C          2.8660   30.4330  -26.8310 C.2   207  LYS207      0.2260
    173  O          3.9010   30.5160  -26.1520 O.2   207  LYS207     -0.2867
    174  CB         0.7190   31.5560  -26.0230 C.3   207  LYS207      0.0271
    175  CG         1.0910   32.4880  -24.8870 C.3   207  LYS207      0.0035
    176  CD         0.0940   33.6460  -24.9090 C.3   207  LYS207      0.0206
    177  CE         0.3280   34.6980  -23.8360 C.3   207  LYS207      0.1093
    178  NZ        -0.6930   35.7970  -23.9690 N.3   207  LYS207     -0.1314
    179  N          4.4410   32.8300  -28.2070 N.3   209  ASN209     -0.1225
    180  CA         5.2870   33.9750  -27.8950 C.3   209  ASN209      0.1785
    181  C          5.9910   33.8630  -26.5490 C.2   209  ASN209      0.2597
    182  O          6.7340   34.7630  -26.1540 O.2   209  ASN209     -0.2718
    183  CB         4.5620   35.3210  -28.0820 C.3   209  ASN209      0.1169
    184  CG         3.2970   35.4340  -27.2670 C.2   209  ASN209      0.2627
    185  OD1        3.0610   34.6610  -26.3350 O.2   209  ASN209     -0.2716
    186  ND2        2.4830   36.4190  -27.5970 N.am  209  ASN209     -0.0877
    187  N          5.7990   32.7370  -25.8670 N.am  210  ASN210     -0.1974
    188  CA         6.5680   32.4640  -24.6550 C.3   210  ASN210      0.1688
    189  C          7.7980   31.6010  -24.9170 C.2   210  ASN210      0.2292
    190  O          8.4630   31.1590  -23.9850 O.2   210  ASN210     -0.2864
    191  CB         5.6760   31.8800  -23.5500 C.3   210  ASN210      0.1181
    192  CG         4.8640   32.9380  -22.8500 C.2   210  ASN210      0.2629
    193  OD1        5.2400   34.1170  -22.8340 O.2   210  ASN210     -0.2716
    194  ND2        3.7400   32.5380  -22.2710 N.am  210  ASN210     -0.0877
    195  N         11.4360   31.9710  -26.9200 N.3   212  LEU212     -0.1245
    196  CA        12.3670   32.7510  -27.7210 C.3   212  LEU212      0.1561
    197  C         13.1870   31.8210  -28.6100 C.2   212  LEU212      0.2260
    198  O         13.7980   30.8640  -28.1330 O.2   212  LEU212     -0.2867
    199  CB        13.2680   33.5930  -26.8250 C.3   212  LEU212      0.0270
    200  CG        12.5380   34.5930  -25.9220 C.3   212  LEU212      0.0019
    201  CD1       13.5660   35.3270  -25.0750 C.3   212  LEU212      0.0001
    202  CD2       11.6920   35.5730  -26.7310 C.3   212  LEU212      0.0001
    203  N         10.1020   31.5070  -21.6850 N.3   224  ILE224     -0.1231
    204  CA         9.9460   32.6350  -20.7920 C.3   224  ILE224      0.1692
    205  C          8.5510   32.5750  -20.1440 C.2   224  ILE224      0.2592
    206  O          7.8000   31.6060  -20.3320 O.2   224  ILE224     -0.2718
    207  CB        10.2490   33.9720  -21.5090 C.3   224  ILE224      0.0266
    208  CG1        9.2530   34.2050  -22.6650 C.3   224  ILE224      0.0019
    209  CG2       11.6980   33.9890  -22.0150 C.3   224  ILE224      0.0020
    210  CD1        9.3540   35.5670  -23.3110 C.3   224  ILE224      0.0001
    211  N          8.2300   33.5970  -19.3720 N.am  225  ASP225     -0.1974
    212  CA         6.9840   33.6630  -18.6140 C.3   225  ASP225      0.1709
    213  C          6.7670   32.4470  -17.7220 C.2   225  ASP225      0.2293
    214  O          5.9390   31.5770  -18.0170 O.2   225  ASP225     -0.2864
    215  CB         5.7820   33.8720  -19.5400 C.3   225  ASP225      0.1436
    216  CG         4.4770   34.0070  -18.7780 C.2   225  ASP225      0.3671
    217  OD1        4.5030   34.1130  -17.5230 O.co2 225  ASP225     -0.2456
    218  OD2        3.4190   34.0030  -19.4330 O.co2 225  ASP225     -0.2456
    219  N          5.6350   32.3810  -14.6950 N.3   227  ASP227     -0.1239
    220  CA         4.7540   32.7600  -13.5870 C.3   227  ASP227      0.1674
    221  C          3.6780   31.7630  -13.2070 C.2   227  ASP227      0.2266
    222  O          3.1600   31.8340  -12.0990 O.2   227  ASP227     -0.2867
    223  CB         4.0740   34.1040  -13.8690 C.3   227  ASP227      0.1410
    224  CG         5.0460   35.2580  -13.9130 C.2   227  ASP227      0.3668
    225  OD1        6.1790   35.1330  -13.3950 O.co2 227  ASP227     -0.2456
    226  OD2        4.6520   36.3010  -14.4690 O.co2 227  ASP227     -0.2456
@<TRIPOS>BOND
     1   159   158    2
     2   158   157    1
     3   152   151    2
     4   156   157    1
     5   151   150    1
     6   157   160    1
     7   150   149    1
     8   150   153    1
     9   160   161    1
    10   153   154    1
    11   153   155    1
    12   197   198    2
    13   197   196    1
    14    24    22   ar
    15   179   180    1
    16   183   180    1
    17   183   184    1
    18   180   181    1
    19   196   195    1
    20   196   199    1
    21    12    11    1
    22   186   184   am
    23    22    21    1
    24    22    23   ar
    25    21    18    1
    26   184   185    2
    27     9    11   ar
    28     9     7   ar
    29    11    10   ar
    30   172   171    1
    31   172   173    2
    32   199   200    1
    33   202   200    1
    34   181   182    2
    35   181   187   am
    36   139   140   ar
    37   139   137   ar
    38   140   138   ar
    39     7     6   ar
    40    14    13    1
    41    14    15    1
    42   144   143    2
    43   171   174    1
    44   171   170    1
    45    17    15   am
    46    17    18    1
    47   174   175    1
    48    13     3   am
    49    15    16    2
    50    18    19    1
    51   200   201    1
    52   187   188    1
    53    10     8   ar
    54   143   142    1
    55   137   135   ar
    56   138   136   ar
    57     6     8   ar
    58     6     5    1
    59    20    19    2
    60    38    37   ar
    61    38    36   ar
    62    19    25   am
    63   189   188    1
    64   189   190    2
    65   176   175    1
    66   176   177    1
    67     3     2    1
    68     3     4    2
    69     2     5    1
    70     2     1    1
    71   188   191    1
    72   147   145    1
    73    37    35   ar
    74   135   136   ar
    75   135   134    1
    76   142   145    1
    77   142   141    1
    78   178   177    1
    79    36    34   ar
    80    25    26    1
    81   145   146    1
    82   191   192    1
    83   210   208    1
    84   141   132   am
    85    35    34   ar
    86   134   131    1
    87   133   132    2
    88    26    27    1
    89   192   193    2
    90   192   194   am
    91    34    33    1
    92   132   131    1
    93   208   207    1
    94   146   148    1
    95    27    28    2
    96    27    29   am
    97   131   130    1
    98    69    67    1
    99   209   207    1
   100   165   164    2
   101    29    30    1
   102   168   167   ar
   103   164   163    1
   104   203   204    1
   105   207   204    1
   106    33    30    1
   107    30    31    1
   108    58    57    2
   109    67    66    1
   110   204   205    1
   111   130   123   am
   112    61    59    1
   113   167   169   ar
   114   167   166    1
   115   163   166    1
   116   163   162    1
   117   206   205    2
   118    59    60    1
   119    59    56    1
   120    57    56    1
   121   205   211   am
   122   124   123    2
   123   123   122    1
   124    31    32    2
   125    31    39   am
   126    66    63    1
   127    66    68    1
   128   215   216    1
   129   215   212    1
   130    56    55    1
   131   218   216   ar
   132   211   212    1
   133    62    63    1
   134    63    64    1
   135    39    40    1
   136    97    95    1
   137   216   217   ar
   138   212   213    1
   139   125   122    1
   140   125   126    1
   141   122   121    1
   142    50    49    2
   143   214   213    2
   144    44    46    1
   145    44    43    1
   146    78    76   am
   147    95    96    1
   148    95    94    1
   149    90    91    1
   150    64    65    2
   151   112   111    2
   152    40    43    1
   153    40    41    1
   154   127   126    1
   155   127   128    1
   156   121   111   am
   157    91    94    1
   158    91    92    1
   159    49    48    1
   160    43    45    1
   161   111   110    1
   162    47    41   am
   163    47    48    1
   164    76    75    1
   165    76    77    2
   166    41    42    2
   167   113   110    1
   168   113   114    1
   169    75    74    1
   170   116   114   ar
   171   116   118   ar
   172    48    51    1
   173   129   128    1
   174    92    93    2
   175   110   109    1
   176   114   115   ar
   177    51    52    1
   178   118   119   ar
   179    74    71    1
   180    70    71    1
   181    71    72    1
   182    54    52   am
   183    52    53    2
   184   115   117   ar
   185   219   220    1
   186   119   117   ar
   187   119   120    1
   188   226   224   ar
   189   108   106    1
   190    72    73    2
   191   224   223    1
   192   224   225   ar
   193   223   220    1
   194   220   221    1
   195   101   100    2
   196   106   105    2
   197   106   107    1
   198   105   104    1
   199   221   222    2
   200    88    89   ar
   201    88    86   ar
   202    89    87   ar
   203   100    99    1
   204   103   104    1
   205   103   102    1
   206    86    84   ar
   207    87    85   ar
   208   102    99    1
   209    99    98    1
   210    84    85   ar
   211    84    83    1
   212    79    80    1
   213    83    80    1
   214    80    81    1
   215    81    82    2
