@<TRIPOS>MOLECULE
tmp/4ocxB00.pdb
 97 91 0 0 0
SMALL
GASTEIGER

@<TRIPOS>ATOM
      1  N         48.5540   51.4940   13.2240 N.3    31  HIS31      -0.1241
      2  CA        47.8660   52.2540   12.1790 C.3    31  HIS31       0.1621
      3  C         47.9400   53.7550   12.5400 C.2    31  HIS31       0.2264
      4  O         48.1480   54.0810   13.7070 O.2    31  HIS31      -0.2867
      5  CB        46.4040   51.7890   12.0610 C.3    31  HIS31       0.0745
      6  CG        45.6930   52.3160   10.8540 C.ar   31  HIS31       0.0817
      7  ND1       45.9620   51.8320    9.5930 N.ar   31  HIS31      -0.2268
      8  CD2       44.7200   53.2510   10.7630 C.ar   31  HIS31       0.1154
      9  CE1       45.1490   52.4790    8.7740 C.ar   31  HIS31       0.1986
     10  NE2       44.3790   53.3410    9.4370 N.ar   31  HIS31      -0.2212
     11  N         45.9990   55.9550   13.3790 N.3    33  ASN33      -0.1240
     12  CA        45.1060   56.3660   14.4760 C.3    33  ASN33       0.1653
     13  C         45.6190   55.8720   15.8510 C.2    33  ASN33       0.2266
     14  O         44.9540   56.0480   16.8770 O.2    33  ASN33      -0.2867
     15  CB        43.6770   55.8580   14.2020 C.3    33  ASN33       0.1155
     16  CG        43.5220   54.3480   14.0990 C.2    33  ASN33       0.2627
     17  OD1       44.4790   53.5670   14.1650 O.2    33  ASN33      -0.2716
     18  ND2       42.2960   53.8990   13.9610 N.am   33  ASN33      -0.0877
     19  N         46.0220   52.7100   16.6790 N.3    35  ASN35      -0.1240
     20  CA        45.5130   51.3710   16.9840 C.3    35  ASN35       0.1653
     21  C         46.3100   50.2920   16.2800 C.2    35  ASN35       0.2266
     22  O         46.7780   50.5000   15.1660 O.2    35  ASN35      -0.2867
     23  CB        44.0300   51.2490   16.6170 C.3    35  ASN35       0.1155
     24  CG        43.0850   52.1660   17.3640 C.2    35  ASN35       0.2627
     25  OD1       43.4440   52.8420   18.3280 O.2    35  ASN35      -0.2716
     26  ND2       41.8320   52.1860   16.9420 N.am   35  ASN35      -0.0877
     27  N         45.7890   46.6530   14.8060 N.3    37  TYR37      -0.1241
     28  CA        44.7840   45.6980   14.3590 C.3    37  TYR37       0.1605
     29  C         45.3870   44.3050   14.1710 C.2    37  TYR37       0.2264
     30  O         45.4310   43.7640   13.0700 O.2    37  TYR37      -0.2867
     31  CB        44.0340   46.2310   13.1210 C.3    37  TYR37       0.0534
     32  CG        43.3410   47.5520   13.3950 C.ar   37  TYR37      -0.0201
     33  CD1       42.0470   47.5910   13.9160 C.ar   37  TYR37      -0.0009
     34  CD2       43.9840   48.7650   13.1510 C.ar   37  TYR37      -0.0009
     35  CE1       41.4090   48.8000   14.1830 C.ar   37  TYR37       0.0417
     36  CE2       43.3550   49.9820   13.4200 C.ar   37  TYR37       0.0417
     37  CZ        42.0710   49.9910   13.9430 C.ar   37  TYR37       0.1957
     38  OH        41.4470   51.1780   14.2130 O.3    37  TYR37      -0.2866
     39  N         45.0030   40.4070   15.1360 N.3    39  GLU39      -0.1245
     40  CA        43.9500   39.4400   15.4290 C.3    39  GLU39       0.1567
     41  C         44.4280   38.0020   15.4420 C.2    39  GLU39       0.2260
     42  O         45.3540   37.6490   14.7040 O.2    39  GLU39      -0.2867
     43  CB        42.8190   39.5890   14.3880 C.3    39  GLU39       0.0388
     44  CG        42.2890   41.0080   14.3580 C.3    39  GLU39       0.1160
     45  CD        41.4810   41.4720   13.1820 C.2    39  GLU39       0.3649
     46  OE1       41.4230   42.7060   12.9820 O.co2  39  GLU39      -0.2457
     47  OE2       40.8730   40.6240   12.4900 O.co2  39  GLU39      -0.2457
     48  N         42.9120   33.9620   15.1170 N.3    41  TYR41      -0.1241
     49  CA        41.8560   33.0770   14.6320 C.3    41  TYR41       0.1605
     50  C         42.1790   31.6400   14.9130 C.2    41  TYR41       0.2264
     51  O         43.3430   31.2570   14.9030 O.2    41  TYR41      -0.2867
     52  CB        41.6210   33.2430   13.1130 C.3    41  TYR41       0.0534
     53  CG        41.0760   34.6030   12.7320 C.ar   41  TYR41      -0.0201
     54  CD1       39.7100   34.8060   12.5630 C.ar   41  TYR41      -0.0009
     55  CD2       41.9300   35.6880   12.5290 C.ar   41  TYR41      -0.0009
     56  CE1       39.2020   36.0610   12.2280 C.ar   41  TYR41       0.0417
     57  CE2       41.4370   36.9410   12.1850 C.ar   41  TYR41       0.0417
     58  CZ        40.0700   37.1290   12.0600 C.ar   41  TYR41       0.1957
     59  OH        39.5870   38.3680   11.7380 O.3    41  TYR41      -0.2866
     60  N         42.3740   43.5400   17.9610 N.3    55  LYS55      -0.1245
     61  CA        43.0480   44.7120   18.5500 C.3    55  LYS55       0.1561
     62  C         44.0440   44.2860   19.6570 C.2    55  LYS55       0.2260
     63  O         44.0360   44.8430   20.7550 O.2    55  LYS55      -0.2867
     64  CB        42.0540   45.8140   19.0170 C.3    55  LYS55       0.0271
     65  CG        41.1790   46.3960   17.8840 C.3    55  LYS55       0.0035
     66  CD        40.7720   47.8590   18.1070 C.3    55  LYS55       0.0206
     67  CE        39.5350   48.0570   18.9630 C.3    55  LYS55       0.1093
     68  NZ        38.2620   47.9390   18.1960 N.3    55  LYS55      -0.1314
     69  N         46.7240   37.7040   12.2500 N.3    94  PHE94      -0.1241
     70  CA        46.3180   38.5250   11.1330 C.3    94  PHE94       0.1605
     71  C         46.5210   39.9650   11.4950 C.2    94  PHE94       0.2264
     72  O         46.2510   40.3510   12.6270 O.2    94  PHE94      -0.2867
     73  CB        44.8260   38.2490   10.8150 C.3    94  PHE94       0.0534
     74  CG        44.1320   39.2080    9.8740 C.ar   94  PHE94      -0.0203
     75  CD1       44.0470   38.9340    8.5130 C.ar   94  PHE94      -0.0042
     76  CD2       43.5450   40.3770   10.3520 C.ar   94  PHE94      -0.0042
     77  CE1       43.3800   39.8140    7.6430 C.ar   94  PHE94      -0.0003
     78  CE2       42.9040   41.2620    9.4870 C.ar   94  PHE94      -0.0003
     79  CZ        42.7990   40.9620    8.1460 C.ar   94  PHE94      -0.0000
     80  N         45.5250   43.9730   10.2960 N.3    96  GLY96      -0.1210
     81  CA        44.6650   44.8280    9.4910 C.3    96  GLY96       0.1956
     82  C         45.1030   46.2820    9.4860 C.2    96  GLY96       0.2612
     83  O         44.3510   47.1450    9.0490 O.2    96  GLY96      -0.2717
     84  N         46.3180   46.5670    9.9660 N.am   97  SER97      -0.1952
     85  CA        46.8760   47.9200   10.0630 C.3    97  SER97       0.1924
     86  C         47.4190   48.5050    8.7460 C.2    97  SER97       0.2314
     87  O         47.3790   49.7090    8.5810 O.2    97  SER97      -0.2863
     88  CB        47.9500   47.9630   11.1370 C.3    97  SER97       0.2116
     89  OG        47.4040   47.7250   12.4220 O.3    97  SER97      -0.2180
     90  N         46.0290   43.5600    3.8580 N.3   101  LEU101     -0.1245
     91  CA        45.7700   42.9560    5.1720 C.3   101  LEU101      0.1561
     92  C         46.3450   41.5230    5.0340 C.2   101  LEU101      0.2260
     93  O         46.1700   40.9070    3.9770 O.2   101  LEU101     -0.2867
     94  CB        44.2410   42.9550    5.4190 C.3   101  LEU101      0.0270
     95  CG        43.5970   44.2140    6.0160 C.3   101  LEU101      0.0019
     96  CD1       44.1490   45.5030    5.4540 C.3   101  LEU101      0.0001
     97  CD2       42.1150   44.1740    5.9190 C.3   101  LEU101      0.0001
@<TRIPOS>BOND
     1    90    91    1
     2    93    92    2
     3    92    91    1
     4    91    94    1
     5    94    95    1
     6    96    95    1
     7    97    95    1
     8    77    79   ar
     9    77    75   ar
    10    79    78   ar
    11    75    74   ar
    12    87    86    2
    13    86    85    1
    14     9    10   ar
    15     9     7   ar
    16    83    82    2
    17    10     8   ar
    18    82    81    1
    19    82    84   am
    20    78    76   ar
    21    81    80    1
    22     7     6   ar
    23    74    76   ar
    24    74    73    1
    25    84    85    1
    26    85    88    1
    27     8     6   ar
    28    73    70    1
    29     6     5    1
    30    70    71    1
    31    70    69    1
    32    88    89    1
    33    71    72    2
    34    59    58    1
    35    58    57   ar
    36    58    56   ar
    37     5     2    1
    38     2     3    1
    39     2     1    1
    40    57    55   ar
    41    56    54   ar
    42    47    45   ar
    43    55    53   ar
    44     3     4    2
    45    54    53   ar
    46    53    52    1
    47    46    45   ar
    48    30    29    2
    49    52    49    1
    50    31    32    1
    51    31    28    1
    52    34    32   ar
    53    34    36   ar
    54    45    44    1
    55    11    12    1
    56    32    33   ar
    57    36    37   ar
    58    33    35   ar
    59    37    35   ar
    60    37    38    1
    61    18    16   am
    62    16    17    2
    63    16    15    1
    64    29    28    1
    65    15    12    1
    66    44    43    1
    67    28    27    1
    68    43    40    1
    69    12    13    1
    70    49    50    1
    71    49    48    1
    72    42    41    2
    73    51    50    2
    74    39    40    1
    75    22    21    2
    76    40    41    1
    77    13    14    2
    78    21    20    1
    79    23    20    1
    80    23    24    1
    81    19    20    1
    82    26    24   am
    83    24    25    2
    84    65    66    1
    85    65    64    1
    86    60    61    1
    87    66    67    1
    88    68    67    1
    89    61    64    1
    90    61    62    1
    91    62    63    2
