@<TRIPOS>MOLECULE
tmp/4ocxA00.pdb
 101 99 0 0 0
SMALL
GASTEIGER

@<TRIPOS>ATOM
      1  N         29.1960   49.7420   10.6670 N.3    32  PRO32      -0.2102
      2  CA        30.6650   49.6950   10.5610 C.3    32  PRO32       0.1504
      3  C         31.2890   48.3190   10.9380 C.2    32  PRO32       0.2576
      4  O         30.6680   47.5380   11.6710 O.2    32  PRO32      -0.2718
      5  CB        31.1320   50.8530   11.4580 C.3    32  PRO32       0.0282
      6  CG        29.9920   51.1400   12.3490 C.3    32  PRO32       0.0208
      7  CD        28.7430   50.7130   11.6860 C.3    32  PRO32       0.0893
      8  N         32.4880   47.9830   10.4010 N.am   33  TYR33      -0.1963
      9  CA        33.2940   48.8390    9.5220 C.3    33  TYR33       0.1771
     10  C         33.4620   48.2740    8.1260 C.2    33  TYR33       0.2619
     11  O         33.1630   48.9660    7.1530 O.2    33  TYR33      -0.2715
     12  CB        34.6690   49.1720   10.1640 C.3    33  TYR33       0.0574
     13  CG        35.5570   50.0050    9.2640 C.ar   33  TYR33      -0.0198
     14  CD1       35.4160   51.3900    9.1990 C.ar   33  TYR33      -0.0009
     15  CD2       36.5070   49.4060    8.4390 C.ar   33  TYR33      -0.0009
     16  CE1       36.1830   52.1540    8.3210 C.ar   33  TYR33       0.0417
     17  CE2       37.2750   50.1590    7.5550 C.ar   33  TYR33       0.0417
     18  CZ        37.1210   51.5350    7.5100 C.ar   33  TYR33       0.1957
     19  OH        37.9060   52.2820    6.6650 O.3    33  TYR33      -0.2866
     20  N         34.0020   47.0390    8.0180 N.am   34  ALA34      -0.1977
     21  CA        34.3240   46.4290    6.7220 C.3    34  ALA34       0.1597
     22  C         33.6190   45.1390    6.4790 C.2    34  ALA34       0.2287
     23  O         33.2920   44.4250    7.4260 O.2    34  ALA34      -0.2864
     24  CB        35.8220   46.2230    6.6100 C.3    34  ALA34       0.0319
     25  N         34.3770   41.9590    4.1430 N.3    36  ASN36      -0.1240
     26  CA        35.4850   41.3070    3.4210 C.3    36  ASN36       0.1653
     27  C         35.1880   40.1110    2.5720 C.2    36  ASN36       0.2266
     28  O         34.2440   39.3650    2.8050 O.2    36  ASN36      -0.2867
     29  CB        36.5620   40.8350    4.4080 C.3    36  ASN36       0.1155
     30  CG        37.0920   41.8360    5.3690 C.2    36  ASN36       0.2627
     31  OD1       37.7750   42.7950    4.9970 O.2    36  ASN36      -0.2716
     32  ND2       36.9370   41.5350    6.6450 N.am   36  ASN36      -0.0877
     33  N         43.4340   37.7690    2.1480 N.3    48  TRP48      -0.1241
     34  CA        42.3880   38.7720    2.2360 C.3    48  TRP48       0.1605
     35  C         42.3290   39.4040    0.8470 C.2    48  TRP48       0.2264
     36  O         43.3090   39.9900    0.3800 O.2    48  TRP48      -0.2867
     37  CB        42.6960   39.7940    3.3430 C.3    48  TRP48       0.0550
     38  CG        41.9360   41.0900    3.2090 C.ar   48  TRP48       0.0003
     39  CD1       40.6830   41.3580    3.6760 C.ar   48  TRP48       0.0946
     40  CD2       42.3710   42.2770    2.5220 C.ar   48  TRP48       0.0152
     41  NE1       40.3240   42.6470    3.3550 N.ar   48  TRP48      -0.2442
     42  CE2       41.3440   43.2360    2.6550 C.ar   48  TRP48       0.0810
     43  CE3       43.5380   42.6260    1.8110 C.ar   48  TRP48       0.0012
     44  CZ2       41.4450   44.5230    2.1040 C.ar   48  TRP48       0.0191
     45  CZ3       43.6420   43.9010    1.2730 C.ar   48  TRP48       0.0001
     46  CH2       42.6060   44.8330    1.4170 C.ar   48  TRP48       0.0015
     47  N         37.8580   44.4830    0.7400 N.3    51  TYR51      -0.1241
     48  CA        36.6410   44.8240    1.4570 C.3    51  TYR51       0.1605
     49  C         35.9090   46.0250    0.8660 C.2    51  TYR51       0.2264
     50  O         36.5140   46.8530    0.1820 O.2    51  TYR51      -0.2867
     51  CB        36.8760   45.0100    2.9760 C.3    51  TYR51       0.0534
     52  CG        37.6370   46.2480    3.4220 C.ar   51  TYR51      -0.0201
     53  CD1       37.0290   47.5050    3.4240 C.ar   51  TYR51      -0.0009
     54  CD2       38.9020   46.1420    3.9910 C.ar   51  TYR51      -0.0009
     55  CE1       37.6960   48.6300    3.9060 C.ar   51  TYR51       0.0417
     56  CE2       39.5720   47.2570    4.4820 C.ar   51  TYR51       0.0417
     57  CZ        38.9710   48.5000    4.4290 C.ar   51  TYR51       0.1957
     58  OH        39.6230   49.5820    4.9680 O.3    51  TYR51      -0.2866
     59  N         31.2820   50.1220    5.2830 N.3    54  TYR54      -0.1241
     60  CA        29.8810   50.4080    5.5950 C.3    54  TYR54       0.1605
     61  C         29.3550   51.6030    4.7930 C.2    54  TYR54       0.2264
     62  O         28.1480   51.7500    4.6630 O.2    54  TYR54      -0.2867
     63  CB        29.6860   50.6300    7.0990 C.3    54  TYR54       0.0534
     64  CG        30.2750   51.9010    7.6660 C.ar   54  TYR54      -0.0201
     65  CD1       31.6530   52.0990    7.7050 C.ar   54  TYR54      -0.0009
     66  CD2       29.4560   52.8800    8.2360 C.ar   54  TYR54      -0.0009
     67  CE1       32.2010   53.2710    8.2310 C.ar   54  TYR54       0.0417
     68  CE2       29.9920   54.0520    8.7700 C.ar   54  TYR54       0.0417
     69  CZ        31.3660   54.2330    8.7840 C.ar   54  TYR54       0.1957
     70  OH        31.9010   55.3730    9.3230 O.3    54  TYR54      -0.2866
     71  N         33.3370   37.8530    5.2340 N.3    97  SER97      -0.1217
     72  CA        33.4180   38.1500    6.6390 C.3    97  SER97       0.1889
     73  C         33.1250   39.6250    6.9210 C.2    97  SER97       0.2288
     74  O         32.9910   40.4220    5.9950 O.2    97  SER97      -0.2866
     75  CB        34.7730   37.7170    7.1940 C.3    97  SER97       0.2089
     76  OG        35.8480   38.5530    6.7990 O.3    97  SER97      -0.2183
     77  N         34.0970   43.0350    9.7700 N.3    99  TYR99      -0.1241
     78  CA        34.9480   43.5470   10.8380 C.3    99  TYR99       0.1605
     79  C         34.3860   44.8610   11.3930 C.2    99  TYR99       0.2264
     80  O         33.9650   45.7430   10.6460 O.2    99  TYR99      -0.2867
     81  CB        36.4170   43.7430   10.3930 C.3    99  TYR99       0.0534
     82  CG        37.2760   44.2490   11.5340 C.ar   99  TYR99      -0.0201
     83  CD1       37.6390   43.4070   12.5810 C.ar   99  TYR99      -0.0009
     84  CD2       37.6000   45.6020   11.6440 C.ar   99  TYR99      -0.0009
     85  CE1       38.3340   43.8830   13.6870 C.ar   99  TYR99       0.0417
     86  CE2       38.2970   46.0910   12.7520 C.ar   99  TYR99       0.0417
     87  CZ        38.6580   45.2270   13.7720 C.ar   99  TYR99       0.1957
     88  OH        39.3340   45.6860   14.8770 O.3    99  TYR99      -0.2866
     89  N         34.0790   47.1750   15.5990 N.3   101  ASN101     -0.1240
     90  CA        34.4060   47.3410   17.0100 C.3   101  ASN101      0.1653
     91  C         34.0020   46.1310   17.8650 C.2   101  ASN101      0.2266
     92  O         34.5430   45.9420   18.9440 O.2   101  ASN101     -0.2867
     93  CB        33.8080   48.6540   17.5210 C.3   101  ASN101      0.1155
     94  CG        34.3050   49.0880   18.8740 C.2   101  ASN101      0.2627
     95  OD1       35.5150   49.2710   19.0970 O.2   101  ASN101     -0.2716
     96  ND2       33.3710   49.2570   19.8120 N.am  101  ASN101     -0.0877
     97  N         34.7250   40.2420   14.6240 N.3   104  ALA104     -0.1245
     98  CA        34.4980   39.7550   13.2620 C.3   104  ALA104      0.1562
     99  C         33.5980   38.5550   13.2420 C.2   104  ALA104      0.2260
    100  O         33.6760   37.7330   14.1440 O.2   104  ALA104     -0.2867
    101  CB        35.8330   39.3970   12.6040 C.3   104  ALA104      0.0290
@<TRIPOS>BOND
     1    50    49    2
     2    36    35    2
     3    47    48    1
     4    35    34    1
     5    49    48    1
     6    45    46   ar
     7    45    43   ar
     8    46    44   ar
     9    48    51    1
    10    43    40   ar
    11    44    42   ar
    12    33    34    1
    13    34    37    1
    14    40    42   ar
    15    40    38   ar
    16    27    28    2
    17    27    26    1
    18    42    41   ar
    19    51    52    1
    20    38    37    1
    21    38    39   ar
    22    41    39   ar
    23    26    25    1
    24    26    29    1
    25    52    53   ar
    26    52    54   ar
    27    53    55   ar
    28    55    57   ar
    29    54    56   ar
    30    29    30    1
    31    57    56   ar
    32    57    58    1
    33    62    61    2
    34    61    60    1
    35    31    30    2
    36    71    72    1
    37    59    60    1
    38    30    32   am
    39    60    63    1
    40    74    73    2
    41    22    21    1
    42    22    23    2
    43    24    21    1
    44    72    73    1
    45    72    75    1
    46    19    18    1
    47    21    20    1
    48    76    75    1
    49    63    64    1
    50    11    10    2
    51    18    17   ar
    52    18    16   ar
    53    17    15   ar
    54    64    65   ar
    55    64    66   ar
    56    65    67   ar
    57    20    10   am
    58    10     9    1
    59    67    69   ar
    60    66    68   ar
    61    16    14   ar
    62    15    13   ar
    63    68    69   ar
    64    69    70    1
    65    14    13   ar
    66    13    12    1
    67     9    12    1
    68     9     8    1
    69    77    78    1
    70    81    78    1
    71    81    82    1
    72     8     3   am
    73     2     1    1
    74     2     3    1
    75     2     5    1
    76    80    79    2
    77     1     7    1
    78    78    79    1
    79     3     4    2
    80     5     6    1
    81    82    84   ar
    82    82    83   ar
    83    84    86   ar
    84     7     6    1
    85    83    85   ar
    86   101    98    1
    87    86    87   ar
    88    99    98    1
    89    99   100    2
    90    98    97    1
    91    85    87   ar
    92    87    88    1
    93    89    90    1
    94    90    93    1
    95    90    91    1
    96    93    94    1
    97    91    92    2
    98    94    95    2
    99    94    96   am
