@<TRIPOS>MOLECULE
tmp/4oczA00.pdb
 197 192 0 0 0
SMALL
GASTEIGER

@<TRIPOS>ATOM
      1  N         20.0340   15.1550   16.0400 N.3   267  PHE267     -0.1241
      2  CA        21.1210   14.2030   15.9870 C.3   267  PHE267      0.1605
      3  C         21.6890   14.3060   14.6050 C.2   267  PHE267      0.2264
      4  O         20.9310   14.6110   13.6980 O.2   267  PHE267     -0.2867
      5  CB        20.6890   12.7970   16.2930 C.3   267  PHE267      0.0534
      6  CG        21.8180   11.8700   16.3940 C.ar  267  PHE267     -0.0203
      7  CD1       22.0320   10.9090   15.4300 C.ar  267  PHE267     -0.0042
      8  CD2       22.7180   12.0020   17.4160 C.ar  267  PHE267     -0.0042
      9  CE1       23.1250   10.0630   15.5060 C.ar  267  PHE267     -0.0003
     10  CE2       23.8100   11.1600   17.5160 C.ar  267  PHE267     -0.0003
     11  CZ        24.0180   10.1870   16.5580 C.ar  267  PHE267     -0.0000
     12  N         14.6030   17.6070   15.5680 N.3   335  ASP335     -0.1225
     13  CA        15.0170   16.3010   15.9990 C.3   335  ASP335      0.1805
     14  C         15.2060   16.3460   17.5120 C.2   335  ASP335      0.2597
     15  O         14.2700   16.6970   18.2140 O.2   335  ASP335     -0.2718
     16  CB        16.2480   15.9170   15.2170 C.3   335  ASP335      0.1424
     17  CG        16.6730   14.4940   15.4500 C.2   335  ASP335      0.3668
     18  OD1       17.8340   14.2850   15.8530 O.co2 335  ASP335     -0.2456
     19  OD2       15.8480   13.5840   15.2320 O.co2 335  ASP335     -0.2456
     20  N         16.3850   16.0430   18.0360 N.am  336  TRP336     -0.1976
     21  CA        16.5730   16.1390   19.4900 C.3   336  TRP336      0.1640
     22  C         16.3120   17.5140   20.0100 C.2   336  TRP336      0.2290
     23  O         15.6050   17.6680   21.0060 O.2   336  TRP336     -0.2864
     24  CB        17.9620   15.7020   19.9000 C.3   336  TRP336      0.0576
     25  CG        17.9960   14.2360   20.1090 C.ar  336  TRP336      0.0006
     26  CD1       18.3460   13.2710   19.1880 C.ar  336  TRP336      0.0946
     27  CD2       17.5980   13.4960   21.3110 C.ar  336  TRP336      0.0152
     28  NE1       18.2180   12.0110   19.7230 N.ar  336  TRP336     -0.2442
     29  CE2       17.7800   12.0740   20.9960 C.ar  336  TRP336      0.0810
     30  CE3       17.1510   13.8480   22.5690 C.ar  336  TRP336      0.0012
     31  CZ2       17.5310   11.0720   21.9290 C.ar  336  TRP336      0.0191
     32  CZ3       16.8890   12.8230   23.4900 C.ar  336  TRP336      0.0001
     33  CH2       17.0720   11.4690   23.1700 C.ar  336  TRP336      0.0015
     34  N         12.6220   17.9760   21.2040 N.3   339  MET339     -0.1245
     35  CA        12.2630   17.5540   22.5510 C.3   339  MET339      0.1570
     36  C         12.7920   18.4900   23.6390 C.2   339  MET339      0.2261
     37  O         12.1020   18.7930   24.5860 O.2   339  MET339     -0.2867
     38  CB        12.7430   16.1140   22.7690 C.3   339  MET339      0.0387
     39  CG        13.0790   15.7230   24.1930 C.3   339  MET339      0.0595
     40  SD        13.2070   13.9270   24.3020 S.3   339  MET339     -0.1393
     41  CE        13.3580   13.5980   26.0720 C.3   339  MET339      0.0692
     42  N          9.8690   16.6670   15.6650 N.3   360  THR360     -0.1204
     43  CA         9.8230   16.0350   16.9840 C.3   360  THR360      0.1979
     44  C          8.5850   16.4240   17.7500 C.2   360  THR360      0.2459
     45  O          8.4790   17.5880   18.1290 O.2   360  THR360     -0.2732
     46  CB        10.9760   16.4900   17.8640 C.3   360  THR360      0.1783
     47  OG1       12.1310   16.6900   17.0510 O.3   360  THR360     -0.2211
     48  CG2       11.2480   15.4670   18.9520 C.3   360  THR360      0.0376
     49  N          7.6580   15.4620   18.0040 N.am  361  PRO361     -0.2728
     50  CA         6.4550   15.7290   18.8050 C.3   361  PRO361      0.1401
     51  C          6.7120   15.7950   20.3140 C.2   361  PRO361      0.2269
     52  O          7.8310   15.5380   20.7940 O.2   361  PRO361     -0.2865
     53  CB         5.5840   14.5060   18.5260 C.3   361  PRO361      0.0296
     54  CG         6.5660   13.4130   18.3590 C.3   361  PRO361      0.0237
     55  CD         7.7260   14.0360   17.6280 C.3   361  PRO361      0.0939
     56  N          5.5770   13.8260   23.4850 N.3   363  ILE363     -0.1245
     57  CA         4.8950   12.6950   24.0790 C.3   363  ILE363      0.1561
     58  C          5.1410   12.7870   25.5850 C.2   363  ILE363      0.2260
     59  O          6.2940   12.9680   26.0160 O.2   363  ILE363     -0.2867
     60  CB         5.3700   11.3500   23.4680 C.3   363  ILE363      0.0252
     61  CG1        5.0400   11.3350   21.9700 C.3   363  ILE363      0.0019
     62  CG2        4.7400   10.1650   24.1950 C.3   363  ILE363      0.0019
     63  CD1        5.6840   10.2140   21.1980 C.3   363  ILE363      0.0001
     64  N         12.1640    2.0560   16.1030 N.3   381  PHE381     -0.1241
     65  CA        13.0400    2.6340   17.1350 C.3   381  PHE381      0.1605
     66  C         14.1680    1.6520   17.5100 C.2   381  PHE381      0.2264
     67  O         14.9560    1.9420   18.4120 O.2   381  PHE381     -0.2867
     68  CB        12.2460    3.0990   18.3950 C.3   381  PHE381      0.0534
     69  CG        11.5570    4.4840   18.2760 C.ar  381  PHE381     -0.0203
     70  CD1       12.0830    5.5300   17.4930 C.ar  381  PHE381     -0.0042
     71  CD2       10.3900    4.7530   19.0120 C.ar  381  PHE381     -0.0042
     72  CE1       11.4500    6.7670   17.4300 C.ar  381  PHE381     -0.0003
     73  CE2        9.7600    5.9930   18.9430 C.ar  381  PHE381     -0.0003
     74  CZ        10.2930    6.9960   18.1540 C.ar  381  PHE381     -0.0000
     75  N         16.9600    1.1940   16.1770 N.3   383  TYR383     -0.1227
     76  CA        18.2640    1.8580   16.1160 C.3   383  TYR383      0.1736
     77  C         18.6880    2.4680   17.4690 C.2   383  TYR383      0.2595
     78  O         19.8740    2.5240   17.7930 O.2   383  TYR383     -0.2718
     79  CB        18.2800    2.9370   15.0150 C.3   383  TYR383      0.0548
     80  CG        17.4630    4.1170   15.4010 C.ar  383  TYR383     -0.0200
     81  CD1       18.0340    5.1710   16.0950 C.ar  383  TYR383     -0.0009
     82  CD2       16.1060    4.1440   15.1500 C.ar  383  TYR383     -0.0009
     83  CE1       17.2760    6.2410   16.5050 C.ar  383  TYR383      0.0417
     84  CE2       15.3340    5.2080   15.5500 C.ar  383  TYR383      0.0417
     85  CZ        15.9220    6.2590   16.2330 C.ar  383  TYR383      0.1957
     86  OH        15.1580    7.3250   16.6520 O.3   383  TYR383     -0.2866
     87  N         17.7310    2.9330   18.2600 N.am  384  GLN384     -0.1979
     88  CA        18.0950    3.5860   19.5080 C.3   384  GLN384      0.1601
     89  C         18.7740    2.5940   20.4540 C.2   384  GLN384      0.2287
     90  O         19.6060    2.9900   21.2480 O.2   384  GLN384     -0.2864
     91  CB        16.8880    4.2600   20.1670 C.3   384  GLN384      0.0394
     92  CG        16.2280    5.3210   19.2920 C.3   384  GLN384      0.0908
     93  CD        15.0180    6.0020   19.9310 C.2   384  GLN384      0.2608
     94  OE1       14.0020    6.2670   19.2660 O.2   384  GLN384     -0.2717
     95  NE2       15.1240    6.2970   21.2230 N.am  384  GLN384     -0.0878
     96  N         22.3150    2.2460   19.7360 N.3   387  PHE387     -0.1241
     97  CA        23.1130    3.4000   20.2240 C.3   387  PHE387      0.1605
     98  C         23.4600    3.4040   21.7270 C.2   387  PHE387      0.2264
     99  O         24.1180    4.3420   22.2010 O.2   387  PHE387     -0.2867
    100  CB        22.3830    4.7410   19.9320 C.3   387  PHE387      0.0534
    101  CG        22.2900    5.1310   18.4690 C.ar  387  PHE387     -0.0203
    102  CD1       23.0770    4.5600   17.4940 C.ar  387  PHE387     -0.0042
    103  CD2       21.4210    6.1420   18.0890 C.ar  387  PHE387     -0.0042
    104  CE1       22.9570    4.9530   16.1710 C.ar  387  PHE387     -0.0003
    105  CE2       21.3190    6.5560   16.7710 C.ar  387  PHE387     -0.0003
    106  CZ        22.0860    5.9550   15.8140 C.ar  387  PHE387     -0.0000
    107  N         30.5290    5.2050   13.1310 N.3   397  LEU397     -0.1245
    108  CA        30.2060    6.5070   12.6140 C.3   397  LEU397      0.1561
    109  C         31.4910    7.2550   12.3240 C.2   397  LEU397      0.2260
    110  O         31.6150    7.9040   11.2920 O.2   397  LEU397     -0.2867
    111  CB        29.3590    7.2540   13.6240 C.3   397  LEU397      0.0270
    112  CG        28.0180    6.6030   13.9120 C.3   397  LEU397      0.0019
    113  CD1       27.5490    6.9740   15.3120 C.3   397  LEU397      0.0001
    114  CD2       27.0180    6.9810   12.8230 C.3   397  LEU397      0.0001
    115  N         23.6380   10.0020    5.4540 N.3   408  LEU408     -0.1245
    116  CA        22.5660   10.3930    6.3240 C.3   408  LEU408      0.1561
    117  C         21.7490   11.4640    5.6900 C.2   408  LEU408      0.2260
    118  O         20.5190   11.3560    5.6160 O.2   408  LEU408     -0.2867
    119  CB        23.1220   10.9170    7.6450 C.3   408  LEU408      0.0270
    120  CG        23.6320    9.8560    8.6300 C.3   408  LEU408      0.0019
    121  CD1       23.9520   10.4920    9.9710 C.3   408  LEU408      0.0001
    122  CD2       22.6460    8.7130    8.8030 C.3   408  LEU408      0.0001
    123  N         19.7150    4.6500    3.3010 N.3   417  LEU417     -0.1245
    124  CA        19.7880    4.3570    4.7540 C.3   417  LEU417      0.1561
    125  C         18.4640    3.9570    5.4030 C.2   417  LEU417      0.2260
    126  O         17.5590    4.7770    5.5490 O.2   417  LEU417     -0.2867
    127  CB        20.3680    5.5150    5.5470 C.3   417  LEU417      0.0270
    128  CG        20.7090    4.9730    6.9250 C.3   417  LEU417      0.0019
    129  CD1       21.7650    3.8830    6.7780 C.3   417  LEU417      0.0001
    130  CD2       21.1720    6.0890    7.8360 C.3   417  LEU417      0.0001
    131  N         24.6860    0.4730   11.5010 N.3   428  LEU428     -0.1245
    132  CA        23.7950    1.4220   10.8880 C.3   428  LEU428      0.1561
    133  C         23.9360    1.3750    9.3540 C.2   428  LEU428      0.2260
    134  O         22.9420    1.4980    8.6310 O.2   428  LEU428     -0.2867
    135  CB        24.1340    2.8010   11.4240 C.3   428  LEU428      0.0270
    136  CG        23.2870    3.9970   11.0180 C.3   428  LEU428      0.0019
    137  CD1       21.8170    3.8240   11.3560 C.3   428  LEU428      0.0001
    138  CD2       23.8530    5.2090   11.7360 C.3   428  LEU428      0.0001
    139  N         21.1910    9.8250   23.7000 N.3   466  TYR466     -0.1241
    140  CA        20.2880    8.6530   23.6350 C.3   466  TYR466      0.1605
    141  C         20.4760    7.7260   24.8220 C.2   466  TYR466      0.2264
    142  O         19.9050    6.6300   24.8740 O.2   466  TYR466     -0.2867
    143  CB        20.5840    7.8000   22.3990 C.3   466  TYR466      0.0534
    144  CG        20.1830    8.3410   21.0400 C.ar  466  TYR466     -0.0201
    145  CD1       18.9730    7.9830   20.4770 C.ar  466  TYR466     -0.0009
    146  CD2       21.0470    9.1430   20.2820 C.ar  466  TYR466     -0.0009
    147  CE1       18.5970    8.4370   19.2200 C.ar  466  TYR466      0.0417
    148  CE2       20.6820    9.5930   19.0170 C.ar  466  TYR466      0.0417
    149  CZ        19.4500    9.2270   18.4900 C.ar  466  TYR466      0.1957
    150  OH        19.0190    9.6530   17.2550 O.3   466  TYR466     -0.2866
    151  N         10.8270    8.2850   10.8290 N.3   498  VAL498     -0.1231
    152  CA        10.9440    8.0650   12.2820 C.3   498  VAL498      0.1692
    153  C         10.0930    9.0630   13.1100 C.2   498  VAL498      0.2591
    154  O          9.2490    8.6490   13.9130 O.2   498  VAL498     -0.2718
    155  CB        12.4230    7.9460   12.7600 C.3   498  VAL498      0.0266
    156  CG1       13.3910    8.5200   11.7350 C.3   498  VAL498      0.0020
    157  CG2       12.6140    8.5820   14.1300 C.3   498  VAL498      0.0020
    158  N         10.2890   10.3600   12.9000 N.am  499  LEU499     -0.1980
    159  CA         9.4230   11.3710   13.5110 C.3   499  LEU499      0.1596
    160  C          8.1840   11.5220   12.6110 C.2   499  LEU499      0.2287
    161  O          7.8950   12.5740   11.9850 O.2   499  LEU499     -0.2864
    162  CB        10.1650   12.6940   13.7680 C.3   499  LEU499      0.0297
    163  CG        11.4950   12.5760   14.5490 C.3   499  LEU499      0.0022
    164  CD1       12.2100   13.9290   14.7470 C.3   499  LEU499      0.0001
    165  CD2       11.2690   11.8330   15.8700 C.3   499  LEU499      0.0001
    166  N          2.4840   10.3420   15.2540 N.3   503  MET503     -0.1245
    167  CA         3.0240   10.4190   16.6050 C.3   503  MET503      0.1570
    168  C          2.6580   11.7010   17.3430 C.2   503  MET503      0.2261
    169  O          2.5940   11.7000   18.5760 O.2   503  MET503     -0.2867
    170  CB         4.5440   10.3070   16.5690 C.3   503  MET503      0.0387
    171  CG         5.0990    8.9390   16.1880 C.3   503  MET503      0.0595
    172  SD         6.9090    8.8790   16.3520 S.3   503  MET503     -0.1393
    173  CE         7.1020    8.6730   18.1260 C.3   503  MET503      0.0692
    174  N         13.4410   13.6370    6.7000 N.3   524  HIS524     -0.1226
    175  CA        13.7430   13.9490    8.0810 C.3   524  HIS524      0.1752
    176  C         14.5800   15.2010    8.2870 C.2   524  HIS524      0.2596
    177  O         14.4340   15.8990    9.2810 O.2   524  HIS524     -0.2718
    178  CB        14.4240   12.7430    8.6810 C.3   524  HIS524      0.0759
    179  CG        15.0080   13.0030   10.0230 C.ar  524  HIS524      0.0818
    180  ND1       14.3210   12.8020   11.1430 N.ar  524  HIS524     -0.2268
    181  CD2       16.2640   13.4750   10.3970 C.ar  524  HIS524      0.1154
    182  CE1       15.1000   13.1170   12.1920 C.ar  524  HIS524      0.1986
    183  NE2       16.2890   13.5290   11.7280 N.ar  524  HIS524     -0.2212
    184  N         15.4440   15.4990    7.3320 N.am  525  TRP525     -0.1976
    185  CA        16.3400   16.6470    7.3890 C.3   525  TRP525      0.1640
    186  C         15.6380   17.9060    6.9670 C.2   525  TRP525      0.2290
    187  O         16.0450   18.5650    6.0190 O.2   525  TRP525     -0.2864
    188  CB        17.5580   16.3570    6.5070 C.3   525  TRP525      0.0576
    189  CG        18.0830   14.9990    6.8760 C.ar  525  TRP525      0.0006
    190  CD1       17.9040   13.7910    6.2010 C.ar  525  TRP525      0.0946
    191  CD2       18.7870   14.6490    8.0970 C.ar  525  TRP525      0.0152
    192  NE1       18.4830   12.7570    6.8840 N.ar  525  TRP525     -0.2442
    193  CE2       19.0220   13.1960    8.0340 C.ar  525  TRP525      0.0810
    194  CE3       19.2590   15.3720    9.1980 C.ar  525  TRP525      0.0012
    195  CZ2       19.6930   12.5240    9.0300 C.ar  525  TRP525      0.0191
    196  CZ3       19.9230   14.6890   10.2000 C.ar  525  TRP525      0.0001
    197  CH2       20.1440   13.2950   10.1170 C.ar  525  TRP525      0.0015
@<TRIPOS>BOND
     1   123   124    1
     2   124   125    1
     3   124   127    1
     4   125   126    2
     5   115   116    1
     6   127   128    1
     7   118   117    2
     8   117   116    1
     9   187   186    2
    10   190   189   ar
    11   190   192   ar
    12   116   119    1
    13   188   189    1
    14   188   185    1
    15   174   175    1
    16   129   128    1
    17   189   191   ar
    18   192   193   ar
    19   128   130    1
    20   186   185    1
    21   184   185    1
    22   184   176   am
    23   119   120    1
    24   193   191   ar
    25   193   195   ar
    26   175   176    1
    27   175   178    1
    28   191   194   ar
    29   176   177    2
    30   120   122    1
    31   120   121    1
    32   134   133    2
    33   178   179    1
    34   195   197   ar
    35   194   196   ar
    36   133   132    1
    37   179   181   ar
    38   179   180   ar
    39   197   196   ar
    40   181   183   ar
    41   151   152    1
    42   132   135    1
    43   132   131    1
    44   136   137    1
    45   136   135    1
    46   136   138    1
    47   180   182   ar
    48   110   109    2
    49   183   182   ar
    50   156   155    1
    51   161   160    2
    52   152   155    1
    53   152   153    1
    54   109   108    1
    55   160   159    1
    56   108   107    1
    57   108   111    1
    58   155   157    1
    59   114   112    1
    60   158   153   am
    61   158   159    1
    62   153   154    2
    63   159   162    1
    64   111   112    1
    65     4     3    2
    66   162   163    1
    67   112   113    1
    68   163   164    1
    69   163   165    1
    70     3     2    1
    71    79    80    1
    72    79    76    1
    73    82    80   ar
    74    82    84   ar
    75    16    17    1
    76    16    13    1
    77    19    17   ar
    78   166   167    1
    79    80    81   ar
    80     7     9   ar
    81     7     6   ar
    82    17    18   ar
    83     9    11   ar
    84    84    85   ar
    85    12    13    1
    86    42    43    1
    87   106   104   ar
    88   106   105   ar
    89     2     1    1
    90     2     5    1
    91    13    14    1
    92    81    83   ar
    93    64    65    1
    94    76    75    1
    95    76    77    1
    96   104   102   ar
    97   171   172    1
    98   171   170    1
    99    85    83   ar
   100    85    86    1
   101     5     6    1
   102   172   173    1
   103     6     8   ar
   104    11    10   ar
   105   170   167    1
   106   167   168    1
   107   105   103   ar
   108    43    44    1
   109    43    46    1
   110    47    46    1
   111    65    66    1
   112    65    68    1
   113   150   149    1
   114   168   169    2
   115     8    10   ar
   116    72    70   ar
   117    72    74   ar
   118    77    78    2
   119    77    87   am
   120    70    69   ar
   121   102   101   ar
   122    66    67    2
   123    14    20   am
   124    14    15    2
   125    55    49    1
   126    55    54    1
   127    44    49   am
   128    44    45    2
   129    46    48    1
   130    49    50    1
   131    20    21    1
   132   103   101   ar
   133    74    73   ar
   134    87    88    1
   135    69    68    1
   136    69    71   ar
   137    54    53    1
   138   101   100    1
   139   149   148   ar
   140   149   147   ar
   141    53    50    1
   142    50    51    1
   143    73    71   ar
   144   148   146   ar
   145    26    28   ar
   146    26    25   ar
   147   147   145   ar
   148    94    93    2
   149    92    93    1
   150    92    91    1
   151    21    24    1
   152    21    22    1
   153    88    91    1
   154    88    89    1
   155    28    29   ar
   156    96    97    1
   157    24    25    1
   158    93    95   am
   159   100    97    1
   160    22    23    2
   161    25    27   ar
   162    97    98    1
   163   146   144   ar
   164    51    52    2
   165    89    90    2
   166   145   144   ar
   167    29    27   ar
   168    29    31   ar
   169   144   143    1
   170    63    61    1
   171    34    35    1
   172    27    30   ar
   173    98    99    2
   174    31    33   ar
   175    61    60    1
   176   143   140    1
   177    35    38    1
   178    35    36    1
   179    30    32   ar
   180    38    39    1
   181    33    32   ar
   182    60    57    1
   183    60    62    1
   184    56    57    1
   185   140   139    1
   186   140   141    1
   187    36    37    2
   188    57    58    1
   189    39    40    1
   190    40    41    1
   191   141   142    2
   192    58    59    2
