@<TRIPOS>MOLECULE
tmp/4od0A00.pdb
 220 214 0 0 0
SMALL
GASTEIGER

@<TRIPOS>ATOM
      1  N         20.0480   15.4190   16.1110 N.3   267  PHE267     -0.1228
      2  CA        21.1010   14.4600   15.9900 C.3   267  PHE267      0.1721
      3  C         21.2410   14.1010   14.5420 C.2   267  PHE267      0.2437
      4  O         20.2140   13.9600   13.8770 O.2   267  PHE267     -0.2733
      5  CB        20.7140   13.1990   16.7160 C.3   267  PHE267      0.0547
      6  CG        21.7080   12.1280   16.5590 C.ar  267  PHE267     -0.0202
      7  CD1       21.5740   11.1930   15.5470 C.ar  267  PHE267     -0.0042
      8  CD2       22.8130   12.0810   17.3970 C.ar  267  PHE267     -0.0042
      9  CE1       22.5200   10.2020   15.3810 C.ar  267  PHE267     -0.0003
     10  CE2       23.7590   11.0970   17.2520 C.ar  267  PHE267     -0.0003
     11  CZ        23.6170   10.1560   16.2360 C.ar  267  PHE267     -0.0000
     12  N         22.4840   13.9860   14.0240 N.am  268  PRO268     -0.2729
     13  CA        23.7930   14.4290   14.4730 C.3   268  PRO268      0.1401
     14  C         24.2580   15.6580   13.6800 C.2   268  PRO268      0.2269
     15  O         24.8770   15.5110   12.6360 O.2   268  PRO268     -0.2865
     16  CB        24.6640   13.2550   14.0970 C.3   268  PRO268      0.0296
     17  CG        24.0720   12.7930   12.8080 C.3   268  PRO268      0.0237
     18  CD        22.6180   13.1460   12.8260 C.3   268  PRO268      0.0939
     19  N         14.2000   17.6780   15.5690 N.3   335  ASP335     -0.1225
     20  CA        14.7210   16.3640   15.9840 C.3   335  ASP335      0.1805
     21  C         14.9930   16.4600   17.4930 C.2   335  ASP335      0.2597
     22  O         14.1400   16.9610   18.2390 O.2   335  ASP335     -0.2718
     23  CB        15.9550   16.0180   15.1300 C.3   335  ASP335      0.1424
     24  CG        16.5620   14.6650   15.4580 C.2   335  ASP335      0.3668
     25  OD1       17.5510   14.6400   16.2100 O.co2 335  ASP335     -0.2456
     26  OD2       16.0760   13.6220   14.9750 O.co2 335  ASP335     -0.2456
     27  N         16.1590   16.0570   17.9730 N.am  336  TRP336     -0.1976
     28  CA        16.3710   16.1300   19.4250 C.3   336  TRP336      0.1640
     29  C         16.1410   17.4920   20.0070 C.2   336  TRP336      0.2290
     30  O         15.6710   17.5970   21.1290 O.2   336  TRP336     -0.2864
     31  CB        17.7640   15.6580   19.8150 C.3   336  TRP336      0.0576
     32  CG        17.7780   14.2020   20.0930 C.ar  336  TRP336      0.0006
     33  CD1       18.1370   13.2070   19.2360 C.ar  336  TRP336      0.0946
     34  CD2       17.3560   13.5270   21.3170 C.ar  336  TRP336      0.0152
     35  NE1       17.9820   11.9810   19.8280 N.ar  336  TRP336     -0.2442
     36  CE2       17.5230   12.1040   21.0740 C.ar  336  TRP336      0.0810
     37  CE3       16.8740   13.9370   22.5280 C.ar  336  TRP336      0.0012
     38  CZ2       17.2330   11.1510   22.0330 C.ar  336  TRP336      0.0191
     39  CZ3       16.5780   12.9660   23.4910 C.ar  336  TRP336      0.0001
     40  CH2       16.7620   11.6090   23.2490 C.ar  336  TRP336      0.0015
     41  N         12.6120   18.2320   21.1310 N.3   339  MET339     -0.1245
     42  CA        12.1930   17.6720   22.4120 C.3   339  MET339      0.1570
     43  C         12.5860   18.5880   23.5430 C.2   339  MET339      0.2261
     44  O         11.7570   18.9730   24.3580 O.2   339  MET339     -0.2867
     45  CB        12.8340   16.3230   22.6410 C.3   339  MET339      0.0387
     46  CG        12.6580   15.7580   24.0400 C.3   339  MET339      0.0595
     47  SD        12.6630   13.9590   23.9390 S.3   339  MET339     -0.1393
     48  CE        12.9990   13.4740   25.6450 C.3   339  MET339      0.0692
     49  N          9.5980   16.8980   15.6690 N.3   360  THR360     -0.1204
     50  CA         9.5090   16.3500   17.0260 C.3   360  THR360      0.1979
     51  C          8.1930   16.7020   17.7370 C.2   360  THR360      0.2459
     52  O          7.9580   17.8650   18.0470 O.2   360  THR360     -0.2732
     53  CB        10.6850   16.8060   17.9160 C.3   360  THR360      0.1783
     54  OG1       11.9240   16.4790   17.2720 O.3   360  THR360     -0.2211
     55  CG2       10.6160   16.1360   19.2660 C.3   360  THR360      0.0376
     56  N          7.3440   15.6850   18.0070 N.am  361  PRO361     -0.2728
     57  CA         6.1180   15.8810   18.7720 C.3   361  PRO361      0.1401
     58  C          6.3880   15.9640   20.2630 C.2   361  PRO361      0.2269
     59  O          7.4740   15.6550   20.7150 O.2   361  PRO361     -0.2865
     60  CB         5.3340   14.6060   18.4900 C.3   361  PRO361      0.0296
     61  CG         6.3850   13.5800   18.3880 C.3   361  PRO361      0.0237
     62  CD         7.5660   14.2540   17.7350 C.3   361  PRO361      0.0939
     63  N          5.4220   14.1690   23.4470 N.3   363  ILE363     -0.1245
     64  CA         4.7380   13.0320   24.0200 C.3   363  ILE363      0.1561
     65  C          5.0360   13.0070   25.5070 C.2   363  ILE363      0.2260
     66  O          6.2100   13.1380   25.9030 O.2   363  ILE363     -0.2867
     67  CB         5.1480   11.7170   23.3550 C.3   363  ILE363      0.0252
     68  CG1        4.6270   11.7010   21.9180 C.3   363  ILE363      0.0019
     69  CG2        4.5670   10.5520   24.1390 C.3   363  ILE363      0.0019
     70  CD1        5.2330   10.6270   21.0510 C.3   363  ILE363      0.0001
     71  N         12.1170    2.3870   15.6880 N.3   381  PHE381     -0.1241
     72  CA        13.0130    2.9440   16.6800 C.3   381  PHE381      0.1605
     73  C         14.1690    2.0000   17.0480 C.2   381  PHE381      0.2264
     74  O         14.8810    2.2780   18.0040 O.2   381  PHE381     -0.2867
     75  CB        12.2180    3.3020   17.9490 C.3   381  PHE381      0.0534
     76  CG        11.5090    4.6500   17.9070 C.ar  381  PHE381     -0.0203
     77  CD1       11.6280    5.5330   16.8200 C.ar  381  PHE381     -0.0042
     78  CD2       10.7430    5.0590   19.0110 C.ar  381  PHE381     -0.0042
     79  CE1       10.9730    6.7630   16.8330 C.ar  381  PHE381     -0.0003
     80  CE2       10.1010    6.2830   19.0250 C.ar  381  PHE381     -0.0003
     81  CZ        10.2170    7.1360   17.9380 C.ar  381  PHE381     -0.0000
     82  N         17.1470    1.5000   15.8420 N.3   383  TYR383     -0.1227
     83  CA        18.4070    2.2530   15.8630 C.3   383  TYR383      0.1736
     84  C         18.6850    2.8480   17.2440 C.2   383  TYR383      0.2595
     85  O         19.8410    2.9420   17.6560 O.2   383  TYR383     -0.2718
     86  CB        18.4020    3.3740   14.8110 C.3   383  TYR383      0.0548
     87  CG        17.4770    4.4930   15.1850 C.ar  383  TYR383     -0.0200
     88  CD1       17.9420    5.5950   15.9040 C.ar  383  TYR383     -0.0009
     89  CD2       16.1390    4.4340   14.8710 C.ar  383  TYR383     -0.0009
     90  CE1       17.0920    6.6110   16.2840 C.ar  383  TYR383      0.0417
     91  CE2       15.2830    5.4460   15.2410 C.ar  383  TYR383      0.0417
     92  CZ        15.7570    6.5230   15.9500 C.ar  383  TYR383      0.1957
     93  OH        14.8800    7.5170   16.3060 O.3   383  TYR383     -0.2866
     94  N         17.6340    3.2560   17.9520 N.am  384  GLN384     -0.1979
     95  CA        17.8060    3.8110   19.2880 C.3   384  GLN384      0.1601
     96  C         18.4830    2.7860   20.1860 C.2   384  GLN384      0.2287
     97  O         19.4850    3.1020   20.8100 O.2   384  GLN384     -0.2864
     98  CB        16.4800    4.3080   19.8830 C.3   384  GLN384      0.0394
     99  CG        15.8020    5.3940   19.0430 C.3   384  GLN384      0.0908
    100  CD        14.6090    6.0800   19.7170 C.2   384  GLN384      0.2608
    101  OE1       13.7560    6.6700   19.0360 O.2   384  GLN384     -0.2717
    102  NE2       14.5490    6.0220   21.0490 N.am  384  GLN384     -0.0878
    103  N         22.1240    2.2800   19.6170 N.3   387  PHE387     -0.1241
    104  CA        22.9440    3.3980   20.1550 C.3   387  PHE387      0.1605
    105  C         23.2400    3.3230   21.6650 C.2   387  PHE387      0.2264
    106  O         24.0200    4.1400   22.1810 O.2   387  PHE387     -0.2867
    107  CB        22.2500    4.7440   19.9150 C.3   387  PHE387      0.0534
    108  CG        22.1500    5.1680   18.4710 C.ar  387  PHE387     -0.0203
    109  CD1       22.8400    4.5300   17.4630 C.ar  387  PHE387     -0.0042
    110  CD2       21.3720    6.2720   18.1390 C.ar  387  PHE387     -0.0042
    111  CE1       22.7310    4.9630   16.1550 C.ar  387  PHE387     -0.0003
    112  CE2       21.2670    6.7120   16.8320 C.ar  387  PHE387     -0.0003
    113  CZ        21.9450    6.0550   15.8350 C.ar  387  PHE387     -0.0000
    114  N         30.0750    5.1990   13.1830 N.3   397  LEU397     -0.1245
    115  CA        29.8330    6.5780   12.7940 C.3   397  LEU397      0.1561
    116  C         31.1140    7.3500   12.5120 C.2   397  LEU397      0.2260
    117  O         31.1780    8.0880   11.5410 O.2   397  LEU397     -0.2867
    118  CB        28.9880    7.2650   13.8770 C.3   397  LEU397      0.0270
    119  CG        27.5140    6.8350   13.8100 C.3   397  LEU397      0.0019
    120  CD1       26.7690    7.1260   15.0980 C.3   397  LEU397      0.0001
    121  CD2       26.8600    7.5200   12.6170 C.3   397  LEU397      0.0001
    122  N         23.5690    9.8570    5.6500 N.3   408  LEU408     -0.1245
    123  CA        22.5010   10.3050    6.5380 C.3   408  LEU408      0.1561
    124  C         21.6230   11.3320    5.8710 C.2   408  LEU408      0.2260
    125  O         20.3950   11.2240    5.8620 O.2   408  LEU408     -0.2867
    126  CB        23.0990   10.9780    7.7540 C.3   408  LEU408      0.0270
    127  CG        23.5880   10.1020    8.8840 C.3   408  LEU408      0.0019
    128  CD1       24.0680   11.0290    9.9830 C.3   408  LEU408      0.0001
    129  CD2       22.4990    9.1580    9.3820 C.3   408  LEU408      0.0001
    130  N         19.2900    4.5970    3.9940 N.3   417  LEU417     -0.1245
    131  CA        19.2470    4.0840    5.3850 C.3   417  LEU417      0.1561
    132  C         17.8750    3.6310    5.8660 C.2   417  LEU417      0.2260
    133  O         17.0710    4.4360    6.3290 O.2   417  LEU417     -0.2867
    134  CB        19.8070    5.0940    6.3810 C.3   417  LEU417      0.0270
    135  CG        21.3080    5.3390    6.3130 C.3   417  LEU417      0.0019
    136  CD1       21.6960    6.2590    7.4610 C.3   417  LEU417      0.0001
    137  CD2       22.1070    4.0440    6.3560 C.3   417  LEU417      0.0001
    138  N         15.9600    1.8680    8.8690 N.3   419  MET419     -0.1245
    139  CA        16.2030    2.1030   10.2870 C.3   419  MET419      0.1570
    140  C         15.7600    0.9360   11.1980 C.2   419  MET419      0.2261
    141  O         15.8770    0.9980   12.4240 O.2   419  MET419     -0.2867
    142  CB        15.4950    3.3980   10.6800 C.3   419  MET419      0.0387
    143  CG        16.3330    4.2700   11.5870 C.3   419  MET419      0.0595
    144  SD        17.6770    5.0850   10.7110 S.3   419  MET419     -0.1393
    145  CE        16.7480    6.4050    9.9090 C.3   419  MET419      0.0692
    146  N         24.4330    0.5030   11.3670 N.3   428  LEU428     -0.1245
    147  CA        23.6100    1.4880   10.6940 C.3   428  LEU428      0.1561
    148  C         23.7900    1.3810    9.1860 C.2   428  LEU428      0.2260
    149  O         22.8200    1.5400    8.4370 O.2   428  LEU428     -0.2867
    150  CB        23.9970    2.8840   11.1880 C.3   428  LEU428      0.0270
    151  CG        22.9690    4.0210   11.2090 C.3   428  LEU428      0.0019
    152  CD1       21.5670    3.5440   11.5620 C.3   428  LEU428      0.0001
    153  CD2       23.4380    5.0920   12.1920 C.3   428  LEU428      0.0001
    154  N         20.9270   10.0810   23.3020 N.3   466  TYR466     -0.1241
    155  CA        20.0790    8.8950   23.2710 C.3   466  TYR466      0.1605
    156  C         20.2230    8.0270   24.5360 C.2   466  TYR466      0.2264
    157  O         19.3960    7.1530   24.7580 O.2   466  TYR466     -0.2867
    158  CB        20.4160    8.0220   22.0620 C.3   466  TYR466      0.0534
    159  CG        19.9990    8.5310   20.6960 C.ar  466  TYR466     -0.0201
    160  CD1       18.7630    8.2020   20.1620 C.ar  466  TYR466     -0.0009
    161  CD2       20.8660    9.2760   19.9010 C.ar  466  TYR466     -0.0009
    162  CE1       18.3830    8.6300   18.8950 C.ar  466  TYR466      0.0417
    163  CE2       20.4940    9.7020   18.6240 C.ar  466  TYR466      0.0417
    164  CZ        19.2510    9.3790   18.1320 C.ar  466  TYR466      0.1957
    165  OH        18.8520    9.7930   16.8860 O.3   466  TYR466     -0.2866
    166  N         17.5320    7.5950   28.6840 N.3   469  MET469     -0.1245
    167  CA        16.1100    7.3100   28.5220 C.3   469  MET469      0.1570
    168  C         15.4460    7.2430   29.8930 C.2   469  MET469      0.2261
    169  O         14.4860    7.9910   30.1790 O.2   469  MET469     -0.2867
    170  CB        15.8810    6.0190   27.7250 C.3   469  MET469      0.0387
    171  CG        16.3220    6.0390   26.2600 C.3   469  MET469      0.0595
    172  SD        15.7990    7.4860   25.2860 S.3   469  MET469     -0.1393
    173  CE        16.4820    7.2140   23.6490 C.3   469  MET469      0.0692
    174  N         10.4090    8.3940   10.7350 N.3   498  VAL498     -0.1231
    175  CA        10.7000    8.0780   12.1450 C.3   498  VAL498      0.1692
    176  C         10.0070    9.0350   13.1150 C.2   498  VAL498      0.2591
    177  O          9.3430    8.5850   14.0530 O.2   498  VAL498     -0.2718
    178  CB        12.2260    7.8920   12.4470 C.3   498  VAL498      0.0266
    179  CG1       13.0650    8.0590   11.1960 C.3   498  VAL498      0.0020
    180  CG2       12.7050    8.7940   13.5840 C.3   498  VAL498      0.0020
    181  N         10.1530   10.3360   12.8920 N.am  499  LEU499     -0.1980
    182  CA         9.3000   11.3080   13.5540 C.3   499  LEU499      0.1596
    183  C          8.0840   11.5150   12.6420 C.2   499  LEU499      0.2287
    184  O          7.9220   12.5380   11.9880 O.2   499  LEU499     -0.2864
    185  CB        10.0480   12.6180   13.8410 C.3   499  LEU499      0.0297
    186  CG        11.3300   12.5710   14.6960 C.3   499  LEU499      0.0022
    187  CD1       12.0380   13.9210   14.7350 C.3   499  LEU499      0.0001
    188  CD2       11.0310   12.0900   16.1050 C.3   499  LEU499      0.0001
    189  N          2.3710   10.7130   15.1190 N.3   503  MET503     -0.1196
    190  CA         2.8600   10.7260   16.4950 C.3   503  MET503      0.1786
    191  C          2.4680   12.0100   17.2540 C.2   503  MET503      0.2306
    192  O          2.4840   12.0270   18.4810 O.2   503  MET503     -0.2863
    193  CB         4.3900   10.5500   16.5470 C.2   503  MET503      0.0070
    194  CG         4.9490    9.3170   15.8300 C.2   503  MET503      0.0282
    195  SD         6.6810    8.8370   16.1820 S.3   503  MET503     -0.1125
    196  CE         7.3410   10.2730   17.0310 C.3   503  MET503      0.0742
    197  N         13.1970   13.8890    6.8470 N.3   524  HIS524     -0.1226
    198  CA        13.5560   14.1000    8.2330 C.3   524  HIS524      0.1752
    199  C         14.3810   15.3320    8.4240 C.2   524  HIS524      0.2596
    200  O         14.2520   16.0490    9.4360 O.2   524  HIS524     -0.2718
    201  CB        14.3240   12.9240    8.7480 C.3   524  HIS524      0.0759
    202  CG        14.8360   13.1330   10.1280 C.ar  524  HIS524      0.0818
    203  ND1       14.0430   13.0330   11.2000 N.ar  524  HIS524     -0.2268
    204  CD2       16.1060   13.4880   10.5940 C.ar  524  HIS524      0.1154
    205  CE1       14.7670   13.2800   12.3050 C.ar  524  HIS524      0.1986
    206  NE2       16.0340   13.5580   11.9280 N.ar  524  HIS524     -0.2212
    207  N         15.2370   15.5830    7.4420 N.am  525  TRP525     -0.1976
    208  CA        16.1480   16.7310    7.4570 C.3   525  TRP525      0.1640
    209  C         15.4260   17.9410    6.9740 C.2   525  TRP525      0.2290
    210  O         15.7790   18.5000    5.9440 O.2   525  TRP525     -0.2864
    211  CB        17.3670   16.4370    6.5920 C.3   525  TRP525      0.0576
    212  CG        17.8910   15.0820    6.9220 C.ar  525  TRP525      0.0006
    213  CD1       17.7140   13.9160    6.2160 C.ar  525  TRP525      0.0946
    214  CD2       18.6100   14.6990    8.1180 C.ar  525  TRP525      0.0152
    215  NE1       18.2920   12.8620    6.8650 N.ar  525  TRP525     -0.2442
    216  CE2       18.8430   13.2610    8.0080 C.ar  525  TRP525      0.0810
    217  CE3       19.0970   15.3870    9.2330 C.ar  525  TRP525      0.0012
    218  CZ2       19.5200   12.5580    8.9690 C.ar  525  TRP525      0.0191
    219  CZ3       19.7810   14.6660   10.2060 C.ar  525  TRP525      0.0001
    220  CH2       19.9860   13.2800   10.0750 C.ar  525  TRP525      0.0015
@<TRIPOS>BOND
     1   130   131    1
     2   131   132    1
     3   131   134    1
     4   122   123    1
     5   125   124    2
     6   132   133    2
     7   124   123    1
     8   210   209    2
     9   213   215   ar
    10   213   212   ar
    11   135   137    1
    12   135   134    1
    13   135   136    1
    14   123   126    1
    15   211   212    1
    16   211   208    1
    17   197   198    1
    18   215   216   ar
    19   212   214   ar
    20   209   208    1
    21   207   208    1
    22   207   199   am
    23   126   127    1
    24   216   214   ar
    25   216   218   ar
    26   214   217   ar
    27   198   199    1
    28   198   201    1
    29   199   200    2
    30   149   148    2
    31   201   202    1
    32   138   139    1
    33   127   129    1
    34   127   128    1
    35   218   220   ar
    36   148   147    1
    37   217   219   ar
    38   145   144    1
    39   220   219   ar
    40   202   204   ar
    41   202   203   ar
    42   139   142    1
    43   139   140    1
    44   204   206   ar
    45   142   143    1
    46   147   150    1
    47   147   146    1
    48   144   143    1
    49   174   175    1
    50   150   151    1
    51   179   178    1
    52   140   141    2
    53   203   205   ar
    54   151   152    1
    55   151   153    1
    56   117   116    2
    57   206   205   ar
    58   184   183    2
    59   175   178    1
    60   175   176    1
    61   178   180    1
    62   116   115    1
    63   121   119    1
    64    15    14    2
    65   183   182    1
    66   115   114    1
    67   115   118    1
    68    17    18    1
    69    17    16    1
    70    18    12    1
    71   181   176   am
    72   181   182    1
    73   176   177    2
    74   182   185    1
    75    14    13    1
    76   119   118    1
    77   119   120    1
    78   185   186    1
    79     4     3    2
    80    12    13    1
    81    12     3   am
    82    16    13    1
    83     3     2    1
    84   186   187    1
    85   186   188    1
    86    86    87    1
    87    86    83    1
    88    89    87   ar
    89    89    91   ar
    90    26    24   ar
    91   189   190    1
    92    23    24    1
    93    23    20    1
    94    87    88   ar
    95    91    92   ar
    96     9     7   ar
    97     9    11   ar
    98    24    25   ar
    99     7     6   ar
   100    19    20    1
   101    49    50    1
   102    71    72    1
   103   194   195    1
   104   194   193    2
   105   113   111   ar
   106   113   112   ar
   107    82    83    1
   108    83    84    1
   109    88    90   ar
   110    92    90   ar
   111    92    93    1
   112    20    21    1
   113     2     1    1
   114     2     5    1
   115   111   109   ar
   116   195   196    1
   117    11    10   ar
   118   190   193    1
   119   190   191    1
   120     6     5    1
   121     6     8   ar
   122    72    73    1
   123    72    75    1
   124    77    79   ar
   125    77    76   ar
   126   112   110   ar
   127    79    81   ar
   128   165   164    1
   129    50    51    1
   130    50    53    1
   131    73    74    2
   132    84    85    2
   133    84    94   am
   134    10     8   ar
   135   191   192    2
   136    54    53    1
   137   109   108   ar
   138    21    27   am
   139    21    22    2
   140    62    56    1
   141    62    61    1
   142    51    56   am
   143    51    52    2
   144    76    75    1
   145    76    78   ar
   146    53    55    1
   147    81    80   ar
   148    94    95    1
   149    27    28    1
   150    56    57    1
   151   164   163   ar
   152   164   162   ar
   153   110   108   ar
   154    61    60    1
   155   108   107    1
   156    60    57    1
   157   163   161   ar
   158    57    58    1
   159   162   160   ar
   160    78    80   ar
   161   101   100    2
   162    99   100    1
   163    99    98    1
   164    33    35   ar
   165    33    32   ar
   166    95    98    1
   167    95    96    1
   168    28    31    1
   169    28    29    1
   170   103   104    1
   171   100   102   am
   172    31    32    1
   173    35    36   ar
   174   161   159   ar
   175   107   104    1
   176    29    30    2
   177    32    34   ar
   178   104   105    1
   179   160   159   ar
   180    96    97    2
   181    58    59    2
   182   159   158    1
   183    70    68    1
   184    36    34   ar
   185    36    38   ar
   186    41    42    1
   187    34    37   ar
   188   105   106    2
   189    68    67    1
   190    38    40   ar
   191   158   155    1
   192    42    45    1
   193    42    43    1
   194    37    39   ar
   195    45    46    1
   196    40    39   ar
   197   155   154    1
   198   155   156    1
   199    67    64    1
   200    67    69    1
   201    63    64    1
   202    43    44    2
   203   173   172    1
   204    47    46    1
   205    47    48    1
   206    64    65    1
   207   156   157    2
   208   172   171    1
   209    65    66    2
   210   171   170    1
   211   170   167    1
   212   167   166    1
   213   167   168    1
   214   168   169    2
