@<TRIPOS>MOLECULE
tmp/4od5F01.pdb
 92 85 0 0 0
SMALL
GASTEIGER

@<TRIPOS>ATOM
      1  N         18.6020  127.7350   12.2590 N.3     7  HIS7       -0.1241
      2  CA        18.0680  126.6290   13.0570 C.3     7  HIS7        0.1621
      3  C         17.8350  125.3630   12.2380 C.2     7  HIS7        0.2264
      4  O         17.9580  124.2460   12.7500 O.2     7  HIS7       -0.2867
      5  CB        16.7560  127.0490   13.7260 C.3     7  HIS7        0.0745
      6  CG        15.6220  126.1000   13.4830 C.ar    7  HIS7        0.0817
      7  ND1       15.4420  124.9500   14.2210 N.ar    7  HIS7       -0.2268
      8  CD2       14.6150  126.1270   12.5770 C.ar    7  HIS7        0.1154
      9  CE1       14.3710  124.3110   13.7830 C.ar    7  HIS7        0.1986
     10  NE2       13.8510  125.0040   12.7860 N.ar    7  HIS7       -0.2212
     11  N          9.8890  124.3220    4.3660 N.3    41  LEU41      -0.1231
     12  CA         8.8830  123.7960    5.2780 C.3    41  LEU41       0.1693
     13  C          9.0270  124.4160    6.6660 C.2    41  LEU41       0.2591
     14  O          8.0320  124.7340    7.3200 O.2    41  LEU41      -0.2718
     15  CB         8.9800  122.2720    5.3600 C.3    41  LEU41       0.0284
     16  CG         7.7960  121.5790    6.0310 C.3    41  LEU41       0.0019
     17  CD1        6.4950  122.0570    5.4160 C.3    41  LEU41       0.0001
     18  CD2        7.9190  120.0690    5.9190 C.3    41  LEU41       0.0001
     19  N         10.2710  124.5910    7.1030 N.am   42  ARG42      -0.1980
     20  CA        10.5510  125.2250    8.3850 C.3    42  ARG42       0.1597
     21  C         10.0710  126.6650    8.3780 C.2    42  ARG42       0.2287
     22  O          9.4560  127.1170    9.3390 O.2    42  ARG42      -0.2864
     23  CB        12.0450  125.1790    8.7160 C.3    42  ARG42       0.0334
     24  CG        12.5750  123.8070    9.1080 C.3    42  ARG42       0.0492
     25  CD        11.6060  123.0620   10.0100 C.3    42  ARG42       0.2205
     26  NE        10.8360  122.0690    9.2650 N.pl3  42  ARG42      -0.0865
     27  CZ        10.7360  120.7900    9.6090 C.cat  42  ARG42       0.5346
     28  NH1       11.3470  120.3440   10.6980 N.pl3  42  ARG42       0.1354
     29  NH2       10.0180  119.9570    8.8680 N.pl3  42  ARG42       0.1354
     30  N          6.1520  126.6650    8.4050 N.3    45  GLY45      -0.1210
     31  CA         5.6770  126.1960    9.6930 C.3    45  GLY45       0.1956
     32  C          5.9040  127.1780   10.8270 C.2    45  GLY45       0.2611
     33  O          4.9830  127.4780   11.5840 O.2    45  GLY45      -0.2717
     34  N          7.1290  127.6830   10.9390 N.am   46  MET46      -0.1979
     35  CA         7.4880  128.6130   12.0050 C.3    46  MET46       0.1605
     36  C          6.7540  129.9410   11.8690 C.2    46  MET46       0.2287
     37  O          6.3380  130.5270   12.8700 O.2    46  MET46      -0.2864
     38  CB         9.0000  128.8540   12.0270 C.3    46  MET46       0.0413
     39  CG         9.8140  127.6570   12.4830 C.3    46  MET46       0.0598
     40  SD        11.5860  127.9830   12.5500 S.3    46  MET46      -0.1393
     41  CE        11.6310  129.3620   13.6920 C.3    46  MET46       0.0692
     42  N          3.0980  129.4400   12.5860 N.3    49  ASN49      -0.1240
     43  CA         3.0020  129.2240   14.0230 C.3    49  ASN49       0.1653
     44  C          2.6810  130.5410   14.7150 C.2    49  ASN49       0.2266
     45  O          1.6370  130.6800   15.3510 O.2    49  ASN49      -0.2867
     46  CB         4.2970  128.6370   14.5840 C.3    49  ASN49       0.1155
     47  CG         4.2750  127.1240   14.6470 C.2    49  ASN49       0.2627
     48  OD1        3.6160  126.4640   13.8460 O.2    49  ASN49      -0.2716
     49  ND2        4.9990  126.5650   15.6080 N.am   49  ASN49      -0.0877
     50  N          7.9040  137.8490   22.2730 N.3    66  ARG66      -0.1245
     51  CA         7.8940  137.2880   20.9280 C.3    66  ARG66       0.1563
     52  C          7.6420  138.3770   19.8960 C.2    66  ARG66       0.2260
     53  O          6.8830  139.3130   20.1530 O.2    66  ARG66      -0.2867
     54  CB         6.8210  136.2020   20.8050 C.3    66  ARG66       0.0307
     55  CG         7.3510  134.7820   20.6800 C.3    66  ARG66       0.0489
     56  CD         6.2040  133.8090   20.4480 C.3    66  ARG66       0.2205
     57  NE         6.6650  132.4560   20.1510 N.pl3  66  ARG66      -0.0865
     58  CZ         5.8630  131.4550   19.8020 C.cat  66  ARG66       0.5346
     59  NH1        6.3660  130.2560   19.5480 N.pl3  66  ARG66       0.1354
     60  NH2        4.5550  131.6550   19.7040 N.pl3  66  ARG66       0.1354
     61  N          2.2370  120.2620    8.4610 N.3   111  ALA111     -0.1245
     62  CA         3.0250  121.2820    9.1440 C.3   111  ALA111      0.1562
     63  C          2.2180  122.5430    9.4340 C.2   111  ALA111      0.2260
     64  O          2.5290  123.2830   10.3680 O.2   111  ALA111     -0.2867
     65  CB         4.2530  121.6270    8.3240 C.3   111  ALA111      0.0290
     66  N         -0.7910  121.8780   12.5410 N.3   114  TYR114     -0.1241
     67  CA        -0.3720  121.7270   13.9340 C.3   114  TYR114      0.1605
     68  C         -0.8060  122.8580   14.8800 C.2   114  TYR114      0.2264
     69  O         -1.3190  122.5770   15.9630 O.2   114  TYR114     -0.2867
     70  CB         1.1520  121.5600   14.0130 C.3   114  TYR114      0.0534
     71  CG         1.7310  121.9840   15.3440 C.ar  114  TYR114     -0.0201
     72  CD1        1.4450  121.2790   16.5070 C.ar  114  TYR114     -0.0009
     73  CD2        2.5640  123.0920   15.4390 C.ar  114  TYR114     -0.0009
     74  CE1        1.9580  121.6720   17.7250 C.ar  114  TYR114      0.0417
     75  CE2        3.0910  123.4870   16.6560 C.ar  114  TYR114      0.0417
     76  CZ         2.7870  122.7720   17.7960 C.ar  114  TYR114      0.1957
     77  OH         3.3070  123.1600   19.0090 O.3   114  TYR114     -0.2866
     78  N          3.3400  117.3920   16.3550 N.3   128  LEU128     -0.1245
     79  CA         4.7390  117.7520   16.1160 C.3   128  LEU128      0.1561
     80  C          5.5470  116.5240   15.7120 C.2   128  LEU128      0.2260
     81  O          6.4380  116.6010   14.8600 O.2   128  LEU128     -0.2867
     82  CB         5.3680  118.3870   17.3540 C.3   128  LEU128      0.0270
     83  CG         5.0140  119.8320   17.6790 C.3   128  LEU128      0.0019
     84  CD1        4.5010  119.9170   19.0990 C.3   128  LEU128      0.0001
     85  CD2        6.2310  120.7180   17.5010 C.3   128  LEU128      0.0001
     86  N          4.9780  115.9050   12.2790 N.3   131  VAL131     -0.1245
     87  CA         5.6180  116.9660   11.5090 C.3   131  VAL131      0.1561
     88  C          7.0940  116.6680   11.2490 C.2   131  VAL131      0.2260
     89  O          7.5390  116.6920   10.1030 O.2   131  VAL131     -0.2867
     90  CB         5.4910  118.3350   12.2110 C.3   131  VAL131      0.0252
     91  CG1        6.4110  119.3540   11.5590 C.3   131  VAL131      0.0019
     92  CG2        4.0510  118.8200   12.1710 C.3   131  VAL131      0.0019
@<TRIPOS>BOND
     1    11    12    1
     2    12    15    1
     3    12    13    1
     4    15    16    1
     5    17    16    1
     6    18    16    1
     7    13    19   am
     8    13    14    2
     9    19    20    1
    10    65    62    1
    11    21    20    1
    12    21    22    2
    13    20    23    1
    14    30    31    1
    15    61    62    1
    16    23    24    1
    17    29    27    1
    18    24    25    1
    19    62    63    1
    20    26    27    2
    21    26    25    1
    22    63    64    2
    23    27    28    1
    24    31    32    1
    25    89    88    2
    26    32    34   am
    27    32    33    2
    28    34    35    1
    29    88    87    1
    30    87    90    1
    31    87    86    1
    32    91    90    1
    33    36    35    1
    34    36    37    2
    35    35    38    1
    36    38    39    1
    37    92    90    1
    38     3     4    2
    39     3     2    1
    40     1     2    1
    41    39    40    1
    42    66    67    1
    43    40    41    1
    44     8    10   ar
    45     8     6   ar
    46    42    43    1
    47    10     9   ar
    48     2     5    1
    49     6     5    1
    50     6     7   ar
    51     9     7   ar
    52    48    47    2
    53    67    70    1
    54    67    68    1
    55    70    71    1
    56    43    46    1
    57    43    44    1
    58    46    47    1
    59    47    49   am
    60    44    45    2
    61    81    80    2
    62    68    69    2
    63    71    73   ar
    64    71    72   ar
    65    73    75   ar
    66    80    79    1
    67    79    78    1
    68    79    82    1
    69    72    74   ar
    70    75    76   ar
    71    82    83    1
    72    85    83    1
    73    83    84    1
    74    74    76   ar
    75    76    77    1
    76    59    58    1
    77    60    58    1
    78    58    57    2
    79    52    53    2
    80    52    51    1
    81    57    56    1
    82    56    55    1
    83    55    54    1
    84    54    51    1
    85    51    50    1
