@<TRIPOS>MOLECULE
tmp/4od5F00.pdb
 189 176 0 0 0
SMALL
GASTEIGER

@<TRIPOS>ATOM
      1  N         18.6020  127.7350   12.2590 N.3     7  HIS7       -0.1241
      2  CA        18.0680  126.6290   13.0570 C.3     7  HIS7        0.1621
      3  C         17.8350  125.3630   12.2380 C.2     7  HIS7        0.2264
      4  O         17.9580  124.2460   12.7500 O.2     7  HIS7       -0.2867
      5  CB        16.7560  127.0490   13.7260 C.3     7  HIS7        0.0745
      6  CG        15.6220  126.1000   13.4830 C.ar    7  HIS7        0.0817
      7  ND1       15.4420  124.9500   14.2210 N.ar    7  HIS7       -0.2268
      8  CD2       14.6150  126.1270   12.5770 C.ar    7  HIS7        0.1154
      9  CE1       14.3710  124.3110   13.7830 C.ar    7  HIS7        0.1986
     10  NE2       13.8510  125.0040   12.7860 N.ar    7  HIS7       -0.2212
     11  N         17.4330  120.3880   11.7020 N.3    11  SER11      -0.1217
     12  CA        16.3150  119.6100   11.1790 C.3    11  SER11       0.1889
     13  C         16.7090  118.8430    9.9150 C.2    11  SER11       0.2288
     14  O         15.9800  117.9600    9.4600 O.2    11  SER11      -0.2866
     15  CB        15.1190  120.5250   10.9000 C.3    11  SER11       0.2089
     16  OG        13.9680  119.7720   10.5610 O.3    11  SER11      -0.2183
     17  N         10.2710  124.5910    7.1030 N.3    42  ARG42      -0.1245
     18  CA        10.5510  125.2250    8.3850 C.3    42  ARG42       0.1563
     19  C         10.0710  126.6650    8.3780 C.2    42  ARG42       0.2260
     20  O          9.4560  127.1170    9.3390 O.2    42  ARG42      -0.2867
     21  CB        12.0450  125.1790    8.7160 C.3    42  ARG42       0.0307
     22  CG        12.5750  123.8070    9.1080 C.3    42  ARG42       0.0489
     23  CD        11.6060  123.0620   10.0100 C.3    42  ARG42       0.2205
     24  NE        10.8360  122.0690    9.2650 N.pl3  42  ARG42      -0.0865
     25  CZ        10.7360  120.7900    9.6090 C.cat  42  ARG42       0.5346
     26  NH1       11.3470  120.3440   10.6980 N.pl3  42  ARG42       0.1354
     27  NH2       10.0180  119.9570    8.8680 N.pl3  42  ARG42       0.1354
     28  N          3.0980  129.4400   12.5860 N.3    49  ASN49      -0.1240
     29  CA         3.0020  129.2240   14.0230 C.3    49  ASN49       0.1653
     30  C          2.6810  130.5410   14.7150 C.2    49  ASN49       0.2266
     31  O          1.6370  130.6800   15.3510 O.2    49  ASN49      -0.2867
     32  CB         4.2970  128.6370   14.5840 C.3    49  ASN49       0.1155
     33  CG         4.2750  127.1240   14.6470 C.2    49  ASN49       0.2627
     34  OD1        3.6160  126.4640   13.8460 O.2    49  ASN49      -0.2716
     35  ND2        4.9990  126.5650   15.6080 N.am   49  ASN49      -0.0877
     36  N         -1.3330  130.8930   16.4860 N.3    53  ASP53      -0.1239
     37  CA        -1.3760  131.1490   17.9190 C.3    53  ASP53       0.1674
     38  C         -0.7470  132.5080   18.2320 C.2    53  ASP53       0.2266
     39  O          0.3110  132.5860   18.8520 O.2    53  ASP53      -0.2867
     40  CB        -0.6820  130.0230   18.7050 C.3    53  ASP53       0.1410
     41  CG         0.6920  129.6710   18.1590 C.2    53  ASP53       0.3668
     42  OD1        0.7690  128.8150   17.2530 O.co2  53  ASP53      -0.2456
     43  OD2        1.6970  130.2270   18.6500 O.co2  53  ASP53      -0.2456
     44  N         -0.8740  134.0350   22.2730 N.3    57  ASP57      -0.1239
     45  CA         0.5400  134.1770   22.5990 C.3    57  ASP57       0.1674
     46  C          0.8230  135.6020   23.0590 C.2    57  ASP57       0.2266
     47  O          1.9400  135.9270   23.4570 O.2    57  ASP57      -0.2867
     48  CB         1.4210  133.8100   21.4030 C.3    57  ASP57       0.1410
     49  CG         2.2720  132.5730   21.6600 C.2    57  ASP57       0.3668
     50  OD1        1.7610  131.4410   21.5150 O.co2  57  ASP57      -0.2456
     51  OD2        3.4620  132.7330   21.9990 O.co2  57  ASP57      -0.2456
     52  N          0.1180  135.4040   27.0150 N.3    60  ASN60      -0.1240
     53  CA         1.0980  134.6200   27.7520 C.3    60  ASN60       0.1653
     54  C          2.2560  135.4640   28.2690 C.2    60  ASN60       0.2266
     55  O          2.9510  136.1160   27.4900 O.2    60  ASN60      -0.2867
     56  CB         1.6290  133.4910   26.8660 C.3    60  ASN60       0.1155
     57  CG         2.0960  132.2900   27.6630 C.2    60  ASN60       0.2627
     58  OD1        2.5320  132.4170   28.8060 O.2    60  ASN60      -0.2716
     59  ND2        2.0060  131.1100   27.0580 N.am   60  ASN60      -0.0877
     60  N          5.0010  134.3620   29.3720 N.3    62  ARG62      -0.1231
     61  CA         6.2080  133.7360   28.8590 C.3    62  ARG62       0.1694
     62  C          6.5850  134.2710   27.4830 C.2    62  ARG62       0.2592
     63  O          7.7640  134.4640   27.1860 O.2    62  ARG62      -0.2718
     64  CB         6.0160  132.2190   28.8100 C.3    62  ARG62       0.0321
     65  CG         6.9830  131.4850   27.9060 C.3    62  ARG62       0.0489
     66  CD         6.4740  130.0870   27.6060 C.3    62  ARG62       0.2205
     67  NE         7.0310  129.5600   26.3660 N.pl3  62  ARG62      -0.0865
     68  CZ         6.4990  128.5560   25.6780 C.cat  62  ARG62       0.5346
     69  NH1        5.3900  127.9710   26.1080 N.pl3  62  ARG62       0.1354
     70  NH2        7.0720  128.1410   24.5570 N.pl3  62  ARG62       0.1354
     71  N          5.5810  134.5280   26.6500 N.am   63  THR63      -0.1953
     72  CA         5.8330  134.9320   25.2700 C.3    63  THR63       0.1897
     73  C          5.2660  136.3080   24.9260 C.2    63  THR63       0.2313
     74  O          4.5940  136.4720   23.9110 O.2    63  THR63      -0.2863
     75  CB         5.2490  133.9090   24.2790 C.3    63  THR63       0.1794
     76  OG1        3.8200  133.8900   24.3910 O.3    63  THR63      -0.2208
     77  CG2        5.7940  132.5170   24.5580 C.3    63  THR63       0.0378
     78  N          7.9040  137.8490   22.2730 N.3    66  ARG66      -0.1245
     79  CA         7.8940  137.2880   20.9280 C.3    66  ARG66       0.1563
     80  C          7.6420  138.3770   19.8960 C.2    66  ARG66       0.2260
     81  O          6.8830  139.3130   20.1530 O.2    66  ARG66      -0.2867
     82  CB         6.8210  136.2020   20.8050 C.3    66  ARG66       0.0307
     83  CG         7.3510  134.7820   20.6800 C.3    66  ARG66       0.0489
     84  CD         6.2040  133.8090   20.4480 C.3    66  ARG66       0.2205
     85  NE         6.6650  132.4560   20.1510 N.pl3  66  ARG66      -0.0865
     86  CZ         5.8630  131.4550   19.8020 C.cat  66  ARG66       0.5346
     87  NH1        6.3660  130.2560   19.5480 N.pl3  66  ARG66       0.1354
     88  NH2        4.5550  131.6550   19.7040 N.pl3  66  ARG66       0.1354
     89  N         -0.7910  121.8780   12.5410 N.3   114  TYR114     -0.1241
     90  CA        -0.3720  121.7270   13.9340 C.3   114  TYR114      0.1605
     91  C         -0.8060  122.8580   14.8800 C.2   114  TYR114      0.2264
     92  O         -1.3190  122.5770   15.9630 O.2   114  TYR114     -0.2867
     93  CB         1.1520  121.5600   14.0130 C.3   114  TYR114      0.0534
     94  CG         1.7310  121.9840   15.3440 C.ar  114  TYR114     -0.0201
     95  CD1        1.4450  121.2790   16.5070 C.ar  114  TYR114     -0.0009
     96  CD2        2.5640  123.0920   15.4390 C.ar  114  TYR114     -0.0009
     97  CE1        1.9580  121.6720   17.7250 C.ar  114  TYR114      0.0417
     98  CE2        3.0910  123.4870   16.6560 C.ar  114  TYR114      0.0417
     99  CZ         2.7870  122.7720   17.7960 C.ar  114  TYR114      0.1957
    100  OH         3.3070  123.1600   19.0090 O.3   114  TYR114     -0.2866
    101  N         -4.1830  122.4400   19.1110 N.3   118  LYS118     -0.1245
    102  CA        -4.4410  122.8050   20.5000 C.3   118  LYS118      0.1561
    103  C         -5.9320  123.0020   20.7610 C.2   118  LYS118      0.2260
    104  O         -6.4640  122.5160   21.7570 O.2   118  LYS118     -0.2867
    105  CB        -3.6760  124.0800   20.8670 C.3   118  LYS118      0.0271
    106  CG        -2.2170  124.0730   20.4330 C.3   118  LYS118      0.0035
    107  CD        -1.5360  125.3970   20.7490 C.3   118  LYS118      0.0206
    108  CE        -0.1050  125.4110   20.2310 C.3   118  LYS118      0.1093
    109  NZ         0.5980  126.6840   20.5550 N.3   118  LYS118     -0.1314
    110  N          3.3400  117.3920   16.3550 N.3   128  LEU128     -0.1245
    111  CA         4.7390  117.7520   16.1160 C.3   128  LEU128      0.1561
    112  C          5.5470  116.5240   15.7120 C.2   128  LEU128      0.2260
    113  O          6.4380  116.6010   14.8600 O.2   128  LEU128     -0.2867
    114  CB         5.3680  118.3870   17.3540 C.3   128  LEU128      0.0270
    115  CG         5.0140  119.8320   17.6790 C.3   128  LEU128      0.0019
    116  CD1        4.5010  119.9170   19.0990 C.3   128  LEU128      0.0001
    117  CD2        6.2310  120.7180   17.5010 C.3   128  LEU128      0.0001
    118  N          4.9780  115.9050   12.2790 N.3   131  VAL131     -0.1231
    119  CA         5.6180  116.9660   11.5090 C.3   131  VAL131      0.1692
    120  C          7.0940  116.6680   11.2490 C.2   131  VAL131      0.2591
    121  O          7.5390  116.6920   10.1030 O.2   131  VAL131     -0.2718
    122  CB         5.4910  118.3350   12.2110 C.3   131  VAL131      0.0266
    123  CG1        6.4110  119.3540   11.5590 C.3   131  VAL131      0.0020
    124  CG2        4.0510  118.8200   12.1710 C.3   131  VAL131      0.0020
    125  N          7.8530  116.3730   12.3020 N.am  132  LEU132     -0.1980
    126  CA         9.2590  116.0080   12.1230 C.3   132  LEU132      0.1596
    127  C          9.3570  114.5700   11.6230 C.2   132  LEU132      0.2287
    128  O         10.4450  114.0460   11.4010 O.2   132  LEU132     -0.2864
    129  CB        10.0520  116.1820   13.4240 C.3   132  LEU132      0.0297
    130  CG        11.4550  116.8020   13.3110 C.3   132  LEU132      0.0022
    131  CD1       11.9090  117.3500   14.6510 C.3   132  LEU132      0.0001
    132  CD2       12.4850  115.8140   12.7900 C.3   132  LEU132      0.0001
    133  N          9.9460  113.4720   19.5280 N.3   170  VAL170     -0.1245
    134  CA         9.5160  114.8650   19.4760 C.3   170  VAL170      0.1561
    135  C          8.2830  115.0830   20.3430 C.2   170  VAL170      0.2260
    136  O          8.2500  115.9990   21.1750 O.2   170  VAL170     -0.2867
    137  CB         9.2220  115.3180   18.0360 C.3   170  VAL170      0.0252
    138  CG1        8.6060  116.7070   18.0270 C.3   170  VAL170      0.0019
    139  CG2       10.4960  115.3040   17.2160 C.3   170  VAL170      0.0019
    140  N          9.5470  115.0570   24.1590 N.3   173  PHE173     -0.1227
    141  CA        10.1870  116.2180   24.7740 C.3   173  PHE173      0.1736
    142  C          9.3270  117.4770   24.6270 C.2   173  PHE173      0.2595
    143  O          9.5200  118.4490   25.3620 O.2   173  PHE173     -0.2718
    144  CB        11.6000  116.4340   24.2070 C.3   173  PHE173      0.0547
    145  CG        11.6490  117.2260   22.9300 C.ar  173  PHE173     -0.0202
    146  CD1       11.5190  116.5990   21.7060 C.ar  173  PHE173     -0.0042
    147  CD2       11.8750  118.5940   22.9540 C.ar  173  PHE173     -0.0042
    148  CE1       11.5820  117.3230   20.5280 C.ar  173  PHE173     -0.0003
    149  CE2       11.9350  119.3220   21.7790 C.ar  173  PHE173     -0.0003
    150  CZ        11.7890  118.6840   20.5660 C.ar  173  PHE173     -0.0000
    151  N          8.3670  117.4580   23.7040 N.am  174  ASP174     -0.1974
    152  CA         7.3910  118.5420   23.6510 C.3   174  ASP174      0.1709
    153  C          6.3770  118.3850   24.7810 C.2   174  ASP174      0.2293
    154  O          5.9590  119.3740   25.3880 O.2   174  ASP174     -0.2864
    155  CB         6.6720  118.5910   22.3010 C.3   174  ASP174      0.1436
    156  CG         5.6210  119.6930   22.2400 C.2   174  ASP174      0.3671
    157  OD1        5.9990  120.8820   22.1330 O.co2 174  ASP174     -0.2456
    158  OD2        4.4150  119.3720   22.2880 O.co2 174  ASP174     -0.2456
    159  N          8.1260  119.7790   27.5550 N.3   177  TYR177     -0.1241
    160  CA         8.2530  121.2310   27.4370 C.3   177  TYR177      0.1605
    161  C          6.9500  121.9680   27.7550 C.2   177  TYR177      0.2264
    162  O          6.9720  123.1290   28.1670 O.2   177  TYR177     -0.2867
    163  CB         8.7360  121.6060   26.0310 C.3   177  TYR177      0.0534
    164  CG         8.9660  123.0890   25.8260 C.ar  177  TYR177     -0.0201
    165  CD1       10.0240  123.7390   26.4470 C.ar  177  TYR177     -0.0009
    166  CD2        8.1310  123.8350   25.0050 C.ar  177  TYR177     -0.0009
    167  CE1       10.2410  125.0910   26.2620 C.ar  177  TYR177      0.0417
    168  CE2        8.3400  125.1890   24.8130 C.ar  177  TYR177      0.0417
    169  CZ         9.3970  125.8110   25.4440 C.ar  177  TYR177      0.1957
    170  OH         9.6100  127.1580   25.2570 O.3   177  TYR177     -0.2866
    171  N          3.5580  125.3580   30.7850 N.3   181  ASP181     -0.1239
    172  CA         2.3530  125.9910   30.2570 C.3   181  ASP181      0.1674
    173  C          1.0690  125.3830   30.8180 C.2   181  ASP181      0.2266
    174  O         -0.0230  125.7440   30.3820 O.2   181  ASP181     -0.2867
    175  CB         2.3310  125.8980   28.7260 C.3   181  ASP181      0.1410
    176  CG         3.1170  127.0120   28.0570 C.2   181  ASP181      0.3668
    177  OD1        3.9730  127.6310   28.7260 O.co2 181  ASP181     -0.2456
    178  OD2        2.8810  127.2660   26.8560 O.co2 181  ASP181     -0.2456
    179  N         15.5840  120.2570   27.9550 N.3   257  PHE257     -0.1241
    180  CA        15.1800  120.6580   26.6160 C.3   257  PHE257      0.1605
    181  C         16.3880  120.7790   25.6970 C.2   257  PHE257      0.2264
    182  O         16.4270  120.1720   24.6270 O.2   257  PHE257     -0.2867
    183  CB        14.4180  121.9840   26.6610 C.3   257  PHE257      0.0534
    184  CG        13.7590  122.3510   25.3620 C.ar  257  PHE257     -0.0203
    185  CD1       12.5030  121.8580   25.0470 C.ar  257  PHE257     -0.0042
    186  CD2       14.3900  123.1900   24.4550 C.ar  257  PHE257     -0.0042
    187  CE1       11.8870  122.1930   23.8510 C.ar  257  PHE257     -0.0003
    188  CE2       13.7800  123.5280   23.2570 C.ar  257  PHE257     -0.0003
    189  CZ        12.5270  123.0280   22.9560 C.ar  257  PHE257     -0.0000
@<TRIPOS>BOND
     1    17    18    1
     2    19    18    1
     3    19    20    2
     4    18    21    1
     5    21    22    1
     6    27    25    1
     7    22    23    1
     8    24    25    2
     9    24    23    1
    10    14    13    2
    11    25    26    1
    12    13    12    1
    13   121   120    2
    14    16    15    1
    15    15    12    1
    16    12    11    1
    17   120   119    1
    18   120   125   am
    19   128   127    2
    20   119   122    1
    21   119   118    1
    22   123   122    1
    23   127   126    1
    24   126   125    1
    25   126   129    1
    26   124   122    1
    27     3     4    2
    28     3     2    1
    29     1     2    1
    30    89    90    1
    31     8    10   ar
    32     8     6   ar
    33    28    29    1
    34    10     9   ar
    35   132   130    1
    36     2     5    1
    37   130   129    1
    38   130   131    1
    39     6     5    1
    40     6     7   ar
    41     9     7   ar
    42    34    33    2
    43    90    93    1
    44    90    91    1
    45    93    94    1
    46    29    32    1
    47    29    30    1
    48    32    33    1
    49    33    35   am
    50    30    31    2
    51   113   112    2
    52    91    92    2
    53    94    96   ar
    54    94    95   ar
    55    96    98   ar
    56   112   111    1
    57   111   110    1
    58   111   114    1
    59    36    37    1
    60    95    97   ar
    61    98    99   ar
    62   139   137    1
    63    42    41   ar
    64   114   115    1
    65   117   115    1
    66   115   116    1
    67    97    99   ar
    68    99   100    1
    69    37    38    1
    70    37    40    1
    71   138   137    1
    72   137   134    1
    73    41    43   ar
    74    41    40    1
    75    38    39    2
    76   101   102    1
    77   134   133    1
    78   134   135    1
    79    87    86    1
    80    88    86    1
    81    86    85    2
    82    80    81    2
    83    80    79    1
    84    85    84    1
    85   108   109    1
    86   108   107    1
    87   135   136    2
    88   106   107    1
    89   106   105    1
    90    84    83    1
    91   102   103    1
    92   102   105    1
    93   148   150   ar
    94   148   146   ar
    95   150   149   ar
    96    83    82    1
    97   103   104    2
    98    82    79    1
    99    79    78    1
   100    48    49    1
   101    48    45    1
   102    50    49   ar
   103    49    51   ar
   104   146   145   ar
   105   149   147   ar
   106   157   156   ar
   107   156   158   ar
   108   156   155    1
   109    44    45    1
   110   155   152    1
   111    45    46    1
   112   145   147   ar
   113   145   144    1
   114   189   188   ar
   115   189   187   ar
   116    46    47    2
   117   188   186   ar
   118   152   151    1
   119   152   153    1
   120   151   142   am
   121   187   185   ar
   122    74    73    2
   123   140   141    1
   124   144   141    1
   125    75    76    1
   126    75    77    1
   127    75    72    1
   128   186   184   ar
   129    70    68    1
   130   182   181    2
   131   142   141    1
   132   142   143    2
   133   153   154    2
   134   168   166   ar
   135   168   169   ar
   136    73    72    1
   137   166   164   ar
   138   185   184   ar
   139   170   169    1
   140    72    71    1
   141   184   183    1
   142   169   167   ar
   143    68    69    1
   144    68    67    2
   145   181   180    1
   146   164   163    1
   147   164   165   ar
   148   163   160    1
   149   167   165   ar
   150    67    66    1
   151   180   183    1
   152   180   179    1
   153    71    62   am
   154   178   176   ar
   155    56    57    1
   156    56    53    1
   157    52    53    1
   158    59    57   am
   159    63    62    2
   160   160   159    1
   161   160   161    1
   162    62    61    1
   163    55    54    2
   164    66    65    1
   165    57    58    2
   166    53    54    1
   167   161   162    2
   168    65    64    1
   169   176   175    1
   170   176   177   ar
   171   175   172    1
   172    64    61    1
   173    61    60    1
   174   172   171    1
   175   172   173    1
   176   174   173    2
