@<TRIPOS>MOLECULE
tmp/4od9B00.pdb
 173 163 0 0 0
SMALL
GASTEIGER

@<TRIPOS>ATOM
      1  N          2.6450   13.8320  -24.6850 N.3    19  THR19      -0.1203
      2  CA         2.3710   14.3030  -26.0490 C.3    19  THR19       0.1994
      3  C          3.0940   15.5860  -26.4170 C.2    19  THR19       0.2617
      4  O          3.8970   15.6260  -27.3550 O.2    19  THR19      -0.2717
      5  CB         0.8590   14.5400  -26.1870 C.3    19  THR19       0.1784
      6  OG1        0.1410   13.5210  -25.4850 O.3    19  THR19      -0.2211
      7  CG2        0.4050   14.6910  -27.6380 C.3    19  THR19       0.0376
      8  N          2.8230   16.6230  -25.6380 N.am   20  PHE20      -0.1975
      9  CA         3.3120   17.9590  -25.9050 C.3    20  PHE20       0.1639
     10  C          4.6440   18.2950  -25.2520 C.2    20  PHE20       0.2290
     11  O          5.2120   19.3440  -25.5570 O.2    20  PHE20      -0.2864
     12  CB         2.2220   18.9820  -25.5410 C.3    20  PHE20       0.0560
     13  CG         0.9980   18.8150  -26.4200 C.ar   20  PHE20      -0.0200
     14  CD1        1.0250   19.1940  -27.7600 C.ar   20  PHE20      -0.0042
     15  CD2       -0.1710   18.2540  -25.9140 C.ar   20  PHE20      -0.0042
     16  CE1       -0.0970   19.0010  -28.5820 C.ar   20  PHE20      -0.0003
     17  CE2       -1.2950   18.0710  -26.7370 C.ar   20  PHE20      -0.0003
     18  CZ        -1.2470   18.4450  -28.0660 C.ar   20  PHE20      -0.0000
     19  N          7.4100   17.7850  -28.1930 N.3    23  ALA23      -0.1245
     20  CA         7.0350   18.5760  -29.3940 C.3    23  ALA23       0.1562
     21  C          7.7930   19.8690  -29.4890 C.2    23  ALA23       0.2260
     22  O          7.9410   20.5520  -28.4700 O.2    23  ALA23      -0.2867
     23  CB         5.5320   18.8420  -29.4160 C.3    23  ALA23       0.0290
     24  N          7.0260   22.5630  -31.2110 N.3    25  PHE25      -0.1241
     25  CA         6.0800   23.6770  -31.2800 C.3    25  PHE25       0.1605
     26  C          5.3700   23.9770  -29.9580 C.2    25  PHE25       0.2264
     27  O          5.2450   23.0950  -29.1090 O.2    25  PHE25      -0.2867
     28  CB         5.0600   23.4230  -32.4130 C.3    25  PHE25       0.0534
     29  CG         4.2460   22.1560  -32.2170 C.ar   25  PHE25      -0.0203
     30  CD1        3.1110   22.1540  -31.4160 C.ar   25  PHE25      -0.0042
     31  CD2        4.6790   20.9360  -32.7510 C.ar   25  PHE25      -0.0042
     32  CE1        2.3990   20.9600  -31.1870 C.ar   25  PHE25      -0.0003
     33  CE2        3.9220   19.7740  -32.5870 C.ar   25  PHE25      -0.0003
     34  CZ         2.7950   19.7890  -31.8010 C.ar   25  PHE25      -0.0000
     35  N         -1.1810   24.8040  -31.6910 N.3    28  ILE28      -0.1245
     36  CA        -1.7870   24.3800  -32.9610 C.3    28  ILE28       0.1561
     37  C         -2.6280   25.4920  -33.4860 C.2    28  ILE28       0.2260
     38  O         -3.3250   26.1270  -32.7130 O.2    28  ILE28      -0.2867
     39  CB        -2.6250   23.0720  -32.8040 C.3    28  ILE28       0.0252
     40  CG1       -1.7730   21.9020  -32.1700 C.3    28  ILE28       0.0019
     41  CG2       -3.2740   22.6430  -34.1240 C.3    28  ILE28       0.0019
     42  CD1       -0.5660   21.4210  -33.0290 C.3    28  ILE28       0.0001
     43  N        -13.3200   18.4350  -42.4570 N.3    99  TYR99      -0.1241
     44  CA       -11.9000   18.3110  -42.7020 C.3    99  TYR99       0.1605
     45  C        -11.7650   18.7370  -44.2010 C.2    99  TYR99       0.2264
     46  O        -12.7760   19.0000  -44.8630 O.2    99  TYR99      -0.2867
     47  CB       -11.4960   16.8320  -42.5750 C.3    99  TYR99       0.0534
     48  CG       -11.6440   16.2840  -41.1790 C.ar   99  TYR99      -0.0201
     49  CD1      -10.7110   16.5850  -40.1880 C.ar   99  TYR99      -0.0009
     50  CD2      -12.6980   15.4360  -40.8510 C.ar   99  TYR99      -0.0009
     51  CE1      -10.8310   16.0630  -38.8990 C.ar   99  TYR99       0.0417
     52  CE2      -12.8460   14.9340  -39.5540 C.ar   99  TYR99       0.0417
     53  CZ       -11.8970   15.2350  -38.5900 C.ar   99  TYR99       0.1957
     54  OH       -12.0180   14.7230  -37.3280 O.3    99  TYR99      -0.2866
     55  N         -8.7780   12.5960  -46.2580 N.3   123  ILE123     -0.1245
     56  CA        -8.5900   13.9950  -45.8650 C.3   123  ILE123      0.1561
     57  C         -7.1550   14.4040  -46.1190 C.2   123  ILE123      0.2260
     58  O         -6.2630   13.5580  -46.0910 O.2   123  ILE123     -0.2867
     59  CB        -9.0720   14.3190  -44.4240 C.3   123  ILE123      0.0252
     60  CG1       -8.1720   13.6700  -43.3590 C.3   123  ILE123      0.0019
     61  CG2      -10.5770   13.9490  -44.2460 C.3   123  ILE123      0.0019
     62  CD1       -8.2030   14.3500  -41.9930 C.3   123  ILE123      0.0001
     63  N         -4.3390   16.4060  -44.5600 N.3   125  ASP125     -0.1225
     64  CA        -3.9870   16.8860  -43.2270 C.3   125  ASP125      0.1805
     65  C         -2.4990   17.1790  -42.9830 C.2   125  ASP125      0.2598
     66  O         -1.7160   16.2670  -42.7400 O.2   125  ASP125     -0.2718
     67  CB        -4.5150   15.8660  -42.1950 C.3   125  ASP125      0.1424
     68  CG        -4.4320   16.2840  -40.7310 C.2   125  ASP125      0.3668
     69  OD1       -4.0160   17.4350  -40.4540 O.co2 125  ASP125     -0.2456
     70  OD2       -4.8440   15.5020  -39.8790 O.co2 125  ASP125     -0.2456
     71  N         -2.1500   18.4740  -42.8990 N.am  126  THR126     -0.1939
     72  CA        -0.7660   18.8990  -42.6040 C.3   126  THR126      0.2028
     73  C         -0.3440   18.5750  -41.1500 C.2   126  THR126      0.2643
     74  O          0.8550   18.5460  -40.8510 O.2   126  THR126     -0.2714
     75  CB        -0.5940   20.4140  -42.8440 C.3   126  THR126      0.1808
     76  OG1       -1.5700   21.0880  -42.0510 O.3   126  THR126     -0.2208
     77  CG2       -0.7590   20.8060  -44.3060 C.3   126  THR126      0.0379
     78  N         -1.3210   18.3430  -40.2810 N.am  127  GLY127     -0.1939
     79  CA        -1.0870   18.0230  -38.8840 C.3   127  GLY127      0.2014
     80  C         -0.9360   16.5450  -38.5650 C.2   127  GLY127      0.2640
     81  O         -0.7440   16.1960  -37.3820 O.2   127  GLY127     -0.2714
     82  N         -1.0470   15.6650  -39.5940 N.am  128  THR128     -0.1936
     83  CA        -0.8070   14.2070  -39.4320 C.3   128  THR128      0.2028
     84  C          0.5260   13.9240  -40.1190 C.2   128  THR128      0.2642
     85  O          0.6640   14.2370  -41.2950 O.2   128  THR128     -0.2714
     86  CB        -1.9630   13.3400  -39.9940 C.3   128  THR128      0.1808
     87  OG1       -3.1660   13.6080  -39.2660 O.3   128  THR128     -0.2208
     88  CG2       -1.6690   11.8250  -39.8730 C.3   128  THR128      0.0379
     89  N          1.5250   13.3800  -39.3850 N.am  129  SER129     -0.1949
     90  CA         2.8540   13.1080  -39.9330 C.3   129  SER129      0.1924
     91  C          2.8320   12.0330  -41.0380 C.2   129  SER129      0.2314
     92  O          3.4590   12.2070  -42.0830 O.2   129  SER129     -0.2863
     93  CB         3.8250   12.6780  -38.8260 C.3   129  SER129      0.2116
     94  OG         3.8610   13.6730  -37.8010 O.3   129  SER129     -0.2180
     95  N         -2.4180    7.5570  -43.2280 N.3   132  VAL132     -0.1245
     96  CA        -3.2210    6.7240  -42.3360 C.3   132  VAL132      0.1561
     97  C         -4.2800    6.0400  -43.1890 C.2   132  VAL132      0.2260
     98  O         -4.8950    6.6810  -44.0460 O.2   132  VAL132     -0.2867
     99  CB        -3.8740    7.5220  -41.1630 C.3   132  VAL132      0.0252
    100  CG1       -4.7130    6.6030  -40.2670 C.3   132  VAL132      0.0019
    101  CG2       -2.8340    8.2850  -40.3270 C.3   132  VAL132      0.0019
    102  N          1.3450    0.6080  -31.9120 N.3   152  GLN152     -0.1245
    103  CA         0.2170    1.4950  -32.2080 C.3   152  GLN152      0.1566
    104  C         -0.0580    1.7840  -33.7000 C.2   152  GLN152      0.2260
    105  O         -0.1890    2.9500  -34.0950 O.2   152  GLN152     -0.2867
    106  CB         0.4220    2.8190  -31.4510 C.3   152  GLN152      0.0367
    107  CG        -0.0330    2.7980  -30.0030 C.3   152  GLN152      0.0905
    108  CD        -0.0750    4.2030  -29.4540 C.2   152  GLN152      0.2608
    109  OE1        0.9160    4.7140  -28.9260 O.2   152  GLN152     -0.2717
    110  NE2       -1.2100    4.8830  -29.6150 N.am  152  GLN152     -0.0878
    111  N          0.3490    4.1240  -41.6030 N.3   201  MET201     -0.1245
    112  CA        -0.0920    3.7320  -40.2790 C.3   201  MET201      0.1570
    113  C         -1.5170    3.2170  -40.3930 C.2   201  MET201      0.2261
    114  O         -2.3390    3.8250  -41.0710 O.2   201  MET201     -0.2867
    115  CB        -0.0580    4.9350  -39.3440 C.3   201  MET201      0.0387
    116  CG        -0.6150    4.6560  -37.9570 C.3   201  MET201      0.0595
    117  SD        -0.8580    6.2290  -37.0980 S.3   201  MET201     -0.1393
    118  CE         0.7830    6.6240  -36.7230 C.3   201  MET201      0.0692
    119  N         -5.0350    2.7330  -38.7330 N.3   203  MET203     -0.1230
    120  CA        -5.9150    3.2460  -37.6820 C.3   203  MET203      0.1702
    121  C         -7.3010    3.4480  -38.2750 C.2   203  MET203      0.2592
    122  O         -7.4500    4.1370  -39.2880 O.2   203  MET203     -0.2718
    123  CB        -5.3740    4.5900  -37.1170 C.3   203  MET203      0.0401
    124  CG        -5.9250    4.9310  -35.7480 C.3   203  MET203      0.0596
    125  SD        -5.3440    3.8160  -34.4310 S.3   203  MET203     -0.1393
    126  CE        -6.8320    3.4720  -33.6560 C.3   203  MET203      0.0692
    127  N         -8.3170    2.8740  -37.6450 N.am  204  ASP204     -0.1960
    128  CA        -9.6700    3.0710  -38.1350 C.3   204  ASP204      0.1840
    129  C        -10.2190    4.3740  -37.5640 C.2   204  ASP204      0.2622
    130  O        -10.1180    4.6010  -36.3620 O.2   204  ASP204     -0.2715
    131  CB       -10.5740    1.8940  -37.7570 C.3   204  ASP204      0.1450
    132  CG       -10.1830    0.5790  -38.4240 C.2   204  ASP204      0.3671
    133  OD1       -9.8970    0.5870  -39.6460 O.co2 204  ASP204     -0.2456
    134  OD2      -10.2450   -0.4660  -37.7460 O.co2 204  ASP204     -0.2456
    135  N        -10.7920    5.2250  -38.4220 N.am  205  ILE205     -0.1964
    136  CA       -11.3920    6.4840  -37.9870 C.3   205  ILE205      0.1712
    137  C        -12.8780    6.1240  -37.7670 C.2   205  ILE205      0.2458
    138  O        -13.5130    5.7000  -38.7220 O.2   205  ILE205     -0.2730
    139  CB       -11.2200    7.6010  -39.0480 C.3   205  ILE205      0.0289
    140  CG1       -9.7400    7.7320  -39.5410 C.3   205  ILE205      0.0022
    141  CG2      -11.8030    8.9510  -38.5510 C.3   205  ILE205      0.0023
    142  CD1       -8.6160    8.0080  -38.4760 C.3   205  ILE205      0.0001
    143  N        -13.4370    6.1910  -36.5450 N.am  206  PRO206     -0.2727
    144  CA       -14.8410    5.7620  -36.3800 C.3   206  PRO206      0.1402
    145  C        -15.8560    6.6950  -37.0300 C.2   206  PRO206      0.2269
    146  O        -15.5840    7.8870  -37.1930 O.2   206  PRO206     -0.2865
    147  CB       -15.0250    5.6800  -34.8640 C.3   206  PRO206      0.0296
    148  CG       -13.9930    6.5530  -34.3000 C.3   206  PRO206      0.0237
    149  CD       -12.8260    6.5700  -35.2540 C.3   206  PRO206      0.0939
    150  N        -11.9770    6.9690  -43.0410 N.3   212  LEU212     -0.1245
    151  CA       -11.2260    7.9370  -43.8310 C.3   212  LEU212      0.1561
    152  C         -9.7730    7.5240  -43.9140 C.2   212  LEU212      0.2260
    153  O         -9.1770    7.1520  -42.9050 O.2   212  LEU212     -0.2867
    154  CB       -11.2070    9.3430  -43.1510 C.3   212  LEU212      0.0270
    155  CG       -12.4570   10.1780  -43.0600 C.3   212  LEU212      0.0019
    156  CD1      -12.2780   11.2810  -42.0050 C.3   212  LEU212      0.0001
    157  CD2      -12.8030   10.7850  -44.4020 C.3   212  LEU212      0.0001
    158  N         -6.0010    9.1980  -44.4700 N.3   214  ILE214     -0.1245
    159  CA        -5.4270   10.5200  -44.2140 C.3   214  ILE214      0.1561
    160  C         -4.2130   10.6850  -45.0800 C.2   214  ILE214      0.2260
    161  O         -3.2830    9.8750  -44.9810 O.2   214  ILE214     -0.2867
    162  CB        -5.1070   10.8130  -42.7200 C.3   214  ILE214      0.0252
    163  CG1       -6.3650   10.6600  -41.8100 C.3   214  ILE214      0.0019
    164  CG2       -4.5080   12.2420  -42.5900 C.3   214  ILE214      0.0019
    165  CD1       -6.1020   10.6950  -40.2700 C.3   214  ILE214      0.0001
    166  N          1.7110   14.4090  -43.9440 N.3   217  ASP217     -0.1239
    167  CA         2.9400   15.0870  -44.3760 C.3   217  ASP217      0.1674
    168  C          3.7540   14.2940  -45.3970 C.2   217  ASP217      0.2266
    169  O          4.4410   14.8950  -46.2260 O.2   217  ASP217     -0.2867
    170  CB         3.8220   15.4640  -43.1700 C.3   217  ASP217      0.1410
    171  CG         3.1730   16.4340  -42.2050 C.2   217  ASP217      0.3668
    172  OD1        2.2910   17.2130  -42.6460 O.co2 217  ASP217     -0.2456
    173  OD2        3.5490   16.4290  -41.0270 O.co2 217  ASP217     -0.2456
@<TRIPOS>BOND
     1    55    56    1
     2   169   168    2
     3    57    58    2
     4    57    56    1
     5    56    59    1
     6   168   167    1
     7   160   161    2
     8   160   159    1
     9    46    45    2
    10    63    64    1
    11   158   159    1
    12    59    61    1
    13    59    60    1
    14   157   155    1
    15   167   166    1
    16   167   170    1
    17    77    75    1
    18   159   162    1
    19    45    44    1
    20    98    97    2
    21   152   151    1
    22   152   153    2
    23   151   154    1
    24   151   150    1
    25    60    62    1
    26    95    96    1
    27    64    65    1
    28    64    67    1
    29    97    96    1
    30   170   171    1
    31   154   155    1
    32   155   156    1
    33    65    71   am
    34    65    66    2
    35    71    72    1
    36    75    72    1
    37    75    76    1
    38   162   164    1
    39   162   163    1
    40    44    47    1
    41    44    43    1
    42   172   171   ar
    43    72    73    1
    44    47    48    1
    45    96    99    1
    46   171   173   ar
    47    67    68    1
    48    92    91    2
    49   163   165    1
    50   111   112    1
    51    85    84    2
    52    48    50   ar
    53    48    49   ar
    54    99   101    1
    55    99   100    1
    56    73    74    2
    57    73    78   am
    58   114   113    2
    59    91    90    1
    60    50    52   ar
    61    68    69   ar
    62    68    70   ar
    63   113   112    1
    64    78    79    1
    65   112   115    1
    66    49    51   ar
    67    84    83    1
    68    84    89   am
    69    86    88    1
    70    86    83    1
    71    86    87    1
    72    90    89    1
    73    90    93    1
    74   133   132   ar
    75    82    83    1
    76    82    80   am
    77    52    53   ar
    78   140   139    1
    79   140   142    1
    80   115   116    1
    81   122   121    2
    82   139   141    1
    83   139   136    1
    84    51    53   ar
    85    79    80    1
    86    93    94    1
    87   119   120    1
    88   138   137    2
    89    53    54    1
    90    80    81    2
    91   132   131    1
    92   132   134   ar
    93   135   136    1
    94   135   129   am
    95   121   120    1
    96   121   127   am
    97   128   131    1
    98   128   127    1
    99   128   129    1
   100   136   137    1
   101   116   117    1
   102   137   143   am
   103   120   123    1
   104   129   130    2
   105   146   145    2
   106   123   124    1
   107   117   118    1
   108   145   144    1
   109   143   144    1
   110   143   149    1
   111   144   147    1
   112   124   125    1
   113   149   148    1
   114   147   148    1
   115   125   126    1
   116    41    39    1
   117   105   104    2
   118   104   103    1
   119    37    36    1
   120    37    38    2
   121    42    40    1
   122    36    39    1
   123    36    35    1
   124    39    40    1
   125    31    33   ar
   126    31    29   ar
   127    33    34   ar
   128    28    29    1
   129    28    25    1
   130    29    30   ar
   131   103   102    1
   132   103   106    1
   133    34    32   ar
   134   106   107    1
   135    30    32   ar
   136    25    24    1
   137    25    26    1
   138   107   108    1
   139    26    27    2
   140   110   108   am
   141    21    20    1
   142    21    22    2
   143   108   109    2
   144    23    20    1
   145    20    19    1
   146    16    18   ar
   147    16    14   ar
   148    18    17   ar
   149    14    13   ar
   150     7     5    1
   151     4     3    2
   152    17    15   ar
   153    13    15   ar
   154    13    12    1
   155     3     2    1
   156     3     8   am
   157     5     2    1
   158     5     6    1
   159     2     1    1
   160     9     8    1
   161     9    12    1
   162     9    10    1
   163    11    10    2
