@<TRIPOS>MOLECULE
tmp/4od9A00.pdb
 81 79 0 0 0
SMALL
GASTEIGER

@<TRIPOS>ATOM
      1  N          8.3290   15.1990  -39.2770 N.3    12  ALA12      -0.1231
      2  CA         7.1570   14.8660  -38.4620 C.3    12  ALA12       0.1694
      3  C          6.3950   16.0660  -37.9670 C.2    12  ALA12       0.2592
      4  O          5.1620   16.0060  -37.8570 O.2    12  ALA12      -0.2718
      5  CB         7.5680   13.9650  -37.3000 C.3    12  ALA12       0.0304
      6  N          7.1000   17.1670  -37.6660 N.am   13  GLN13      -0.1966
      7  CA         6.4420   18.3690  -37.1730 C.3    13  GLN13       0.1733
      8  C          6.8800   19.5630  -38.0220 C.2    13  GLN13       0.2616
      9  O          8.0680   19.8410  -38.1460 O.2    13  GLN13      -0.2715
     10  CB         6.7730   18.6190  -35.6850 C.3    13  GLN13       0.0408
     11  CG         6.3710   17.4810  -34.7340 C.3    13  GLN13       0.0908
     12  CD         7.0700   17.5910  -33.3960 C.2    13  GLN13       0.2608
     13  OE1        7.4170   18.6710  -32.9110 O.2    13  GLN13      -0.2717
     14  NE2        7.3280   16.4700  -32.7900 N.am   13  GLN13      -0.0878
     15  N          5.9130   20.2330  -38.6240 N.am   14  TYR14      -0.1974
     16  CA         6.1490   21.4240  -39.4520 C.3    14  TYR14       0.1639
     17  C          5.4730   22.5640  -38.7470 C.2    14  TYR14       0.2290
     18  O          4.2560   22.5050  -38.4910 O.2    14  TYR14      -0.2864
     19  CB         5.6110   21.2080  -40.8660 C.3    14  TYR14       0.0560
     20  CG         6.3830   20.1400  -41.6060 C.ar   14  TYR14      -0.0198
     21  CD1        6.0330   18.7950  -41.5000 C.ar   14  TYR14      -0.0009
     22  CD2        7.4290   20.4750  -42.4610 C.ar   14  TYR14      -0.0009
     23  CE1        6.7320   17.8070  -42.2040 C.ar   14  TYR14       0.0417
     24  CE2        8.1260   19.4990  -43.1730 C.ar   14  TYR14       0.0417
     25  CZ         7.7700   18.1680  -43.0490 C.ar   14  TYR14       0.1957
     26  OH         8.4780   17.2030  -43.7450 O.3    14  TYR14      -0.2866
     27  N          1.8550   24.4890  -35.2920 N.3    30  VAL30      -0.1245
     28  CA         1.6310   23.6700  -36.4560 C.3    30  VAL30       0.1561
     29  C          0.3930   24.2900  -37.1400 C.2    30  VAL30       0.2260
     30  O         -0.6660   24.3520  -36.5220 O.2    30  VAL30      -0.2867
     31  CB         1.3420   22.1770  -36.1060 C.3    30  VAL30       0.0252
     32  CG1        0.9790   21.3820  -37.3710 C.3    30  VAL30       0.0019
     33  CG2        2.5340   21.5480  -35.3790 C.3    30  VAL30       0.0019
     34  N         -2.3430   23.4500  -39.1080 N.3    32  ASP32      -0.1239
     35  CA        -2.9570   22.1260  -39.1560 C.3    32  ASP32       0.1674
     36  C         -4.2850   22.0860  -39.8810 C.2    32  ASP32       0.2266
     37  O         -5.2900   22.5170  -39.3290 O.2    32  ASP32      -0.2867
     38  CB        -3.1190   21.6430  -37.7050 C.3    32  ASP32       0.1410
     39  CG        -3.7530   20.2860  -37.4860 C.2    32  ASP32       0.3668
     40  OD1       -3.9720   19.5630  -38.4760 O.co2  32  ASP32      -0.2456
     41  OD2       -4.0320   19.9450  -36.3160 O.co2  32  ASP32      -0.2456
     42  N         -6.0880   19.6030  -40.3950 N.3    34  GLY34      -0.1225
     43  CA        -6.9010   18.5190  -39.8340 C.3    34  GLY34       0.1811
     44  C         -7.6570   18.9070  -38.5790 C.2    34  GLY34       0.2280
     45  O         -8.3030   18.0560  -37.9580 O.2    34  GLY34      -0.2866
     46  N         -4.7630   27.3110  -30.4120 N.3    39  TRP39      -0.1241
     47  CA        -4.4630   27.3230  -28.9870 C.3    39  TRP39       0.1605
     48  C         -2.9570   27.4330  -28.7780 C.2    39  TRP39       0.2264
     49  O         -2.1690   26.9680  -29.6180 O.2    39  TRP39      -0.2867
     50  CB        -5.0450   26.1140  -28.2470 C.3    39  TRP39       0.0550
     51  CG        -4.4250   24.7870  -28.6010 C.ar   39  TRP39       0.0003
     52  CD1       -4.9220   23.8670  -29.4660 C.ar   39  TRP39       0.0946
     53  CD2       -3.1830   24.2460  -28.1040 C.ar   39  TRP39       0.0152
     54  NE1       -4.0710   22.7920  -29.5600 N.ar   39  TRP39      -0.2442
     55  CE2       -2.9940   22.9970  -28.7330 C.ar   39  TRP39       0.0810
     56  CE3       -2.2200   24.6910  -27.1750 C.ar   39  TRP39       0.0012
     57  CZ2       -1.8790   22.1820  -28.4740 C.ar   39  TRP39       0.0191
     58  CZ3       -1.1090   23.8910  -26.9190 C.ar   39  TRP39       0.0001
     59  CH2       -0.9540   22.6410  -27.5550 C.ar   39  TRP39       0.0015
     60  N         -7.2820   15.1320  -29.9570 N.3    77  TYR77      -0.1227
     61  CA        -6.7460   14.8180  -31.2780 C.3    77  TYR77       0.1736
     62  C         -6.7910   13.2990  -31.4100 C.2    77  TYR77       0.2596
     63  O         -7.6910   12.6620  -30.8700 O.2    77  TYR77      -0.2718
     64  CB        -5.2970   15.3340  -31.3920 C.3    77  TYR77       0.0548
     65  CG        -5.2330   16.8370  -31.3960 C.ar   77  TYR77      -0.0200
     66  CD1       -5.8460   17.5780  -32.4070 C.ar   77  TYR77      -0.0009
     67  CD2       -4.5550   17.5280  -30.3950 C.ar   77  TYR77      -0.0009
     68  CE1       -5.8090   18.9730  -32.4070 C.ar   77  TYR77       0.0417
     69  CE2       -4.5100   18.9270  -30.3860 C.ar   77  TYR77       0.0417
     70  CZ        -5.1620   19.6400  -31.3820 C.ar   77  TYR77       0.1957
     71  OH        -5.1290   21.0070  -31.4050 O.3    77  TYR77      -0.2866
     72  N         -5.8380   12.7310  -32.1210 N.am   78  GLY78      -0.1942
     73  CA        -5.6720   11.2880  -32.1790 C.3    78  GLY78       0.2014
     74  C         -4.6000   10.9810  -31.1540 C.2    78  GLY78       0.2639
     75  O         -4.7990   10.1420  -30.2660 O.2    78  GLY78      -0.2714
     76  N         -3.4770   11.7580  -31.2410 N.am   79  SER79      -0.1949
     77  CA        -2.2970   11.7270  -30.3440 C.3    79  SER79       0.1924
     78  C         -2.6260   11.8140  -28.8250 C.2    79  SER79       0.2314
     79  O         -2.1460   10.9910  -28.0450 O.2    79  SER79      -0.2863
     80  CB        -1.2980   12.8270  -30.7280 C.3    79  SER79       0.2116
     81  OG        -1.9150   14.0740  -31.0270 O.3    79  SER79      -0.2180
@<TRIPOS>BOND
     1    26    25    1
     2    24    25   ar
     3    24    22   ar
     4    25    23   ar
     5    22    20   ar
     6    23    21   ar
     7    20    21   ar
     8    20    19    1
     9    19    16    1
    10    42    43    1
    11    36    37    2
    12    36    35    1
    13    43    44    1
    14    16    17    1
    15    16    15    1
    16     1     2    1
    17    35    34    1
    18    35    38    1
    19    17    18    2
    20    15     8   am
    21    44    45    2
    22    40    39   ar
    23     2     3    1
    24     2     5    1
    25     9     8    2
    26     8     7    1
    27     3     4    2
    28     3     6   am
    29    38    39    1
    30     6     7    1
    31    39    41   ar
    32    32    31    1
    33     7    10    1
    34    29    30    2
    35    29    28    1
    36    28    31    1
    37    28    27    1
    38    31    33    1
    39    10    11    1
    40    11    12    1
    41    12    13    2
    42    12    14   am
    43    66    68   ar
    44    66    65   ar
    45    68    70   ar
    46    73    72    1
    47    73    74    1
    48    72    62   am
    49    62    61    1
    50    62    63    2
    51    71    70    1
    52    65    64    1
    53    65    67   ar
    54    64    61    1
    55    70    69   ar
    56    61    60    1
    57    76    74   am
    58    76    77    1
    59    74    75    2
    60    81    80    1
    61    80    77    1
    62    46    47    1
    63    67    69   ar
    64    77    78    1
    65    49    48    2
    66    54    52   ar
    67    54    55   ar
    68    52    51   ar
    69    47    48    1
    70    47    50    1
    71    78    79    2
    72    55    57   ar
    73    55    53   ar
    74    51    50    1
    75    51    53   ar
    76    57    59   ar
    77    53    56   ar
    78    59    58   ar
    79    56    58   ar
