@<TRIPOS>MOLECULE
tmp/4odeA00.pdb
 208 199 0 0 0
SMALL
GASTEIGER

@<TRIPOS>ATOM
      1  N          8.4570  -27.0250    3.6350 N.3     1  MET1       -0.1245
      2  CA         8.9300  -25.6550    3.8110 C.3     1  MET1        0.1570
      3  C          8.2870  -25.0290    5.0430 C.2     1  MET1        0.2261
      4  O          7.3270  -25.5770    5.5930 O.2     1  MET1       -0.2867
      5  CB         8.6240  -24.8170    2.5620 C.3     1  MET1        0.0387
      6  CG         7.1350  -24.6780    2.2300 C.3     1  MET1        0.0595
      7  SD         6.2920  -23.3950    3.1890 S.3     1  MET1       -0.1393
      8  CE         4.5930  -23.9460    3.0960 C.3     1  MET1        0.0692
      9  N          7.0300  -21.0130    6.8260 N.3     3  VAL3       -0.1245
     10  CA         6.7420  -19.6120    6.5270 C.3     3  VAL3        0.1561
     11  C          6.7590  -18.7570    7.8040 C.2     3  VAL3        0.2260
     12  O          5.7150  -18.4870    8.3980 O.2     3  VAL3       -0.2867
     13  CB         5.4100  -19.4540    5.7400 C.3     3  VAL3        0.0252
     14  CG1        5.5780  -19.9540    4.3070 C.3     3  VAL3        0.0019
     15  CG2        4.2670  -20.2070    6.4290 C.3     3  VAL3        0.0019
     16  N          9.8980  -17.4410    2.9500 N.3     9  VAL9       -0.1231
     17  CA         9.7550  -18.8900    2.9400 C.3     9  VAL9        0.1692
     18  C         11.1000  -19.5440    3.2430 C.2     9  VAL9        0.2593
     19  O         12.1320  -19.1460    2.6950 O.2     9  VAL9       -0.2718
     20  CB         9.1840  -19.4140    1.6000 C.3     9  VAL9        0.0266
     21  CG1        7.7460  -18.9460    1.4090 C.3     9  VAL9        0.0020
     22  CG2       10.0440  -18.9720    0.4290 C.3     9  VAL9        0.0020
     23  N         11.0910  -20.5320    4.1340 N.am   10  THR10      -0.1939
     24  CA        12.3210  -21.2090    4.5220 C.3    10  THR10       0.2028
     25  C         12.2630  -22.7100    4.2860 C.2    10  THR10       0.2642
     26  O         11.1910  -23.2800    4.0820 O.2    10  THR10      -0.2714
     27  CB        12.6610  -20.9700    6.0020 C.3    10  THR10       0.1808
     28  OG1       11.5830  -21.4440    6.8170 O.3    10  THR10      -0.2208
     29  CG2       12.8860  -19.4810    6.2620 C.3    10  THR10       0.0379
     30  N         13.4300  -23.3430    4.3270 N.am   11  THR11      -0.1950
     31  CA        13.5490  -24.7740    4.0770 C.3    11  THR11       0.1897
     32  C         14.5750  -25.4160    5.0130 C.2    11  THR11       0.2313
     33  O         15.5730  -24.7920    5.3730 O.2    11  THR11      -0.2863
     34  CB        13.9720  -25.0470    2.6210 C.3    11  THR11       0.1794
     35  OG1       14.3120  -26.4280    2.4730 O.3    11  THR11      -0.2208
     36  CG2       15.1860  -24.2070    2.2410 C.3    11  THR11       0.0378
     37  N         16.4610  -27.7520    4.1460 N.3    13  GLN13      -0.1245
     38  CA        17.5750  -28.1920    3.3080 C.3    13  GLN13       0.1566
     39  C         18.7840  -27.2670    3.4080 C.2    13  GLN13       0.2260
     40  O         19.8930  -27.6390    3.0300 O.2    13  GLN13      -0.2867
     41  CB        17.1420  -28.3030    1.8430 C.3    13  GLN13       0.0367
     42  CG        16.1770  -29.4430    1.5660 C.3    13  GLN13       0.0905
     43  CD        15.9490  -29.6560    0.0820 C.2    13  GLN13       0.2608
     44  OE1       16.8440  -29.4320   -0.7310 O.2    13  GLN13      -0.2717
     45  NE2       14.7410  -30.0820   -0.2780 N.am   13  GLN13      -0.0878
     46  N         19.6530  -18.5320    5.4850 N.3    19  GLN19      -0.1245
     47  CA        18.4610  -17.9570    4.8890 C.3    19  GLN19       0.1566
     48  C         18.1930  -16.5450    5.4130 C.2    19  GLN19       0.2260
     49  O         17.2820  -15.8630    4.9440 O.2    19  GLN19      -0.2867
     50  CB        17.2780  -18.9080    5.0890 C.3    19  GLN19       0.0367
     51  CG        17.5960  -20.3060    4.5480 C.3    19  GLN19       0.0905
     52  CD        16.5290  -21.3310    4.8350 C.2    19  GLN19       0.2608
     53  OE1       15.4330  -21.2730    4.2820 O.2    19  GLN19      -0.2717
     54  NE2       16.8430  -22.2850    5.7040 N.am   19  GLN19      -0.0878
     55  N         13.4110  -15.6910   -1.7740 N.3    49  LEU49      -0.1231
     56  CA        12.7390  -16.9300   -2.1490 C.3    49  LEU49       0.1693
     57  C         11.2150  -16.7850   -2.1640 C.2    49  LEU49       0.2592
     58  O         10.5540  -17.3260   -3.0480 O.2    49  LEU49      -0.2718
     59  CB        13.1600  -18.0870   -1.2300 C.3    49  LEU49       0.0284
     60  CG        14.4140  -18.8780   -1.6270 C.3    49  LEU49       0.0019
     61  CD1       14.2010  -19.6450   -2.9320 C.3    49  LEU49       0.0001
     62  CD2       15.6350  -17.9800   -1.7490 C.3    49  LEU49       0.0001
     63  N         10.6560  -16.0690   -1.1860 N.am   50  PHE50      -0.1976
     64  CA         9.2170  -15.8090   -1.1890 C.3    50  PHE50       0.1639
     65  C          8.7910  -15.0870   -2.4600 C.2    50  PHE50       0.2290
     66  O          7.8830  -15.5300   -3.1680 O.2    50  PHE50      -0.2864
     67  CB         8.7850  -14.9830    0.0290 C.3    50  PHE50       0.0560
     68  CG         7.3680  -14.4830   -0.0600 C.ar   50  PHE50      -0.0200
     69  CD1        6.3040  -15.3300    0.1940 C.ar   50  PHE50      -0.0042
     70  CD2        7.0990  -13.1700   -0.4140 C.ar   50  PHE50      -0.0042
     71  CE1        4.9970  -14.8740    0.1040 C.ar   50  PHE50      -0.0003
     72  CE2        5.8010  -12.7120   -0.5040 C.ar   50  PHE50      -0.0003
     73  CZ         4.7490  -13.5640   -0.2430 C.ar   50  PHE50      -0.0000
     74  N         10.3610  -14.6590   -5.3180 N.3    52  LEU52      -0.1231
     75  CA        10.6320  -15.4250   -6.5330 C.3    52  LEU52       0.1693
     76  C          9.5780  -16.5050   -6.7240 C.2    52  LEU52       0.2593
     77  O          9.1740  -16.8110   -7.8480 O.2    52  LEU52      -0.2718
     78  CB        12.0250  -16.0560   -6.4850 C.3    52  LEU52       0.0284
     79  CG        13.1950  -15.1660   -6.9010 C.3    52  LEU52       0.0019
     80  CD1       14.5080  -15.9130   -6.7600 C.3    52  LEU52       0.0001
     81  CD2       13.0110  -14.6850   -8.3340 C.3    52  LEU52       0.0001
     82  N          9.1360  -17.0890   -5.6140 N.am   53  GLY53      -0.1942
     83  CA         8.0560  -18.0580   -5.6570 C.3    53  GLY53       0.2014
     84  C          6.7790  -17.3980   -6.1510 C.2    53  GLY53       0.2638
     85  O          6.0350  -17.9680   -6.9540 O.2    53  GLY53      -0.2714
     86  N          6.5280  -16.1820   -5.6760 N.am   54  GLN54      -0.1977
     87  CA         5.3710  -15.4100   -6.1250 C.3    54  GLN54       0.1601
     88  C          5.4650  -15.0960   -7.6080 C.2    54  GLN54       0.2287
     89  O          4.4700  -15.1460   -8.3340 O.2    54  GLN54      -0.2864
     90  CB         5.2520  -14.1120   -5.3300 C.3    54  GLN54       0.0394
     91  CG         4.8620  -14.3370   -3.8820 C.3    54  GLN54       0.0908
     92  CD         3.5970  -15.1590   -3.7520 C.2    54  GLN54       0.2608
     93  OE1        3.6270  -16.3050   -3.2970 O.2    54  GLN54      -0.2717
     94  NE2        2.4770  -14.5780   -4.1460 N.am   54  GLN54      -0.0878
     95  N          7.1430  -16.8900   -9.8670 N.3    56  ILE56      -0.1231
     96  CA         6.9500  -18.1570  -10.5670 C.3    56  ILE56       0.1692
     97  C          5.4690  -18.4940  -10.7010 C.2    56  ILE56       0.2591
     98  O          5.0010  -18.8850  -11.7740 O.2    56  ILE56      -0.2718
     99  CB         7.6970  -19.3020   -9.8510 C.3    56  ILE56       0.0266
    100  CG1        9.2030  -19.1690  -10.0760 C.3    56  ILE56       0.0019
    101  CG2        7.2020  -20.6640  -10.3220 C.3    56  ILE56       0.0020
    102  CD1       10.0390  -20.1240   -9.2320 C.3    56  ILE56       0.0001
    103  N          4.7210  -18.3230   -9.6180 N.am   57  MET57      -0.1979
    104  CA         3.3090  -18.6720   -9.6470 C.3    57  MET57       0.1605
    105  C          2.4870  -17.6640  -10.4520 C.2    57  MET57       0.2287
    106  O          1.5390  -18.0410  -11.1350 O.2    57  MET57      -0.2864
    107  CB         2.7620  -18.8850   -8.2300 C.3    57  MET57       0.0413
    108  CG         3.2420  -20.2100   -7.6160 C.3    57  MET57       0.0598
    109  SD         2.8050  -20.4510   -5.8980 S.3    57  MET57      -0.1393
    110  CE         3.4990  -18.9690   -5.1700 C.3    57  MET57       0.0692
    111  N          4.8030  -22.8640  -12.9790 N.3    62  TYR62      -0.1241
    112  CA         4.7410  -24.0870  -12.1900 C.3    62  TYR62       0.1605
    113  C          3.2940  -24.5730  -12.1140 C.2    62  TYR62       0.2264
    114  O          2.7290  -24.7130  -11.0400 O.2    62  TYR62      -0.2867
    115  CB         5.3190  -23.8370  -10.7940 C.3    62  TYR62       0.0534
    116  CG         5.4960  -25.0800   -9.9460 C.ar   62  TYR62      -0.0201
    117  CD1        6.0850  -26.2240  -10.4700 C.ar   62  TYR62      -0.0009
    118  CD2        5.0930  -25.1030   -8.6150 C.ar   62  TYR62      -0.0009
    119  CE1        6.2580  -27.3600   -9.6990 C.ar   62  TYR62       0.0417
    120  CE2        5.2580  -26.2380   -7.8380 C.ar   62  TYR62       0.0417
    121  CZ         5.8420  -27.3610   -8.3850 C.ar   62  TYR62       0.1957
    122  OH         6.0150  -28.4910   -7.6170 O.3    62  TYR62      -0.2866
    123  N          7.0900  -31.2340   -9.8170 N.3    68  HIS68      -0.1241
    124  CA         8.1900  -30.4840   -9.1990 C.3    68  HIS68       0.1621
    125  C          9.1990  -29.8620  -10.1560 C.2    68  HIS68       0.2264
    126  O         10.2960  -29.5000   -9.7440 O.2    68  HIS68      -0.2867
    127  CB         8.9460  -31.3540   -8.2010 C.3    68  HIS68       0.0745
    128  CG         8.0730  -31.9360   -7.1410 C.ar   68  HIS68       0.0817
    129  ND1        8.0030  -31.3960   -5.8740 N.ar   68  HIS68      -0.2268
    130  CD2        7.2290  -32.9860   -7.1530 C.ar   68  HIS68       0.1154
    131  CE1        7.1570  -32.1100   -5.1470 C.ar   68  HIS68       0.1986
    132  NE2        6.6700  -33.0770   -5.9080 N.ar   68  HIS68      -0.2212
    133  N         13.1280  -15.6520  -16.0700 N.3    77  LEU77      -0.1245
    134  CA        13.7010  -16.5110  -15.0410 C.3    77  LEU77       0.1561
    135  C         14.7240  -17.4900  -15.6240 C.2    77  LEU77       0.2260
    136  O         15.7480  -17.7850  -15.0000 O.2    77  LEU77      -0.2867
    137  CB        12.5960  -17.2710  -14.3110 C.3    77  LEU77       0.0270
    138  CG        13.0600  -18.1940  -13.1870 C.3    77  LEU77       0.0019
    139  CD1       13.7650  -17.4050  -12.0940 C.3    77  LEU77       0.0001
    140  CD2       11.8710  -18.9650  -12.6290 C.3    77  LEU77       0.0001
    141  N         18.6140  -17.6480  -14.3700 N.3    81  PHE81      -0.1241
    142  CA        19.2600  -18.8390  -13.8250 C.3    81  PHE81       0.1605
    143  C         20.1950  -19.5070  -14.8310 C.2    81  PHE81       0.2264
    144  O         21.0950  -20.2570  -14.4560 O.2    81  PHE81      -0.2867
    145  CB        18.2120  -19.8510  -13.3520 C.3    81  PHE81       0.0534
    146  CG        17.5710  -19.5050  -12.0350 C.ar   81  PHE81      -0.0203
    147  CD1       17.9860  -18.4010  -11.3060 C.ar   81  PHE81      -0.0042
    148  CD2       16.5560  -20.2960  -11.5220 C.ar   81  PHE81      -0.0042
    149  CE1       17.3960  -18.0900  -10.0910 C.ar   81  PHE81      -0.0003
    150  CE2       15.9600  -19.9900  -10.2960 C.ar   81  PHE81      -0.0003
    151  CZ        16.3810  -18.8830   -9.5880 C.ar   81  PHE81      -0.0000
    152  N         14.2950  -26.5030  -13.8800 N.3    86  PHE86      -0.1241
    153  CA        14.9510  -26.9420  -12.6540 C.3    86  PHE86       0.1605
    154  C         13.9200  -27.5230  -11.7070 C.2    86  PHE86       0.2264
    155  O         12.7250  -27.2800  -11.8600 O.2    86  PHE86      -0.2867
    156  CB        15.7090  -25.7930  -11.9840 C.3    86  PHE86       0.0534
    157  CG        14.8270  -24.6690  -11.5280 C.ar   86  PHE86      -0.0203
    158  CD1       14.4620  -23.6580  -12.4030 C.ar   86  PHE86      -0.0042
    159  CD2       14.3630  -24.6220  -10.2240 C.ar   86  PHE86      -0.0042
    160  CE1       13.6510  -22.6180  -11.9840 C.ar   86  PHE86      -0.0003
    161  CE2       13.5480  -23.5890   -9.7960 C.ar   86  PHE86      -0.0003
    162  CZ        13.1900  -22.5880  -10.6760 C.ar   86  PHE86      -0.0000
    163  N         12.0250  -27.8670   -8.1360 N.3    88  VAL88      -0.1231
    164  CA        11.7310  -27.0430   -6.9700 C.3    88  VAL88       0.1692
    165  C         12.2070  -27.7200   -5.6900 C.2    88  VAL88       0.2591
    166  O         12.2530  -27.0950   -4.6340 O.2    88  VAL88      -0.2718
    167  CB        10.2320  -26.7050   -6.8470 C.3    88  VAL88       0.0266
    168  CG1        9.7870  -25.8660   -8.0260 C.3    88  VAL88       0.0020
    169  CG2        9.3980  -27.9720   -6.7410 C.3    88  VAL88       0.0020
    170  N         12.5750  -28.9940   -5.7890 N.am   89  LYS89      -0.1980
    171  CA        12.9940  -29.7560   -4.6110 C.3    89  LYS89       0.1596
    172  C         14.4920  -29.6540   -4.3250 C.2    89  LYS89       0.2287
    173  O         14.9580  -30.0430   -3.2520 O.2    89  LYS89      -0.2864
    174  CB        12.6150  -31.2290   -4.7650 C.3    89  LYS89       0.0298
    175  CG        11.1280  -31.4930   -4.8030 C.3    89  LYS89       0.0038
    176  CD        10.8450  -32.9720   -4.6300 C.3    89  LYS89       0.0206
    177  CE        11.6230  -33.8020   -5.6390 C.3    89  LYS89       0.1093
    178  NZ        11.4860  -35.2660   -5.3780 N.3    89  LYS89      -0.1314
    179  N         16.9900  -27.5050   -3.3020 N.3    91  HIS91      -0.1241
    180  CA        17.1170  -26.1850   -2.7020 C.3    91  HIS91       0.1621
    181  C         18.5170  -25.5780   -2.7360 C.2    91  HIS91       0.2264
    182  O         18.6560  -24.3800   -2.9530 O.2    91  HIS91      -0.2867
    183  CB        16.5100  -26.1800   -1.2980 C.3    91  HIS91       0.0745
    184  CG        15.0490  -26.5410   -1.2780 C.ar   91  HIS91       0.0817
    185  ND1       14.3400  -26.7180   -0.1220 N.ar   91  HIS91      -0.2268
    186  CD2       14.1840  -26.7500   -2.3010 C.ar   91  HIS91       0.1154
    187  CE1       13.0870  -27.0240   -0.4160 C.ar   91  HIS91       0.1986
    188  NE2       12.9630  -27.0510   -1.7320 N.ar   91  HIS91      -0.2212
    189  N         18.9970  -24.2270   -6.1590 N.3    94  ILE94      -0.1231
    190  CA        18.2610  -22.9780   -6.3160 C.3    94  ILE94       0.1692
    191  C         19.0000  -21.8200   -5.6560 C.2    94  ILE94       0.2592
    192  O         19.1720  -20.7630   -6.2600 O.2    94  ILE94      -0.2718
    193  CB        16.8260  -23.0830   -5.7570 C.3    94  ILE94       0.0266
    194  CG1       16.0010  -24.0710   -6.5910 C.3    94  ILE94       0.0019
    195  CG2       16.1480  -21.7200   -5.7360 C.3    94  ILE94       0.0020
    196  CD1       14.6850  -24.4740   -5.9390 C.3    94  ILE94       0.0001
    197  N         19.4500  -22.0240   -4.4200 N.am   95  TYR95      -0.1976
    198  CA        20.2460  -21.0110   -3.7400 C.3    95  TYR95       0.1639
    199  C         21.4780  -20.6180   -4.5610 C.2    95  TYR95       0.2290
    200  O         21.7920  -19.4350   -4.7100 O.2    95  TYR95      -0.2864
    201  CB        20.6340  -21.4820   -2.3290 C.3    95  TYR95       0.0560
    202  CG        19.7420  -20.8730   -1.2720 C.ar   95  TYR95      -0.0198
    203  CD1       18.3790  -21.1360   -1.2580 C.ar   95  TYR95      -0.0009
    204  CD2       20.2530  -20.0020   -0.3150 C.ar   95  TYR95      -0.0009
    205  CE1       17.5470  -20.5600   -0.3130 C.ar   95  TYR95       0.0417
    206  CE2       19.4280  -19.4230    0.6370 C.ar   95  TYR95       0.0417
    207  CZ        18.0770  -19.7040    0.6270 C.ar   95  TYR95       0.1957
    208  OH        17.2460  -19.1270    1.5560 O.3    95  TYR95      -0.2866
@<TRIPOS>BOND
     1   133   134    1
     2   135   134    1
     3   135   136    2
     4   134   137    1
     5   143   144    2
     6   143   142    1
     7   141   142    1
     8   137   138    1
     9   152   153    1
    10   142   145    1
    11   145   146    1
    12   138   140    1
    13   138   139    1
    14   111   112    1
    15   153   156    1
    16   153   154    1
    17   158   160   ar
    18   158   157   ar
    19   112   113    1
    20   112   115    1
    21   113   114    2
    22   146   148   ar
    23   146   147   ar
    24   160   162   ar
    25   156   157    1
    26   155   154    2
    27    98    97    2
    28   157   159   ar
    29   148   150   ar
    30   147   149   ar
    31   106   105    2
    32   115   116    1
    33    97    96    1
    34    97   103   am
    35   162   161   ar
    36    96    95    1
    37    96    99    1
    38   117   116   ar
    39   117   119   ar
    40   105   104    1
    41   101    99    1
    42   150   151   ar
    43   159   161   ar
    44   125   126    2
    45   125   124    1
    46   149   151   ar
    47   100    99    1
    48   100   102    1
    49   116   118   ar
    50   123   124    1
    51   119   121   ar
    52   104   103    1
    53   104   107    1
    54   124   127    1
    55   118   120   ar
    56   121   120   ar
    57   121   122    1
    58    81    79    1
    59    89    88    2
    60   107   108    1
    61   127   128    1
    62   163   164    1
    63   168   167    1
    64    77    76    2
    65   108   109    1
    66    88    87    1
    67   130   128   ar
    68   130   132   ar
    69   128   129   ar
    70   164   167    1
    71   164   165    1
    72    85    84    2
    73    79    80    1
    74    79    78    1
    75   167   169    1
    76    76    75    1
    77    76    82   am
    78   194   196    1
    79   194   193    1
    80    75    78    1
    81    75    74    1
    82   190   189    1
    83   190   193    1
    84   190   191    1
    85   192   191    2
    86    84    86   am
    87    84    83    1
    88    87    86    1
    89    87    90    1
    90   132   131   ar
    91   109   110    1
    92   129   131   ar
    93   170   165   am
    94   170   171    1
    95   193   195    1
    96   165   166    2
    97    83    82    1
    98   191   197   am
    99   177   178    1
   100   177   176    1
   101    90    91    1
   102   175   174    1
   103   175   176    1
   104   174   171    1
   105   200   199    2
   106   171   172    1
   107   199   198    1
   108   197   198    1
   109   172   173    2
   110    94    92   am
   111    91    92    1
   112    92    93    2
   113   198   201    1
   114   179   180    1
   115    66    65    2
   116    58    57    2
   117   182   181    2
   118    61    60    1
   119   181   180    1
   120   180   183    1
   121    65    64    1
   122   201   202    1
   123   186   188   ar
   124   186   184   ar
   125    57    56    1
   126    57    63   am
   127    56    55    1
   128    56    59    1
   129    62    60    1
   130   188   187   ar
   131    60    59    1
   132   183   184    1
   133   184   185   ar
   134   202   203   ar
   135   202   204   ar
   136   203   205   ar
   137    64    63    1
   138    64    67    1
   139    44    43    2
   140    72    70   ar
   141    72    73   ar
   142   187   185   ar
   143    70    68   ar
   144   204   206   ar
   145   205   207   ar
   146    45    43   am
   147    73    71   ar
   148    68    67    1
   149    68    69   ar
   150    43    42    1
   151    71    69   ar
   152    22    20    1
   153   207   206   ar
   154   207   208    1
   155    21    20    1
   156    42    41    1
   157    20    17    1
   158    41    38    1
   159     6     5    1
   160     6     7    1
   161    36    34    1
   162    35    34    1
   163     5     2    1
   164    34    31    1
   165    19    18    2
   166    17    16    1
   167    17    18    1
   168    40    39    2
   169     8     7    1
   170    18    23   am
   171    38    39    1
   172    38    37    1
   173     1     2    1
   174     2     3    1
   175    31    30    1
   176    31    32    1
   177    26    25    2
   178    23    24    1
   179    53    52    2
   180    25    30   am
   181    25    24    1
   182    14    13    1
   183    24    27    1
   184    51    52    1
   185    51    50    1
   186    52    54   am
   187    47    50    1
   188    47    48    1
   189    47    46    1
   190    49    48    2
   191    32    33    2
   192     3     4    2
   193    13    15    1
   194    13    10    1
   195    27    29    1
   196    27    28    1
   197    10     9    1
   198    10    11    1
   199    11    12    2
