@<TRIPOS>MOLECULE
tmp/4odfA00.pdb
 197 191 0 0 0
SMALL
GASTEIGER

@<TRIPOS>ATOM
      1  N          8.9350  -16.7380    2.6540 N.3     3  VAL3       -0.1231
      2  CA         8.7710  -18.1820    2.7560 C.3     3  VAL3        0.1692
      3  C         10.1030  -18.8390    3.0950 C.2     3  VAL3        0.2593
      4  O         11.1480  -18.5110    2.5240 O.2     3  VAL3       -0.2718
      5  CB         8.1260  -18.8160    1.4930 C.3     3  VAL3        0.0266
      6  CG1        8.9760  -18.5860    0.2640 C.3     3  VAL3        0.0020
      7  CG2        7.8850  -20.3080    1.7090 C.3     3  VAL3        0.0020
      8  N         10.0590  -19.7420    4.0670 N.am    4  THR4       -0.1939
      9  CA        11.2400  -20.4510    4.5240 C.3     4  THR4        0.2028
     10  C         11.1580  -21.9210    4.1340 C.2     4  THR4        0.2643
     11  O         10.0950  -22.4240    3.7730 O.2     4  THR4       -0.2714
     12  CB        11.4010  -20.3580    6.0600 C.3     4  THR4        0.1808
     13  OG1       10.1890  -20.7850    6.6900 O.3     4  THR4       -0.2208
     14  CG2       11.7170  -18.9250    6.4970 C.3     4  THR4        0.0379
     15  N         12.2820  -22.6160    4.2190 N.am    5  THR5       -0.1936
     16  CA        12.3040  -24.0310    3.8990 C.3     5  THR5        0.2028
     17  C         13.2050  -24.8040    4.8490 C.2     5  THR5        0.2643
     18  O         14.1960  -24.2750    5.3480 O.2     5  THR5       -0.2714
     19  CB        12.7860  -24.2640    2.4630 C.3     5  THR5        0.1808
     20  OG1       13.1350  -25.6430    2.2950 O.3     5  THR5       -0.2208
     21  CG2       14.0080  -23.4190    2.1720 C.3     5  THR5        0.0379
     22  N         12.8580  -26.0650    5.0750 N.am    6  SER6       -0.1935
     23  CA        13.6050  -26.9390    5.9690 C.3     6  SER6        0.2055
     24  C         14.9580  -27.3700    5.4040 C.2     6  SER6        0.2642
     25  O         15.7750  -27.9520    6.1150 O.2     6  SER6       -0.2714
     26  CB        12.7700  -28.1810    6.2770 C.3     6  SER6        0.2130
     27  OG        12.3890  -28.8270    5.0720 O.3     6  SER6       -0.2179
     28  N         15.1960  -27.0890    4.1270 N.am    7  GLN7       -0.1976
     29  CA        16.3960  -27.5770    3.4510 C.3     7  GLN7        0.1601
     30  C         17.5860  -26.6270    3.5820 C.2     7  GLN7        0.2287
     31  O         18.7300  -27.0160    3.3570 O.2     7  GLN7       -0.2864
     32  CB        16.1010  -27.8250    1.9750 C.3     7  GLN7        0.0394
     33  CG        14.9400  -28.7660    1.7090 C.3     7  GLN7        0.0908
     34  CD        14.7780  -29.0410    0.2290 C.2     7  GLN7        0.2608
     35  OE1       15.6940  -28.8020   -0.5550 O.2     7  GLN7       -0.2717
     36  NE2       13.6120  -29.5400   -0.1610 N.am    7  GLN7       -0.0878
     37  N         12.4690  -15.0790   -1.9280 N.3    43  LEU43      -0.1231
     38  CA        11.8580  -16.3480   -2.2960 C.3    43  LEU43       0.1693
     39  C         10.3430  -16.2400   -2.3300 C.2    43  LEU43       0.2592
     40  O          9.6850  -16.8660   -3.1590 O.2    43  LEU43      -0.2718
     41  CB        12.2880  -17.4540   -1.3330 C.3    43  LEU43       0.0284
     42  CG        13.5110  -18.2630   -1.7560 C.3    43  LEU43       0.0019
     43  CD1       13.2340  -18.9660   -3.0660 C.3    43  LEU43       0.0001
     44  CD2       14.7310  -17.3820   -1.8890 C.3    43  LEU43       0.0001
     45  N          9.7880  -15.4460   -1.4230 N.am   44  PHE44      -0.1976
     46  CA         8.3460  -15.2480   -1.3910 C.3    44  PHE44       0.1639
     47  C          7.8650  -14.5700   -2.6600 C.2    44  PHE44       0.2290
     48  O          6.8630  -14.9690   -3.2430 O.2    44  PHE44      -0.2864
     49  CB         7.9380  -14.3940   -0.1960 C.3    44  PHE44       0.0560
     50  CG         6.5450  -13.8430   -0.3000 C.ar   44  PHE44      -0.0200
     51  CD1        5.4500  -14.6470   -0.0440 C.ar   44  PHE44      -0.0042
     52  CD2        6.3320  -12.5220   -0.6700 C.ar   44  PHE44      -0.0042
     53  CE1        4.1710  -14.1470   -0.1550 C.ar   44  PHE44      -0.0003
     54  CE2        5.0560  -12.0140   -0.7730 C.ar   44  PHE44      -0.0003
     55  CZ         3.9730  -12.8260   -0.5210 C.ar   44  PHE44      -0.0000
     56  N          9.5400  -14.1950   -5.5640 N.3    46  LEU46      -0.1231
     57  CA         9.8270  -15.0150   -6.7320 C.3    46  LEU46       0.1693
     58  C          8.7680  -16.0890   -6.8730 C.2    46  LEU46       0.2593
     59  O          8.3850  -16.4480   -7.9820 O.2    46  LEU46      -0.2718
     60  CB        11.2110  -15.6530   -6.6390 C.3    46  LEU46       0.0284
     61  CG        12.3810  -14.7410   -6.9910 C.3    46  LEU46       0.0019
     62  CD1       13.6850  -15.5140   -6.9300 C.3    46  LEU46       0.0001
     63  CD2       12.1750  -14.1320   -8.3700 C.3    46  LEU46       0.0001
     64  N          8.2880  -16.5890   -5.7420 N.am   47  GLY47      -0.1942
     65  CA         7.2350  -17.5830   -5.7410 C.3    47  GLY47       0.2014
     66  C          5.9410  -16.9930   -6.2590 C.2    47  GLY47       0.2638
     67  O          5.2300  -17.6270   -7.0360 O.2    47  GLY47      -0.2714
     68  N          5.6410  -15.7720   -5.8260 N.am   48  GLN48      -0.1977
     69  CA         4.4360  -15.0700   -6.2570 C.3    48  GLN48       0.1601
     70  C          4.4400  -14.8700   -7.7580 C.2    48  GLN48       0.2287
     71  O          3.5090  -15.2250   -8.4610 O.2    48  GLN48      -0.2864
     72  CB         4.3450  -13.7130   -5.5570 C.3    48  GLN48       0.0394
     73  CG         3.9770  -13.8260   -4.1070 C.3    48  GLN48       0.0908
     74  CD         2.6290  -14.4630   -3.9300 C.2    48  GLN48       0.2608
     75  OE1        1.6360  -13.9630   -4.4440 O.2    48  GLN48      -0.2717
     76  NE2        2.5800  -15.5760   -3.2030 N.am   48  GLN48      -0.0878
     77  N          6.2980  -16.3920  -10.0540 N.3    50  ILE50      -0.1231
     78  CA         6.2150  -17.6820  -10.7270 C.3    50  ILE50       0.1692
     79  C          4.7660  -18.1190  -10.8960 C.2    50  ILE50       0.2591
     80  O          4.3990  -18.6950  -11.9240 O.2    50  ILE50      -0.2718
     81  CB         7.0190  -18.7510   -9.9630 C.3    50  ILE50       0.0266
     82  CG1        8.5110  -18.5960  -10.2580 C.3    50  ILE50       0.0019
     83  CG2        6.5710  -20.1530  -10.3430 C.3    50  ILE50       0.0020
     84  CD1        9.3870  -19.5060   -9.4410 C.3    50  ILE50       0.0001
     85  N          3.9320  -17.8110   -9.9060 N.am   51  MET51      -0.1979
     86  CA         2.5290  -18.2040   -9.9700 C.3    51  MET51       0.1605
     87  C          1.5950  -17.1810  -10.6210 C.2    51  MET51       0.2287
     88  O          0.5500  -17.5590  -11.1470 O.2    51  MET51      -0.2864
     89  CB         2.0170  -18.6410   -8.5960 C.3    51  MET51       0.0413
     90  CG         2.5100  -20.0240   -8.1960 C.3    51  MET51       0.0598
     91  SD         2.0350  -20.4660   -6.5270 S.3    51  MET51      -0.1393
     92  CE         2.5740  -19.0010   -5.6530 C.3    51  MET51       0.0692
     93  N          4.1560  -22.2380  -13.1990 N.3    56  TYR56      -0.1241
     94  CA         4.0600  -23.4320  -12.3710 C.3    56  TYR56       0.1605
     95  C          2.5960  -23.8010  -12.1850 C.2    56  TYR56       0.2264
     96  O          2.0960  -23.8580  -11.0680 O.2    56  TYR56      -0.2867
     97  CB         4.7340  -23.1770  -11.0230 C.3    56  TYR56       0.0534
     98  CG         4.8360  -24.3790  -10.1060 C.ar   56  TYR56      -0.0201
     99  CD1        5.4580  -25.5500  -10.5220 C.ar   56  TYR56      -0.0009
    100  CD2        4.3320  -24.3280   -8.8120 C.ar   56  TYR56      -0.0009
    101  CE1        5.5580  -26.6440   -9.6820 C.ar   56  TYR56       0.0417
    102  CE2        4.4310  -25.4130   -7.9650 C.ar   56  TYR56       0.0417
    103  CZ         5.0440  -26.5680   -8.4020 C.ar   56  TYR56       0.1957
    104  OH         5.1380  -27.6470   -7.5550 O.3    56  TYR56      -0.2866
    105  N          6.2600  -30.6030   -9.8500 N.3    62  HIS62      -0.1241
    106  CA         7.2690  -29.8010   -9.1700 C.3    62  HIS62       0.1621
    107  C          8.3400  -29.2710  -10.1000 C.2    62  HIS62       0.2264
    108  O          9.5170  -29.2280   -9.7350 O.2    62  HIS62      -0.2867
    109  CB         7.9240  -30.6060   -8.0480 C.3    62  HIS62       0.0745
    110  CG         6.9760  -31.0100   -6.9680 C.ar   62  HIS62       0.0817
    111  ND1        6.0690  -32.0400   -7.1160 N.ar   62  HIS62      -0.2268
    112  CD2        6.7830  -30.5170   -5.7230 C.ar   62  HIS62       0.1154
    113  CE1        5.3670  -32.1650   -6.0110 C.ar   62  HIS62       0.1986
    114  NE2        5.7760  -31.2540   -5.1450 N.ar   62  HIS62      -0.2212
    115  N          9.2150  -25.9090  -12.6080 N.3    64  VAL64      -0.1245
    116  CA         8.8830  -24.6120  -13.1710 C.3    64  VAL64       0.1561
    117  C          9.5230  -24.4910  -14.5420 C.2    64  VAL64       0.2260
    118  O         10.7450  -24.5110  -14.6670 O.2    64  VAL64      -0.2867
    119  CB         9.3390  -23.4480  -12.2740 C.3    64  VAL64       0.0252
    120  CG1        9.2970  -22.1370  -13.0520 C.3    64  VAL64       0.0019
    121  CG2        8.4600  -23.3620  -11.0460 C.3    64  VAL64       0.0019
    122  N         12.4690  -15.2480  -15.9430 N.3    71  LEU71      -0.1245
    123  CA        13.0340  -16.0910  -14.8980 C.3    71  LEU71       0.1561
    124  C         14.0950  -17.0180  -15.4750 C.2    71  LEU71       0.2260
    125  O         15.1280  -17.2620  -14.8520 O.2    71  LEU71      -0.2867
    126  CB        11.9310  -16.9090  -14.2290 C.3    71  LEU71       0.0270
    127  CG        12.3520  -17.7860  -13.0520 C.3    71  LEU71       0.0019
    128  CD1       12.8280  -16.9290  -11.8960 C.3    71  LEU71       0.0001
    129  CD2       11.2020  -18.6780  -12.6320 C.3    71  LEU71       0.0001
    130  N         17.8380  -17.0730  -14.2160 N.3    75  PHE75      -0.1241
    131  CA        18.4520  -18.2960  -13.7200 C.3    75  PHE75       0.1605
    132  C         19.4310  -18.9010  -14.7170 C.2    75  PHE75       0.2264
    133  O         20.4180  -19.5140  -14.3250 O.2    75  PHE75      -0.2867
    134  CB        17.3820  -19.3180  -13.3420 C.3    75  PHE75       0.0534
    135  CG        16.6930  -19.0210  -12.0440 C.ar   75  PHE75      -0.0203
    136  CD1       15.5540  -19.7120  -11.6750 C.ar   75  PHE75      -0.0042
    137  CD2       17.1870  -18.0520  -11.1890 C.ar   75  PHE75      -0.0042
    138  CE1       14.9220  -19.4470  -10.4800 C.ar   75  PHE75      -0.0003
    139  CE2       16.5560  -17.7800   -9.9960 C.ar   75  PHE75      -0.0003
    140  CZ        15.4210  -18.4780   -9.6420 C.ar   75  PHE75      -0.0000
    141  N         13.4880  -25.8520  -13.8130 N.3    80  PHE80      -0.1241
    142  CA        14.1050  -26.3350  -12.5890 C.3    80  PHE80       0.1605
    143  C         13.0740  -26.9690  -11.6670 C.2    80  PHE80       0.2264
    144  O         11.8670  -26.7500  -11.8200 O.2    80  PHE80      -0.2867
    145  CB        14.8480  -25.2070  -11.8680 C.3    80  PHE80       0.0534
    146  CG        13.9570  -24.0950  -11.3950 C.ar   80  PHE80      -0.0203
    147  CD1       13.3750  -24.1400  -10.1410 C.ar   80  PHE80      -0.0042
    148  CD2       13.7100  -22.9990  -12.2010 C.ar   80  PHE80      -0.0042
    149  CE1       12.5570  -23.1180   -9.7040 C.ar   80  PHE80      -0.0003
    150  CE2       12.8930  -21.9730  -11.7660 C.ar   80  PHE80      -0.0003
    151  CZ        12.3180  -22.0330  -10.5210 C.ar   80  PHE80      -0.0000
    152  N         11.2650  -27.4090   -8.0610 N.3    82  VAL82      -0.1231
    153  CA        10.9520  -26.5550   -6.9300 C.3    82  VAL82       0.1692
    154  C         11.2930  -27.2780   -5.6360 C.2    82  VAL82       0.2591
    155  O         11.2120  -26.7000   -4.5550 O.2    82  VAL82      -0.2718
    156  CB         9.4780  -26.1470   -6.9270 C.3    82  VAL82       0.0266
    157  CG1        9.1080  -25.5720   -8.2770 C.3    82  VAL82       0.0020
    158  CG2        8.6040  -27.3410   -6.6100 C.3    82  VAL82       0.0020
    159  N         11.6830  -28.5440   -5.7630 N.am   83  LYS83      -0.1980
    160  CA        12.0580  -29.3720   -4.6210 C.3    83  LYS83       0.1596
    161  C         13.5460  -29.2450   -4.3050 C.2    83  LYS83       0.2287
    162  O         13.9820  -29.5530   -3.1960 O.2    83  LYS83      -0.2864
    163  CB        11.7270  -30.8390   -4.8970 C.3    83  LYS83       0.0298
    164  CG        10.2650  -31.1130   -5.2000 C.3    83  LYS83       0.0038
    165  CD        10.0720  -32.5510   -5.6550 C.3    83  LYS83       0.0206
    166  CE        10.4460  -33.5380   -4.5590 C.3    83  LYS83       0.1093
    167  NZ         9.4350  -33.5630   -3.4650 N.3    83  LYS83      -0.1314
    168  N         16.0020  -27.0140   -3.3410 N.3    85  HIS85      -0.1241
    169  CA        16.0950  -25.6710   -2.7810 C.3    85  HIS85       0.1621
    170  C         17.4870  -25.0630   -2.7580 C.2    85  HIS85       0.2264
    171  O         17.6320  -23.8600   -2.9630 O.2    85  HIS85      -0.2867
    172  CB        15.4610  -25.6270   -1.3910 C.3    85  HIS85       0.0745
    173  CG        14.0030  -25.9750   -1.3900 C.ar   85  HIS85       0.0817
    174  ND1       13.1840  -25.7320   -0.3150 N.ar   85  HIS85      -0.2268
    175  CD2       13.2290  -26.5490   -2.3390 C.ar   85  HIS85       0.1154
    176  CE1       11.9560  -26.1430   -0.5990 C.ar   85  HIS85       0.1986
    177  NE2       11.9580  -26.6400   -1.8210 N.ar   85  HIS85      -0.2212
    178  N         18.1690  -23.5330   -6.0830 N.3    88  ILE88      -0.1231
    179  CA        17.3930  -22.3210   -6.2870 C.3    88  ILE88       0.1692
    180  C         18.0820  -21.1260   -5.6420 C.2    88  ILE88       0.2592
    181  O         18.2630  -20.0900   -6.2830 O.2    88  ILE88      -0.2718
    182  CB        15.9680  -22.4790   -5.7420 C.3    88  ILE88       0.0266
    183  CG1       15.2200  -23.5260   -6.5670 C.3    88  ILE88       0.0019
    184  CG2       15.2350  -21.1530   -5.7750 C.3    88  ILE88       0.0020
    185  CD1       13.7680  -23.6880   -6.1910 C.3    88  ILE88       0.0001
    186  N         18.4780  -21.2830   -4.3820 N.am   89  TYR89      -0.1976
    187  CA        19.2560  -20.2620   -3.6920 C.3    89  TYR89       0.1639
    188  C         20.5290  -19.9320   -4.4590 C.2    89  TYR89       0.2290
    189  O         20.8890  -18.7640   -4.6020 O.2    89  TYR89      -0.2864
    190  CB        19.6000  -20.7110   -2.2680 C.3    89  TYR89       0.0560
    191  CG        18.6660  -20.1590   -1.2220 C.ar   89  TYR89      -0.0198
    192  CD1       17.3200  -20.4800   -1.2340 C.ar   89  TYR89      -0.0009
    193  CD2       19.1310  -19.3210   -0.2170 C.ar   89  TYR89      -0.0009
    194  CE1       16.4570  -19.9820   -0.2770 C.ar   89  TYR89       0.0417
    195  CE2       18.2720  -18.8140    0.7480 C.ar   89  TYR89       0.0417
    196  CZ        16.9370  -19.1500    0.7080 C.ar   89  TYR89       0.1957
    197  OH        16.0680  -18.6580    1.6500 O.3    89  TYR89      -0.2866
@<TRIPOS>BOND
     1   122   123    1
     2   124   123    1
     3   124   125    2
     4   123   126    1
     5   132   133    2
     6   132   131    1
     7   118   117    2
     8   117   116    1
     9   126   127    1
    10   130   131    1
    11   141   142    1
    12   131   134    1
    13   134   135    1
    14    93    94    1
    15   116   115    1
    16   116   119    1
    17   120   119    1
    18   127   129    1
    19   127   128    1
    20   142   145    1
    21   142   143    1
    22    94    95    1
    23    94    97    1
    24   119   121    1
    25   148   150   ar
    26   148   146   ar
    27    95    96    2
    28   135   136   ar
    29   135   137   ar
    30    80    79    2
    31   145   146    1
    32   144   143    2
    33   150   151   ar
    34   136   138   ar
    35   146   147   ar
    36   137   139   ar
    37    88    87    2
    38    97    98    1
    39    79    78    1
    40    79    85   am
    41    78    77    1
    42    78    81    1
    43    87    86    1
    44    99    98   ar
    45    99   101   ar
    46   151   149   ar
    47   138   140   ar
    48    83    81    1
    49    82    81    1
    50    82    84    1
    51   147   149   ar
    52    98   100   ar
    53   107   108    2
    54   107   106    1
    55   139   140   ar
    56    86    85    1
    57    86    89    1
    58   105   106    1
    59   101   103   ar
    60   106   109    1
    61   100   102   ar
    62    89    90    1
    63    71    70    2
    64   103   102   ar
    65   103   104    1
    66    63    61    1
    67   157   156    1
    68    90    91    1
    69   152   153    1
    70   109   110    1
    71    59    58    2
    72    70    69    1
    73   111   110   ar
    74   111   113   ar
    75    67    66    2
    76    61    62    1
    77    61    60    1
    78   110   112   ar
    79   153   156    1
    80   153   154    1
    81   156   158    1
    82    58    57    1
    83    58    64   am
    84    57    60    1
    85    57    56    1
    86   183   185    1
    87   183   182    1
    88    91    92    1
    89   179   178    1
    90   179   182    1
    91   179   180    1
    92   181   180    2
    93    66    68   am
    94    66    65    1
    95    69    68    1
    96    69    72    1
    97   113   114   ar
    98   184   182    1
    99   159   154   am
   100   159   160    1
   101    64    65    1
   102   112   114   ar
   103   165   164    1
   104   165   166    1
   105   180   186   am
   106   154   155    2
   107    72    73    1
   108   164   163    1
   109   163   160    1
   110   160   161    1
   111   189   188    2
   112   166   167    1
   113   188   187    1
   114    75    74    2
   115   186   187    1
   116   161   162    2
   117    73    74    1
   118    74    76   am
   119   187   190    1
   120   168   169    1
   121    48    47    2
   122    40    39    2
   123    43    42    1
   124   171   170    2
   125   169   170    1
   126   169   172    1
   127    47    46    1
   128   175   177   ar
   129   175   173   ar
   130    39    38    1
   131    39    45   am
   132    38    37    1
   133    38    41    1
   134   190   191    1
   135    44    42    1
   136   177   176   ar
   137    42    41    1
   138    45    46    1
   139    46    49    1
   140   172   173    1
   141   173   174   ar
   142   192   191   ar
   143   192   194   ar
   144   191   193   ar
   145    54    52   ar
   146    54    55   ar
   147    52    50   ar
   148   176   174   ar
   149    35    34    2
   150    55    53   ar
   151    50    49    1
   152    50    51   ar
   153   194   196   ar
   154   193   195   ar
   155    36    34   am
   156    53    51   ar
   157    34    33    1
   158     6     5    1
   159   196   195   ar
   160   196   197    1
   161     5     7    1
   162     5     2    1
   163    33    32    1
   164    32    29    1
   165    21    19    1
   166    20    19    1
   167    19    16    1
   168     4     3    2
   169     1     2    1
   170     2     3    1
   171     3     8   am
   172    31    30    2
   173    29    30    1
   174    29    28    1
   175    11    10    2
   176    16    15    1
   177    16    17    1
   178     8     9    1
   179    28    24   am
   180    10    15   am
   181    10     9    1
   182     9    12    1
   183    17    22   am
   184    17    18    2
   185    27    26    1
   186    22    23    1
   187    24    23    1
   188    24    25    2
   189    23    26    1
   190    12    14    1
   191    12    13    1
