@<TRIPOS>MOLECULE
tmp/4odjA00.pdb
 101 97 0 0 0
SMALL
GASTEIGER

@<TRIPOS>ATOM
      1  N         84.3880   38.7240    2.1320 N.3    14  HIS14      -0.1227
      2  CA        84.2460   38.8140    0.7080 C.3    14  HIS14       0.1737
      3  C         85.6260   38.5740    0.0860 C.2    14  HIS14       0.2438
      4  O         86.6350   39.0780    0.6030 O.2    14  HIS14      -0.2733
      5  CB        83.7060   40.1930    0.3520 C.3    14  HIS14       0.0758
      6  CG        83.5330   40.3810   -1.0990 C.ar   14  HIS14       0.0818
      7  ND1       84.5980   40.5820   -1.9450 N.ar   14  HIS14      -0.2268
      8  CD2       82.4310   40.2810   -1.8840 C.ar   14  HIS14       0.1154
      9  CE1       84.1540   40.6320   -3.1850 C.ar   14  HIS14       0.1986
     10  NE2       82.8400   40.5000   -3.1710 N.ar   14  HIS14      -0.2212
     11  N         85.7050   37.7960   -0.9990 N.am   15  PRO15      -0.2729
     12  CA        87.0410   37.4030   -1.4480 C.3    15  PRO15       0.1401
     13  C         87.9580   38.5510   -1.8140 C.2    15  PRO15       0.2269
     14  O         89.1860   38.4550   -1.5810 O.2    15  PRO15      -0.2865
     15  CB        86.7920   36.4920   -2.6610 C.3    15  PRO15       0.0296
     16  CG        85.3600   36.6240   -2.9580 C.3    15  PRO15       0.0237
     17  CD        84.6180   37.1680   -1.7660 C.3    15  PRO15       0.0939
     18  N         81.1450   35.3730    3.9810 N.3   167  ASP167     -0.1239
     19  CA        80.9570   36.2230    2.8260 C.3   167  ASP167      0.1674
     20  C         79.6350   36.9990    2.9580 C.2   167  ASP167      0.2266
     21  O         78.7130   36.5870    3.6590 O.2   167  ASP167     -0.2867
     22  CB        80.9680   35.3400    1.5830 C.3   167  ASP167      0.1410
     23  CG        81.2610   36.0700    0.2890 C.2   167  ASP167      0.3668
     24  OD1       81.2880   37.3220    0.2040 O.co2 167  ASP167     -0.2456
     25  OD2       81.4170   35.2940   -0.6790 O.co2 167  ASP167     -0.2456
     26  N         77.3480   40.8300    1.2870 N.3   169  LYS169     -0.1245
     27  CA        77.3230   42.1590    0.6840 C.3   169  LYS169      0.1561
     28  C         76.0270   42.8790    1.0540 C.2   169  LYS169      0.2260
     29  O         75.0550   42.2500    1.4130 O.2   169  LYS169     -0.2867
     30  CB        77.3770   42.0880   -0.8340 C.3   169  LYS169      0.0271
     31  CG        78.5040   41.2350   -1.3910 C.3   169  LYS169      0.0035
     32  CD        78.5250   41.1100   -2.9050 C.3   169  LYS169      0.0206
     33  CE        78.8760   42.3900   -3.5940 C.3   169  LYS169      0.1093
     34  NZ        78.9400   42.1420   -5.0650 N.3   169  LYS169     -0.1314
     35  N         72.8510   40.3930    1.1830 N.3   194  SER194     -0.1217
     36  CA        73.0820   39.0010    0.8420 C.3   194  SER194      0.1889
     37  C         74.1160   38.4760    1.8010 C.2   194  SER194      0.2288
     38  O         75.2490   38.9490    1.7730 O.2   194  SER194     -0.2866
     39  CB        73.5560   38.8000   -0.5680 C.3   194  SER194      0.2089
     40  OG        72.5250   39.1190   -1.5120 O.3   194  SER194     -0.2183
     41  N         68.7140   35.8200   -3.6940 N.3   235  SER235     -0.1217
     42  CA        69.0960   34.6610   -4.4860 C.3   235  SER235      0.1889
     43  C         68.4510   33.3870   -3.9450 C.2   235  SER235      0.2288
     44  O         68.4260   32.3820   -4.6510 O.2   235  SER235     -0.2866
     45  CB        70.6180   34.4890   -4.5550 C.3   235  SER235      0.2089
     46  OG        71.1530   34.0930   -3.3130 O.3   235  SER235     -0.2183
     47  N         69.5100   31.2360   -1.8380 N.3   237  ARG237     -0.1231
     48  CA        70.4770   30.3060   -1.2930 C.3   237  ARG237      0.1694
     49  C         71.8660   30.8700   -1.5200 C.2   237  ARG237      0.2592
     50  O         72.2550   31.1260   -2.6530 O.2   237  ARG237     -0.2718
     51  CB        70.3510   28.9460   -1.9420 C.3   237  ARG237      0.0321
     52  CG        71.1160   27.8350   -1.2500 C.3   237  ARG237      0.0489
     53  CD        70.8870   26.5370   -1.9940 C.3   237  ARG237      0.2205
     54  NE        71.5760   25.4370   -1.3170 N.pl3 237  ARG237     -0.0865
     55  CZ        72.0690   24.3570   -1.9090 C.cat 237  ARG237      0.5346
     56  NH1       72.0500   24.2400   -3.2320 N.pl3 237  ARG237      0.1354
     57  NH2       72.6590   23.4310   -1.1670 N.pl3 237  ARG237      0.1354
     58  N         72.6430   30.9650   -0.4500 N.am  238  PHE238     -0.1962
     59  CA        73.9800   31.5010   -0.4970 C.3   238  PHE238      0.1771
     60  C         74.7820   30.7280    0.5450 C.2   238  PHE238      0.2620
     61  O         75.1270   31.2350    1.6050 O.2   238  PHE238     -0.2715
     62  CB        73.9050   33.0070   -0.2110 C.3   238  PHE238      0.0574
     63  CG        75.2190   33.7760   -0.3150 C.ar  238  PHE238     -0.0200
     64  CD1       76.4150   33.1810   -0.7050 C.ar  238  PHE238     -0.0042
     65  CD2       75.2410   35.1250    0.0230 C.ar  238  PHE238     -0.0042
     66  CE1       77.5780   33.9190   -0.7870 C.ar  238  PHE238     -0.0003
     67  CE2       76.4050   35.8690   -0.0270 C.ar  238  PHE238     -0.0003
     68  CZ        77.5820   35.2780   -0.4580 C.ar  238  PHE238     -0.0000
     69  N         75.0910   29.4850    0.2180 N.am  239  THR239     -0.1937
     70  CA        75.8650   28.6550    1.1230 C.3   239  THR239      0.2028
     71  C         77.2860   28.5070    0.6460 C.2   239  THR239      0.2642
     72  O         78.1930   28.3850    1.4570 O.2   239  THR239     -0.2714
     73  CB        75.2270   27.2640    1.3460 C.3   239  THR239      0.1808
     74  OG1       75.2630   26.4980    0.1360 O.3   239  THR239     -0.2208
     75  CG2       73.8100   27.4280    1.8200 C.3   239  THR239      0.0379
     76  N         77.4920   28.5190   -0.6700 N.am  240  ILE240     -0.1977
     77  CA        78.8250   28.4320   -1.2600 C.3   240  ILE240      0.1596
     78  C         79.2640   29.8600   -1.4950 C.2   240  ILE240      0.2287
     79  O         78.5790   30.6510   -2.1620 O.2   240  ILE240     -0.2864
     80  CB        78.8370   27.6640   -2.5980 C.3   240  ILE240      0.0276
     81  CG1       78.1890   26.2910   -2.4390 C.3   240  ILE240      0.0022
     82  CG2       80.2300   27.5670   -3.1930 C.3   240  ILE240      0.0022
     83  CD1       78.7200   25.4130   -1.3290 C.3   240  ILE240      0.0001
     84  N         83.3050   30.4360   -4.5260 N.3   245  ALA245     -0.1231
     85  CA        82.3510   30.9020   -5.5180 C.3   245  ALA245      0.1694
     86  C         82.8280   32.0480   -6.4020 C.2   245  ALA245      0.2592
     87  O         82.1990   32.3500   -7.4190 O.2   245  ALA245     -0.2718
     88  CB        81.0910   31.3250   -4.8210 C.3   245  ALA245      0.0304
     89  N         83.8720   32.7670   -5.9850 N.am  246  ASP246     -0.1960
     90  CA        84.2210   34.0060   -6.6640 C.3   246  ASP246      0.1840
     91  C         85.6870   34.3470   -6.3900 C.2   246  ASP246      0.2621
     92  O         86.1020   34.3730   -5.2440 O.2   246  ASP246     -0.2715
     93  CB        83.2950   35.1220   -6.1230 C.3   246  ASP246      0.1450
     94  CG        83.4200   36.4410   -6.8520 C.2   246  ASP246      0.3671
     95  OD1       83.6530   36.4340   -8.0660 O.co2 246  ASP246     -0.2456
     96  OD2       83.2540   37.5260   -6.1790 O.co2 246  ASP246     -0.2456
     97  N         86.4680   34.6100   -7.4330 N.am  247  ALA247     -0.1977
     98  CA        87.8590   34.9810   -7.2470 C.3   247  ALA247      0.1597
     99  C         87.9670   36.3380   -6.5660 C.2   247  ALA247      0.2287
    100  O         87.1440   37.2330   -6.7600 O.2   247  ALA247     -0.2864
    101  CB        88.5610   35.0740   -8.5900 C.3   247  ALA247      0.0319
@<TRIPOS>BOND
     1   101    98    1
     2    95    94   ar
     3    97    98    1
     4    97    91   am
     5    87    86    2
     6    98    99    1
     7    94    96   ar
     8    94    93    1
     9   100    99    2
    10    90    91    1
    11    90    93    1
    12    90    89    1
    13    86    89   am
    14    86    85    1
    15    91    92    2
    16    85    88    1
    17    85    84    1
    18    34    33    1
    19    44    43    2
    20    45    42    1
    21    45    46    1
    22    42    43    1
    23    42    41    1
    24    33    32    1
    25    56    55    1
    26    82    80    1
    27     9    10   ar
    28     9     7   ar
    29    10     8   ar
    30    16    15    1
    31    16    17    1
    32    32    31    1
    33    15    12    1
    34    50    49    2
    35    80    81    1
    36    80    77    1
    37    81    83    1
    38    79    78    2
    39    53    54    1
    40    53    52    1
    41     7     6   ar
    42    51    48    1
    43    51    52    1
    44    55    54    2
    45    55    57    1
    46     8     6   ar
    47    47    48    1
    48    13    14    2
    49    13    12    1
    50    17    11    1
    51    49    48    1
    52    49    58   am
    53    40    39    1
    54    78    77    1
    55    12    11    1
    56    31    30    1
    57    77    76    1
    58     6     5    1
    59    11     3   am
    60    30    27    1
    61    66    64   ar
    62    66    68   ar
    63    64    63   ar
    64    25    23   ar
    65    76    71   am
    66    39    36    1
    67    59    58    1
    68    59    62    1
    69    59    60    1
    70    68    67   ar
    71    63    62    1
    72    63    65   ar
    73    67    65   ar
    74     3     4    2
    75     3     2    1
    76    74    73    1
    77    24    23   ar
    78    69    60   am
    79    69    70    1
    80    23    22    1
    81     5     2    1
    82    60    61    2
    83    71    70    1
    84    71    72    2
    85    27    28    1
    86    27    26    1
    87     2     1    1
    88    36    35    1
    89    36    37    1
    90    28    29    2
    91    70    73    1
    92    73    75    1
    93    22    19    1
    94    38    37    2
    95    19    20    1
    96    19    18    1
    97    20    21    2
