@<TRIPOS>MOLECULE
tmp/4odkA00.pdb
 147 148 0 0 0
SMALL
GASTEIGER

@<TRIPOS>ATOM
      1  N         -5.3750    6.6760   19.8650 N.3    72  GLN72      -0.1231
      2  CA        -6.6090    7.4540   19.8320 C.3    72  GLN72       0.1698
      3  C         -7.8010    6.5600   19.5580 C.2    72  GLN72       0.2592
      4  O         -7.6630    5.4720   18.9880 O.2    72  GLN72      -0.2718
      5  CB        -6.5120    8.5380   18.7470 C.3    72  GLN72       0.0381
      6  CG        -5.4060    9.5500   19.0140 C.3    72  GLN72       0.0905
      7  CD        -5.0380   10.3820   17.8150 C.2    72  GLN72       0.2608
      8  OE1       -5.8420   10.5780   16.9000 O.2    72  GLN72      -0.2717
      9  NE2       -3.8030   10.8710   17.8040 N.am   72  GLN72      -0.0878
     10  N         -8.9820    7.0360   19.9410 N.am   73  VAL73      -0.1966
     11  CA       -10.2190    6.3360   19.6340 C.3    73  VAL73       0.1727
     12  C        -10.9060    7.0510   18.4870 C.2    73  VAL73       0.2616
     13  O        -11.1020    8.2710   18.5270 O.2    73  VAL73      -0.2715
     14  CB       -11.1790    6.3190   20.8370 C.3    73  VAL73       0.0290
     15  CG1      -12.4800    5.5940   20.4730 C.3    73  VAL73       0.0023
     16  CG2      -10.5190    5.6640   22.0420 C.3    73  VAL73       0.0023
     17  N        -11.2860    6.2800   17.4760 N.am   74  VAL74      -0.1964
     18  CA       -11.9040    6.8100   16.2560 C.3    74  VAL74       0.1712
     19  C        -13.1330    5.9640   15.9090 C.2    74  VAL74       0.2458
     20  O        -13.2570    4.8340   16.3700 O.2    74  VAL74      -0.2730
     21  CB       -10.8920    6.8260   15.0820 C.3    74  VAL74       0.0289
     22  CG1       -9.6650    7.6700   15.4360 C.3    74  VAL74       0.0023
     23  CG2      -10.5150    5.4110   14.6680 C.3    74  VAL74       0.0023
     24  N        -14.0510    6.5020   15.0910 N.am   75  PRO75      -0.2727
     25  CA       -15.2620    5.7240   14.7830 C.3    75  PRO75       0.1402
     26  C        -15.0430    4.5960   13.7820 C.2    75  PRO75       0.2269
     27  O        -14.3100    4.7400   12.8030 O.2    75  PRO75      -0.2865
     28  CB       -16.2210    6.7650   14.2030 C.3    75  PRO75       0.0296
     29  CG       -15.3650    7.8610   13.7310 C.3    75  PRO75       0.0237
     30  CD       -14.1000    7.8660   14.5400 C.3    75  PRO75       0.0939
     31  N        -17.1560    3.7440   11.7160 N.3    77  SER77      -0.1202
     32  CA       -17.7520    4.2850   10.4920 C.3    77  SER77       0.2020
     33  C        -16.7340    4.9470    9.5630 C.2    77  SER77       0.2619
     34  O        -17.0100    5.1640    8.3830 O.2    77  SER77      -0.2717
     35  CB       -18.8470    5.2930   10.8400 C.3    77  SER77       0.2103
     36  OG       -19.9020    4.6860   11.5610 O.3    77  SER77      -0.2182
     37  N        -15.5620    5.2950   10.0930 N.am   78  ALA78      -0.1965
     38  CA       -14.5110    5.9300    9.2930 C.3    78  ALA78       0.1728
     39  C        -13.7550    4.9620    8.3830 C.2    78  ALA78       0.2616
     40  O        -13.0070    5.3900    7.5070 O.2    78  ALA78      -0.2715
     41  CB       -13.5180    6.6670   10.1950 C.3    78  ALA78       0.0334
     42  N        -13.9250    3.6620    8.5990 N.am   79  PHE79      -0.1960
     43  CA       -13.1460    2.6740    7.8540 C.3    79  PHE79       0.1756
     44  C        -13.9010    2.2160    6.6110 C.2    79  PHE79       0.2461
     45  O        -15.1260    2.3000    6.5730 O.2    79  PHE79      -0.2730
     46  CB       -12.7790    1.5070    8.7760 C.3    79  PHE79       0.0574
     47  CG       -11.8190    1.8990    9.8540 C.ar   79  PHE79      -0.0200
     48  CD1      -12.2790    2.4530   11.0410 C.ar   79  PHE79      -0.0042
     49  CD2      -10.4540    1.7530    9.6640 C.ar   79  PHE79      -0.0042
     50  CE1      -11.3900    2.8450   12.0270 C.ar   79  PHE79      -0.0003
     51  CE2       -9.5620    2.1420   10.6470 C.ar   79  PHE79      -0.0003
     52  CZ       -10.0310    2.6810   11.8300 C.ar   79  PHE79      -0.0000
     53  N        -13.1760    1.7480    5.5790 N.am   80  PRO80      -0.2727
     54  CA       -13.8410    1.3700    4.3220 C.3    80  PRO80       0.1402
     55  C        -14.8840    0.2580    4.4930 C.2    80  PRO80       0.2269
     56  O        -14.7460   -0.5810    5.3720 O.2    80  PRO80      -0.2865
     57  CB       -12.6800    0.8710    3.4650 C.3    80  PRO80       0.0296
     58  CG       -11.4800    1.5980    3.9880 C.3    80  PRO80       0.0237
     59  CD       -11.7050    1.6820    5.4700 C.3    80  PRO80       0.0939
     60  N         -3.7230   -2.3940    9.0940 N.3    90  GLN90      -0.1231
     61  CA        -3.1450   -1.0900    8.8050 C.3    90  GLN90       0.1698
     62  C         -3.9990   -0.2730    7.8370 C.2    90  GLN90       0.2592
     63  O         -4.5070   -0.7860    6.8290 O.2    90  GLN90      -0.2718
     64  CB        -1.7280   -1.2440    8.2490 C.3    90  GLN90       0.0381
     65  CG        -0.9990    0.0800    8.0360 C.3    90  GLN90       0.0905
     66  CD         0.4990   -0.0940    7.8630 C.2    90  GLN90       0.2608
     67  OE1        1.0430    0.1380    6.7820 O.2    90  GLN90      -0.2717
     68  NE2        1.1760   -0.4970    8.9360 N.am   90  GLN90      -0.0878
     69  N         -4.1450    1.0070    8.1540 N.am   91  PHE91      -0.1962
     70  CA        -4.8880    1.9390    7.3190 C.3    91  PHE91       0.1771
     71  C         -4.1240    3.2480    7.2220 C.2    91  PHE91       0.2620
     72  O         -3.0720    3.4070    7.8460 O.2    91  PHE91      -0.2715
     73  CB        -6.2940    2.1670    7.8880 C.3    91  PHE91       0.0574
     74  CG        -7.1310    0.9230    7.9150 C.ar   91  PHE91      -0.0200
     75  CD1       -7.8980    0.5680    6.8150 C.ar   91  PHE91      -0.0042
     76  CD2       -7.1380    0.0990    9.0290 C.ar   91  PHE91      -0.0042
     77  CE1       -8.6650   -0.5860    6.8290 C.ar   91  PHE91      -0.0003
     78  CE2       -7.8980   -1.0550    9.0480 C.ar   91  PHE91      -0.0003
     79  CZ        -8.6590   -1.4040    7.9380 C.ar   91  PHE91      -0.0000
     80  N         -4.6460    4.1740    6.4250 N.am   92  TYR92      -0.1960
     81  CA        -4.0030    5.4610    6.2280 C.3    92  TYR92       0.1771
     82  C         -4.9810    6.6080    6.3200 C.2    92  TYR92       0.2619
     83  O         -6.1100    6.5070    5.8470 O.2    92  TYR92      -0.2715
     84  CB        -3.3620    5.5280    4.8410 C.3    92  TYR92       0.0574
     85  CG        -2.2430    4.5500    4.6310 C.ar   92  TYR92      -0.0198
     86  CD1       -2.4970    3.2560    4.2070 C.ar   92  TYR92      -0.0009
     87  CD2       -0.9270    4.9200    4.8710 C.ar   92  TYR92      -0.0009
     88  CE1       -1.4640    2.3530    4.0170 C.ar   92  TYR92       0.0417
     89  CE2        0.1060    4.0310    4.6920 C.ar   92  TYR92       0.0417
     90  CZ        -0.1650    2.7490    4.2630 C.ar   92  TYR92       0.1957
     91  OH         0.8660    1.8600    4.0810 O.3    92  TYR92      -0.2866
     92  N         -4.5280    7.6980    6.9290 N.am   93  ALA93      -0.1963
     93  CA        -5.1890    8.9870    6.8220 C.3    93  ALA93       0.1728
     94  C         -4.3040    9.8690    5.9490 C.2    93  ALA93       0.2616
     95  O         -3.1140    9.5930    5.7920 O.2    93  ALA93      -0.2715
     96  CB        -5.3580    9.6010    8.1880 C.3    93  ALA93       0.0334
     97  N         -4.8740   10.9250    5.3800 N.am   94  GLN94      -0.1963
     98  CA        -4.1010   11.8200    4.5190 C.3    94  GLN94       0.1733
     99  C         -3.8730   13.1770    5.1860 C.2    94  GLN94       0.2616
    100  O         -4.8270   13.8910    5.4940 O.2    94  GLN94      -0.2715
    101  CB        -4.7900   11.9830    3.1620 C.3    94  GLN94       0.0408
    102  CG        -3.8770   11.6960    1.9760 C.3    94  GLN94       0.0908
    103  CD        -4.6380   11.2600    0.7360 C.2    94  GLN94       0.2608
    104  OE1       -4.4110   10.1710    0.2060 O.2    94  GLN94      -0.2717
    105  NE2       -5.5430   12.1110    0.2640 N.am   94  GLN94      -0.0878
    106  N         -2.6070   13.5270    5.4070 N.am   95  ASP95      -0.1971
    107  CA        -2.2690   14.7440    6.1470 C.3    95  ASP95       0.1709
    108  C         -2.1510   15.9930    5.2650 C.2    95  ASP95       0.2293
    109  O         -2.1580   15.9040    4.0350 O.2    95  ASP95      -0.2864
    110  CB        -1.0090   14.5380    7.0100 C.3    95  ASP95       0.1436
    111  CG         0.2910   14.5560    6.2030 C.2    95  ASP95       0.3671
    112  OD1        0.2500   14.5850    4.9540 O.co2  95  ASP95      -0.2456
    113  OD2        1.3700   14.5320    6.8340 O.co2  95  ASP95      -0.2456
    114  N          0.5560   10.2550    3.1950 N.3    97  PRO97      -0.2102
    115  CA        -0.1990    9.2480    3.9450 C.3    97  PRO97       0.1504
    116  C          0.3100    9.1190    5.3740 C.2    97  PRO97       0.2575
    117  O          1.5180    9.0310    5.5920 O.2    97  PRO97      -0.2718
    118  CB         0.0860    7.9560    3.1740 C.3    97  PRO97       0.0282
    119  CG         0.4430    8.4040    1.8010 C.3    97  PRO97       0.0208
    120  CD         1.1840    9.6900    1.9900 C.3    97  PRO97       0.0893
    121  N         -0.6060    9.1300    6.3350 N.am   98  MET98      -0.1980
    122  CA        -0.2560    8.8640    7.7210 C.3    98  MET98       0.1605
    123  C         -0.7640    7.4830    8.0990 C.2    98  MET98       0.2287
    124  O         -1.9680    7.2800    8.2350 O.2    98  MET98      -0.2864
    125  CB        -0.8630    9.9130    8.6510 C.3    98  MET98       0.0413
    126  CG        -0.1140   11.2320    8.6760 C.3    98  MET98       0.0598
    127  SD        -0.4050   12.1190   10.2180 S.3    98  MET98      -0.1393
    128  CE         0.3230   10.9860   11.4030 C.3    98  MET98       0.0692
    129  N         -1.7350    4.1670   10.2310 N.3   100  LEU100     -0.1245
    130  CA        -2.1720    3.8090   11.5780 C.3   100  LEU100      0.1561
    131  C         -2.3850    2.3100   11.6540 C.2   100  LEU100      0.2260
    132  O         -2.6650    1.6590   10.6400 O.2   100  LEU100     -0.2867
    133  CB        -3.4620    4.5430   11.9780 C.3   100  LEU100      0.0270
    134  CG        -4.8020    4.1910   11.3100 C.3   100  LEU100      0.0019
    135  CD1       -5.4640    2.9290   11.8690 C.3   100  LEU100      0.0001
    136  CD2       -5.7500    5.3620   11.4460 C.3   100  LEU100      0.0001
    137  N         -1.1040    5.7070   15.7780 N.3   114  PHE114     -0.1241
    138  CA        -0.4050    6.4050   14.6930 C.3   114  PHE114      0.1605
    139  C          1.1200    6.3250   14.8250 C.2   114  PHE114      0.2264
    140  O          1.8480    6.7800   13.9440 O.2   114  PHE114     -0.2867
    141  CB        -0.8360    7.8710   14.6380 C.3   114  PHE114      0.0534
    142  CG        -2.2380    8.0760   14.1240 C.ar  114  PHE114     -0.0203
    143  CD1       -2.4820    8.2090   12.7660 C.ar  114  PHE114     -0.0042
    144  CD2       -3.3060    8.1530   15.0010 C.ar  114  PHE114     -0.0042
    145  CE1       -3.7750    8.4060   12.2910 C.ar  114  PHE114     -0.0003
    146  CE2       -4.6000    8.3470   14.5360 C.ar  114  PHE114     -0.0003
    147  CZ        -4.8350    8.4730   13.1770 C.ar  114  PHE114     -0.0000
@<TRIPOS>BOND
     1   104   103    2
     2   105   103   am
     3   103   102    1
     4   119   120    1
     5   119   118    1
     6   102   101    1
     7   120   114    1
     8   101    98    1
     9   118   115    1
    10   114   115    1
    11    57    58    1
    12    57    54    1
    13   115   116    1
    14    58    59    1
    15    88    86   ar
    16    88    90   ar
    17   109   108    2
    18    91    90    1
    19    86    85   ar
    20    90    89   ar
    21    54    55    1
    22    54    53    1
    23    55    56    2
    24    98    99    1
    25    98    97    1
    26    85    84    1
    27    85    87   ar
    28    89    87   ar
    29    84    81    1
    30   112   111   ar
    31    99   106   am
    32    99   100    2
    33   108   107    1
    34   116   117    2
    35   116   121   am
    36    97    94   am
    37   106   107    1
    38    59    53    1
    39    53    44   am
    40    95    94    2
    41    83    82    2
    42    94    93    1
    43   107   110    1
    44   111   113   ar
    45   111   110    1
    46    81    82    1
    47    81    80    1
    48    82    92   am
    49   121   122    1
    50    80    71   am
    51    45    44    2
    52    44    43    1
    53    67    66    2
    54    75    77   ar
    55    75    74   ar
    56    93    92    1
    57    93    96    1
    58    77    79   ar
    59    63    62    2
    60    71    70    1
    61    71    72    2
    62    70    73    1
    63    70    69    1
    64    40    39    2
    65   122   123    1
    66   122   125    1
    67    62    69   am
    68    62    61    1
    69    43    42    1
    70    43    46    1
    71    66    65    1
    72    66    68   am
    73    73    74    1
    74    74    76   ar
    75    79    78   ar
    76    65    64    1
    77   123   124    2
    78    64    61    1
    79    39    42   am
    80    39    38    1
    81    34    33    2
    82   125   126    1
    83   126   127    1
    84    46    47    1
    85    61    60    1
    86    76    78   ar
    87    38    37    1
    88    38    41    1
    89    33    37   am
    90    33    32    1
    91    49    47   ar
    92    49    51   ar
    93    47    48   ar
    94   127   128    1
    95   129   130    1
    96    32    35    1
    97    32    31    1
    98   132   131    2
    99    51    52   ar
   100    35    36    1
   101    48    50   ar
   102   134   136    1
   103   134   135    1
   104   134   133    1
   105   130   131    1
   106   130   133    1
   107    52    50   ar
   108   145   143   ar
   109   145   147   ar
   110   143   142   ar
   111    27    26    2
   112   147   146   ar
   113    29    28    1
   114    29    30    1
   115    26    25    1
   116   140   139    2
   117   142   141    1
   118   142   144   ar
   119    28    25    1
   120   146   144   ar
   121    30    24    1
   122   141   138    1
   123    23    21    1
   124   138   139    1
   125   138   137    1
   126    25    24    1
   127    21    22    1
   128    21    18    1
   129    24    19   am
   130    19    18    1
   131    19    20    2
   132    18    17    1
   133     8     7    2
   134    17    12   am
   135     9     7   am
   136     7     6    1
   137    12    13    2
   138    12    11    1
   139     5     6    1
   140     5     2    1
   141     4     3    2
   142     3     2    1
   143     3    10   am
   144    11    10    1
   145    11    14    1
   146     2     1    1
   147    15    14    1
   148    14    16    1
