@<TRIPOS>MOLECULE
tmp/4odkA01.pdb
 160 156 0 0 0
SMALL
GASTEIGER

@<TRIPOS>ATOM
      1  N         24.3520   -6.2310    2.9270 N.3    11  ILE11      -0.1245
      2  CA        24.3420   -6.9400    4.2050 C.3    11  ILE11       0.1561
      3  C         23.2970   -8.0360    4.1960 C.2    11  ILE11       0.2260
      4  O         22.2990   -7.9440    3.4700 O.2    11  ILE11      -0.2867
      5  CB        24.0520   -5.9960    5.3990 C.3    11  ILE11       0.0252
      6  CG1       22.6620   -5.3550    5.2800 C.3    11  ILE11       0.0019
      7  CG2       25.1280   -4.9320    5.5300 C.3    11  ILE11       0.0019
      8  CD1       22.2630   -4.5120    6.4830 C.3    11  ILE11       0.0001
      9  N         20.9680   -9.8750    7.2610 N.3    13  TYR13      -0.1241
     10  CA        20.6520   -9.5510    8.6390 C.3    13  TYR13       0.1605
     11  C         19.4470  -10.3010    9.1470 C.2    13  TYR13       0.2264
     12  O         18.6000  -10.7690    8.3730 O.2    13  TYR13      -0.2867
     13  CB        20.4040   -8.0470    8.7880 C.3    13  TYR13       0.0534
     14  CG        19.1310   -7.5980    8.1160 C.ar   13  TYR13      -0.0201
     15  CD1       19.1070   -7.3390    6.7550 C.ar   13  TYR13      -0.0009
     16  CD2       17.9470   -7.4560    8.8350 C.ar   13  TYR13      -0.0009
     17  CE1       17.9500   -6.9470    6.1210 C.ar   13  TYR13       0.0417
     18  CE2       16.7780   -7.0620    8.2070 C.ar   13  TYR13       0.0417
     19  CZ        16.7880   -6.8070    6.8480 C.ar   13  TYR13       0.1957
     20  OH        15.6380   -6.4110    6.2070 O.3    13  TYR13      -0.2866
     21  N         16.5520   -9.4180   12.2020 N.3    15  LEU15      -0.1245
     22  CA        16.0770   -8.4280   13.1590 C.3    15  LEU15       0.1561
     23  C         15.1480   -9.1140   14.1330 C.2    15  LEU15       0.2260
     24  O         14.1380   -9.7000   13.7290 O.2    15  LEU15      -0.2867
     25  CB        15.3200   -7.3050   12.4510 C.3    15  LEU15       0.0270
     26  CG        14.5380   -6.3670   13.3750 C.3    15  LEU15       0.0019
     27  CD1       15.4390   -5.7410   14.4350 C.3    15  LEU15       0.0001
     28  CD2       13.8260   -5.2950   12.5630 C.3    15  LEU15       0.0001
     29  N         11.4010  -10.4910   13.2860 N.3    22  LEU22      -0.1231
     30  CA        10.4110   -9.6480   12.6220 C.3    22  LEU22       0.1693
     31  C         10.7590   -9.4140   11.1600 C.2    22  LEU22       0.2592
     32  O          9.8790   -9.2130   10.3260 O.2    22  LEU22      -0.2718
     33  CB        10.2810   -8.3010   13.3360 C.3    22  LEU22       0.0284
     34  CG         9.2520   -8.1710   14.4600 C.3    22  LEU22       0.0019
     35  CD1        9.5780   -9.0820   15.6270 C.3    22  LEU22       0.0001
     36  CD2        9.1710   -6.7310   14.9230 C.3    22  LEU22       0.0001
     37  N         12.0460   -9.4290   10.8570 N.am   23  ASP23      -0.1974
     38  CA        12.4910   -9.1810    9.5060 C.3    23  ASP23       0.1709
     39  C         13.8180   -9.8800    9.3320 C.2    23  ASP23       0.2293
     40  O         14.5840  -10.0290   10.2820 O.2    23  ASP23      -0.2864
     41  CB        12.6380   -7.6740    9.2700 C.3    23  ASP23       0.1436
     42  CG        12.9570   -7.3330    7.8250 C.2    23  ASP23       0.3671
     43  OD1       12.5140   -8.0730    6.9200 O.co2  23  ASP23      -0.2456
     44  OD2       13.6500   -6.3170    7.5940 O.co2  23  ASP23      -0.2456
     45  N         19.9670   -6.9920    1.8940 N.3    27  LEU27      -0.1231
     46  CA        19.7200   -5.7340    1.2060 C.3    27  LEU27       0.1693
     47  C         21.0230   -5.0270    0.8880 C.2    27  LEU27       0.2593
     48  O         22.0620   -5.3350    1.4580 O.2    27  LEU27      -0.2718
     49  CB        18.7940   -4.8220    2.0230 C.3    27  LEU27       0.0284
     50  CG        19.2350   -4.3270    3.4060 C.3    27  LEU27       0.0019
     51  CD1       20.2320   -3.1670    3.3510 C.3    27  LEU27       0.0001
     52  CD2       18.0220   -3.8990    4.2150 C.3    27  LEU27       0.0001
     53  N         20.9620   -4.0800   -0.0330 N.am   28  SER28      -0.1938
     54  CA        22.0580   -3.1640   -0.2760 C.3    28  SER28       0.2055
     55  C         21.5760   -1.7550    0.0330 C.2    28  SER28       0.2643
     56  O         20.4230   -1.4280   -0.1650 O.2    28  SER28      -0.2714
     57  CB        22.5620   -3.2900   -1.7120 C.3    28  SER28       0.2130
     58  OG        22.9920   -4.6190   -1.9730 O.3    28  SER28      -0.2179
     59  N         22.4410   -0.9090    0.5480 N.am   29  TYR29      -0.1973
     60  CA        22.0190    0.4470    0.8550 C.3    29  TYR29       0.1639
     61  C         23.1880    1.3780    0.6430 C.2    29  TYR29       0.2290
     62  O         24.3520    0.9640    0.6970 O.2    29  TYR29      -0.2864
     63  CB        21.4680    0.5490    2.2980 C.3    29  TYR29       0.0560
     64  CG        22.5740    0.5350    3.3220 C.ar   29  TYR29      -0.0198
     65  CD1       23.2070   -0.6550    3.6780 C.ar   29  TYR29      -0.0009
     66  CD2       23.0340    1.7130    3.8850 C.ar   29  TYR29      -0.0009
     67  CE1       24.2670   -0.6680    4.5750 C.ar   29  TYR29       0.0417
     68  CE2       24.0810    1.7090    4.7960 C.ar   29  TYR29       0.0417
     69  CZ        24.6950    0.5160    5.1230 C.ar   29  TYR29       0.1957
     70  OH        25.7560    0.4930    5.9860 O.3    29  TYR29      -0.2866
     71  N         19.5920    6.3370    4.9860 N.3    35  ASN35      -0.1225
     72  CA        18.7520    5.2950    4.4080 C.3    35  ASN35       0.1785
     73  C         18.3600    4.1760    5.3760 C.2    35  ASN35       0.2597
     74  O         17.3400    3.5200    5.1900 O.2    35  ASN35      -0.2718
     75  CB        19.3950    4.7330    3.1350 C.3    35  ASN35       0.1169
     76  CG        19.3190    5.7100    1.9770 C.2    35  ASN35       0.2627
     77  OD1       18.2470    6.2200    1.6660 O.2    35  ASN35      -0.2716
     78  ND2       20.4460    5.9790    1.3430 N.am   35  ASN35      -0.0877
     79  N         19.1660    3.9670    6.4080 N.am   36  LEU36      -0.1966
     80  CA        18.8450    3.0170    7.4710 C.3    36  LEU36       0.1728
     81  C         18.6610    3.7660    8.7750 C.2    36  LEU36       0.2616
     82  O         19.0850    4.9200    8.9010 O.2    36  LEU36      -0.2715
     83  CB        19.9760    2.0040    7.6530 C.3    36  LEU36       0.0311
     84  CG        20.4140    1.1520    6.4640 C.3    36  LEU36       0.0022
     85  CD1       21.5150    0.1930    6.8940 C.3    36  LEU36       0.0001
     86  CD2       19.2350    0.3990    5.8860 C.3    36  LEU36       0.0001
     87  N         18.0430    3.1100    9.7510 N.am   37  ILE37      -0.1977
     88  CA        17.9250    3.7120   11.0750 C.3    37  ILE37       0.1596
     89  C         19.3140    4.0750   11.6020 C.2    37  ILE37       0.2287
     90  O         20.2890    3.3700   11.3410 O.2    37  ILE37      -0.2864
     91  CB        17.1690    2.8040   12.0660 C.3    37  ILE37       0.0276
     92  CG1       17.8270    1.4250   12.1550 C.3    37  ILE37       0.0022
     93  CG2       15.6990    2.6980   11.6580 C.3    37  ILE37       0.0022
     94  CD1       17.2690    0.5490   13.2570 C.3    37  ILE37       0.0001
     95  N         21.7260    1.5290   13.4210 N.3    40  LEU40      -0.1245
     96  CA        22.2470    0.4490   12.5910 C.3    40  LEU40       0.1561
     97  C         23.3890    0.9710   11.7250 C.2    40  LEU40       0.2260
     98  O         24.4330    0.3300   11.6000 O.2    40  LEU40      -0.2867
     99  CB        21.1350   -0.1520   11.7250 C.3    40  LEU40       0.0270
    100  CG        21.5530   -1.3130   10.8280 C.3    40  LEU40       0.0019
    101  CD1       22.2490   -2.4060   11.6330 C.3    40  LEU40       0.0001
    102  CD2       20.3450   -1.8570   10.0760 C.3    40  LEU40       0.0001
    103  N         13.4430    3.5220   15.8070 N.3    63  TYR63      -0.1241
    104  CA        12.2370    4.1990   15.3300 C.3    63  TYR63       0.1605
    105  C         11.6640    5.2170   16.3120 C.2    63  TYR63       0.2264
    106  O         10.5850    5.7620   16.0880 O.2    63  TYR63      -0.2867
    107  CB        11.1890    3.1810   14.8680 C.3    63  TYR63       0.0534
    108  CG        11.6710    2.4400   13.6420 C.ar   63  TYR63      -0.0201
    109  CD1       11.5920    3.0260   12.3850 C.ar   63  TYR63      -0.0009
    110  CD2       12.2520    1.1840   13.7440 C.ar   63  TYR63      -0.0009
    111  CE1       12.0540    2.3710   11.2550 C.ar   63  TYR63       0.0417
    112  CE2       12.7220    0.5200   12.6190 C.ar   63  TYR63       0.0417
    113  CZ        12.6160    1.1190   11.3770 C.ar   63  TYR63       0.1957
    114  OH        13.0790    0.4730   10.2510 O.3    63  TYR63      -0.2866
    115  N          4.8700    4.7020   14.7310 N.3   116  HIS116     -0.1227
    116  CA         5.5180    3.6550   13.9550 C.3   116  HIS116      0.1737
    117  C          5.3530    2.3250   14.6940 C.2   116  HIS116      0.2438
    118  O          5.4270    2.2910   15.9120 O.2   116  HIS116     -0.2733
    119  CB         7.0000    3.9700   13.7620 C.3   116  HIS116      0.0758
    120  CG         7.7020    3.0100   12.8510 C.ar  116  HIS116      0.0818
    121  ND1        8.0950    1.7530   13.2570 N.ar  116  HIS116     -0.2268
    122  CD2        8.0590    3.1160   11.5500 C.ar  116  HIS116      0.1154
    123  CE1        8.6820    1.1330   12.2470 C.ar  116  HIS116      0.1986
    124  NE2        8.6660    1.9360   11.1990 N.ar  116  HIS116     -0.2212
    125  N          5.1300    1.2240   13.9580 N.am  117  PRO117     -0.2718
    126  CA         4.9090   -0.0830   14.5990 C.3   117  PRO117      0.1535
    127  C          6.0220   -0.5430   15.5480 C.2   117  PRO117      0.2598
    128  O          5.7540   -1.3280   16.4610 O.2   117  PRO117     -0.2715
    129  CB         4.7980   -1.0320   13.4050 C.3   117  PRO117      0.0310
    130  CG         4.2390   -0.1750   12.3240 C.3   117  PRO117      0.0237
    131  CD         4.8940    1.1650   12.5040 C.3   117  PRO117      0.0939
    132  N          7.2440   -0.0620   15.3450 N.am  118  LEU118     -0.1978
    133  CA         8.3500   -0.4260   16.2220 C.3   118  LEU118      0.1596
    134  C          8.7530    0.6930   17.1760 C.2   118  LEU118      0.2287
    135  O          9.7830    0.5920   17.8370 O.2   118  LEU118     -0.2864
    136  CB         9.5630   -0.8510   15.3980 C.3   118  LEU118      0.0297
    137  CG         9.3300   -2.0700   14.5160 C.3   118  LEU118      0.0022
    138  CD1       10.6030   -2.4470   13.7840 C.3   118  LEU118      0.0001
    139  CD2        8.8220   -3.2250   15.3570 C.3   118  LEU118      0.0001
    140  N         19.9540   -6.8540   16.1620 N.3   125  PHE125     -0.1241
    141  CA        20.3640   -7.2920   14.8360 C.3   125  PHE125      0.1605
    142  C         21.5250   -8.2740   14.8840 C.2   125  PHE125      0.2264
    143  O         22.4650   -8.1090   15.6680 O.2   125  PHE125     -0.2867
    144  CB        20.8290   -6.0990   14.0120 C.3   125  PHE125      0.0534
    145  CG        19.7360   -5.1650   13.6090 C.ar  125  PHE125     -0.0203
    146  CD1       19.0360   -5.3690   12.4280 C.ar  125  PHE125     -0.0042
    147  CD2       19.4300   -4.0560   14.3850 C.ar  125  PHE125     -0.0042
    148  CE1       18.0340   -4.4980   12.0420 C.ar  125  PHE125     -0.0003
    149  CE2       18.4290   -3.1810   14.0050 C.ar  125  PHE125     -0.0003
    150  CZ        17.7330   -3.3970   12.8230 C.ar  125  PHE125     -0.0000
    151  N         14.6040   -9.5410    1.1660 N.3   152  HIS152     -0.1241
    152  CA        14.3370   -9.6240    2.5940 C.3   152  HIS152      0.1621
    153  C         12.8270   -9.6790    2.8090 C.2   152  HIS152      0.2264
    154  O         12.0620   -9.2260    1.9580 O.2   152  HIS152     -0.2867
    155  CB        14.9730   -8.4480    3.3430 C.3   152  HIS152      0.0745
    156  CG        14.2040   -7.1690    3.2350 C.ar  152  HIS152      0.0817
    157  ND1       14.3930   -6.2680    2.2090 N.ar  152  HIS152     -0.2268
    158  CD2       13.2480   -6.6360    4.0340 C.ar  152  HIS152      0.1154
    159  CE1       13.5820   -5.2380    2.3770 C.ar  152  HIS152      0.1986
    160  NE2       12.8790   -5.4360    3.4780 N.ar  152  HIS152     -0.2212
@<TRIPOS>BOND
     1    58    57    1
     2    57    54    1
     3    54    53    1
     4    54    55    1
     5    56    55    2
     6    53    47   am
     7    55    59   am
     8    59    60    1
     9    61    62    2
    10    61    60    1
    11    60    63    1
    12    47    46    1
    13    47    48    2
    14   151   152    1
    15    46    45    1
    16    46    49    1
    17    78    76   am
    18    77    76    2
    19   154   153    2
    20    76    75    1
    21    49    50    1
    22   157   159   ar
    23   157   156   ar
    24    63    64    1
    25   159   160   ar
    26   152   153    1
    27   152   155    1
    28     1     2    1
    29    75    72    1
    30   156   155    1
    31   156   158   ar
    32    64    65   ar
    33    64    66   ar
    34    51    50    1
    35    50    52    1
    36     4     3    2
    37   160   158   ar
    38    65    67   ar
    39    66    68   ar
    40     3     2    1
    41     2     5    1
    42    72    71    1
    43    72    73    1
    44    67    69   ar
    45    68    69   ar
    46    69    70    1
    47    74    73    2
    48     6     5    1
    49     6     8    1
    50    73    79   am
    51     5     7    1
    52    86    84    1
    53    17    15   ar
    54    17    19   ar
    55    20    19    1
    56    79    80    1
    57    84    85    1
    58    84    83    1
    59    15    14   ar
    60    19    18   ar
    61    43    42   ar
    62     9    10    1
    63    80    83    1
    64    80    81    1
    65    44    42   ar
    66    42    41    1
    67    14    13    1
    68    14    16   ar
    69    18    16   ar
    70    12    11    2
    71    10    13    1
    72    10    11    1
    73    81    82    2
    74    81    87   am
    75    41    38    1
    76    39    38    1
    77    39    40    2
    78    38    37    1
    79    87    88    1
    80   102   100    1
    81   114   113    1
    82    32    31    2
    83   100   101    1
    84   100    99    1
    85    37    31   am
    86    88    89    1
    87    88    91    1
    88    31    30    1
    89   124   122   ar
    90   124   123   ar
    91   111   113   ar
    92   111   109   ar
    93    90    89    2
    94   113   112   ar
    95   122   120   ar
    96    98    97    2
    97    93    91    1
    98    97    96    1
    99    99    96    1
   100   148   146   ar
   101   148   150   ar
   102    91    92    1
   103    92    94    1
   104    21    22    1
   105   123   121   ar
   106   130   131    1
   107   130   129    1
   108   109   108   ar
   109   146   145   ar
   110    25    22    1
   111    25    26    1
   112   131   125    1
   113    28    26    1
   114    96    95    1
   115   112   110   ar
   116    30    29    1
   117    30    33    1
   118   150   149   ar
   119   120   121   ar
   120   120   119    1
   121    22    23    1
   122    33    34    1
   123    26    27    1
   124   129   126    1
   125   145   144    1
   126   145   147   ar
   127   108   110   ar
   128   108   107    1
   129    24    23    2
   130   119   116    1
   131   138   137    1
   132   116   117    1
   133   116   115    1
   134   125   126    1
   135   125   117   am
   136   149   147   ar
   137   144   141    1
   138    34    36    1
   139    34    35    1
   140   137   139    1
   141   137   136    1
   142   126   127    1
   143   117   118    2
   144   141   142    1
   145   141   140    1
   146   107   104    1
   147   142   143    2
   148   104   103    1
   149   104   105    1
   150   132   127   am
   151   132   133    1
   152   136   133    1
   153   127   128    2
   154   106   105    2
   155   133   134    1
   156   134   135    2
