@<TRIPOS>MOLECULE
tmp/4odlB00.pdb
 139 139 0 0 0
SMALL
GASTEIGER

@<TRIPOS>ATOM
      1  N         77.2710  -18.3310  -32.8230 N.3    72  GLN72      -0.1231
      2  CA        78.6800  -18.5890  -32.5540 C.3    72  GLN72       0.1698
      3  C         78.9620  -20.0860  -32.5160 C.2    72  GLN72       0.2592
      4  O         78.0400  -20.9010  -32.4640 O.2    72  GLN72      -0.2718
      5  CB        79.0900  -17.9550  -31.2230 C.3    72  GLN72       0.0381
      6  CG        79.0390  -16.4370  -31.2050 C.3    72  GLN72       0.0905
      7  CD        80.2050  -15.8100  -31.9390 C.2    72  GLN72       0.2608
      8  OE1       81.3620  -15.9900  -31.5570 O.2    72  GLN72      -0.2717
      9  NE2       79.9080  -15.0700  -33.0030 N.am   72  GLN72      -0.0878
     10  N         80.2430  -20.4430  -32.5410 N.am   73  VAL73      -0.1966
     11  CA        80.6510  -21.8400  -32.4680 C.3    73  VAL73       0.1727
     12  C         81.6260  -22.0640  -31.3180 C.2    73  VAL73       0.2616
     13  O         82.6470  -21.3860  -31.2180 O.2    73  VAL73      -0.2715
     14  CB        81.3030  -22.3130  -33.7840 C.3    73  VAL73       0.0290
     15  CG1       81.8840  -23.7100  -33.6190 C.3    73  VAL73       0.0023
     16  CG2       80.2930  -22.2850  -34.9220 C.3    73  VAL73       0.0023
     17  N         81.3010  -23.0160  -30.4490 N.am   74  VAL74      -0.1964
     18  CA        82.1520  -23.3350  -29.3100 C.3    74  VAL74       0.1712
     19  C         82.5350  -24.8130  -29.3180 C.2    74  VAL74       0.2458
     20  O         81.7830  -25.6480  -29.8210 O.2    74  VAL74      -0.2730
     21  CB        81.4620  -22.9880  -27.9680 C.3    74  VAL74       0.0289
     22  CG1       81.1530  -21.5010  -27.8990 C.3    74  VAL74       0.0023
     23  CG2       80.1970  -23.8080  -27.7880 C.3    74  VAL74       0.0023
     24  N         83.7200  -25.1370  -28.7760 N.am   75  PRO75      -0.2727
     25  CA        84.1570  -26.5340  -28.6600 C.3    75  PRO75       0.1402
     26  C         83.2880  -27.3390  -27.6940 C.2    75  PRO75       0.2269
     27  O         82.8920  -26.8300  -26.6480 O.2    75  PRO75      -0.2865
     28  CB        85.5850  -26.4100  -28.1140 C.3    75  PRO75       0.0296
     29  CG        85.6490  -25.0500  -27.4930 C.3    75  PRO75       0.0237
     30  CD        84.7620  -24.1950  -28.3350 C.3    75  PRO75       0.0939
     31  N         84.1380  -29.6490  -25.8200 N.3    77  SER77      -0.1202
     32  CA        84.8700  -29.8970  -24.5830 C.3    77  SER77       0.2020
     33  C         84.6580  -28.7800  -23.5620 C.2    77  SER77       0.2619
     34  O         85.0190  -28.9210  -22.3940 O.2    77  SER77      -0.2717
     35  CB        86.3620  -30.0790  -24.8710 C.3    77  SER77       0.2103
     36  OG        86.8660  -29.0200  -25.6680 O.3    77  SER77      -0.2182
     37  N         84.0680  -27.6740  -24.0060 N.am   78  ALA78      -0.1965
     38  CA        83.8140  -26.5390  -23.1270 C.3    78  ALA78       0.1728
     39  C         82.4790  -26.6700  -22.4020 C.2    78  ALA78       0.2616
     40  O         82.1070  -25.8070  -21.6130 O.2    78  ALA78      -0.2715
     41  CB        83.8660  -25.2370  -23.9110 C.3    78  ALA78       0.0334
     42  N         81.7590  -27.7510  -22.6740 N.am   79  PHE79      -0.1960
     43  CA        80.4820  -28.0020  -22.0140 C.3    79  PHE79       0.1756
     44  C         80.6820  -28.8040  -20.7300 C.2    79  PHE79       0.2461
     45  O         81.6590  -29.5430  -20.6060 O.2    79  PHE79      -0.2730
     46  CB        79.5270  -28.7290  -22.9640 C.3    79  PHE79       0.0574
     47  CG        78.9770  -27.8530  -24.0530 C.ar   79  PHE79      -0.0200
     48  CD1       77.7120  -27.3010  -23.9430 C.ar   79  PHE79      -0.0042
     49  CD2       79.7290  -27.5740  -25.1810 C.ar   79  PHE79      -0.0042
     50  CE1       77.2040  -26.4920  -24.9430 C.ar   79  PHE79      -0.0003
     51  CE2       79.2260  -26.7660  -26.1840 C.ar   79  PHE79      -0.0003
     52  CZ        77.9610  -26.2230  -26.0630 C.ar   79  PHE79      -0.0000
     53  N         79.7630  -28.6460  -19.7610 N.am   80  PRO80      -0.2727
     54  CA        79.8470  -29.3830  -18.4950 C.3    80  PRO80       0.1402
     55  C         79.8600  -30.8930  -18.7050 C.2    80  PRO80       0.2269
     56  O         79.3560  -31.3840  -19.7150 O.2    80  PRO80      -0.2865
     57  CB        78.5630  -28.9710  -17.7700 C.3    80  PRO80       0.0296
     58  CG        78.2360  -27.6350  -18.3220 C.3    80  PRO80       0.0237
     59  CD        78.6420  -27.6910  -19.7640 C.3    80  PRO80       0.0939
     60  N         71.9810  -23.3250  -22.2170 N.3    91  PHE91      -0.1227
     61  CA        73.0840  -23.1820  -21.2710 C.3    91  PHE91       0.1736
     62  C         73.4210  -21.7160  -21.0610 C.2    91  PHE91       0.2595
     63  O         72.9610  -20.8520  -21.8050 O.2    91  PHE91      -0.2718
     64  CB        74.3270  -23.9240  -21.7660 C.3    91  PHE91       0.0547
     65  CG        74.1490  -25.4090  -21.8630 C.ar   91  PHE91      -0.0202
     66  CD1       73.9270  -26.0140  -23.0880 C.ar   91  PHE91      -0.0042
     67  CD2       74.2040  -26.2000  -20.7280 C.ar   91  PHE91      -0.0042
     68  CE1       73.7650  -27.3840  -23.1800 C.ar   91  PHE91      -0.0003
     69  CE2       74.0420  -27.5690  -20.8110 C.ar   91  PHE91      -0.0003
     70  CZ        73.8220  -28.1640  -22.0410 C.ar   91  PHE91      -0.0000
     71  N         74.2360  -21.4380  -20.0510 N.am   92  TYR92      -0.1962
     72  CA        74.6140  -20.0640  -19.7440 C.3    92  TYR92       0.1771
     73  C         76.1130  -19.8240  -19.8750 C.2    92  TYR92       0.2619
     74  O         76.9270  -20.5210  -19.2680 O.2    92  TYR92      -0.2715
     75  CB        74.1510  -19.6720  -18.3370 C.3    92  TYR92       0.0574
     76  CG        72.6620  -19.4580  -18.2170 C.ar   92  TYR92      -0.0198
     77  CD1       72.1080  -18.1910  -18.3610 C.ar   92  TYR92      -0.0009
     78  CD2       71.8100  -20.5210  -17.9640 C.ar   92  TYR92      -0.0009
     79  CE1       70.7430  -17.9900  -18.2540 C.ar   92  TYR92       0.0417
     80  CE2       70.4460  -20.3330  -17.8560 C.ar   92  TYR92       0.0417
     81  CZ        69.9170  -19.0660  -18.0000 C.ar   92  TYR92       0.1957
     82  OH        68.5590  -18.8740  -17.8930 O.3    92  TYR92      -0.2866
     83  N         76.4650  -18.8300  -20.6810 N.am   93  ALA93      -0.1963
     84  CA        77.8310  -18.3380  -20.7450 C.3    93  ALA93       0.1728
     85  C         77.8990  -17.0420  -19.9480 C.2    93  ALA93       0.2616
     86  O         76.8680  -16.4620  -19.6090 O.2    93  ALA93      -0.2715
     87  CB        78.2480  -18.1050  -22.1810 C.3    93  ALA93       0.0334
     88  N         79.1080  -16.5840  -19.6550 N.am   94  GLN94      -0.1963
     89  CA        79.2760  -15.3900  -18.8400 C.3    94  GLN94       0.1733
     90  C         80.2170  -14.3990  -19.5150 C.2    94  GLN94       0.2616
     91  O         81.3310  -14.7570  -19.8900 O.2    94  GLN94      -0.2715
     92  CB        79.8200  -15.7770  -17.4620 C.3    94  GLN94       0.0408
     93  CG        79.1350  -15.0840  -16.2960 C.3    94  GLN94       0.0908
     94  CD        79.5920  -15.6220  -14.9510 C.2    94  GLN94       0.2608
     95  OE1       80.3310  -16.6050  -14.8790 O.2    94  GLN94      -0.2717
     96  NE2       79.1530  -14.9760  -13.8760 N.am   94  GLN94      -0.0878
     97  N         79.7750  -13.1560  -19.6840 N.am   95  ASP95      -0.1957
     98  CA        80.6750  -12.1310  -20.2000 C.3    95  ASP95       0.1840
     99  C         81.7060  -11.7610  -19.1350 C.2    95  ASP95       0.2621
    100  O         81.5280  -12.0790  -17.9570 O.2    95  ASP95      -0.2715
    101  CB        79.9170  -10.8980  -20.7210 C.3    95  ASP95       0.1450
    102  CG        78.9730  -10.3000  -19.6930 C.2    95  ASP95       0.3671
    103  OD1       79.1190  -10.6000  -18.4920 O.co2  95  ASP95      -0.2456
    104  OD2       78.0840   -9.5140  -20.0890 O.co2  95  ASP95      -0.2456
    105  N         82.7860  -11.1070  -19.5540 N.am   96  MET96      -0.1977
    106  CA        83.8500  -10.7180  -18.6330 C.3    96  MET96       0.1605
    107  C         83.3160   -9.7810  -17.5510 C.2    96  MET96       0.2287
    108  O         83.8720   -9.6990  -16.4550 O.2    96  MET96      -0.2864
    109  CB        85.0080  -10.0570  -19.3860 C.3    96  MET96       0.0413
    110  CG        85.6930  -10.9470  -20.4220 C.3    96  MET96       0.0598
    111  SD        86.4380  -12.4380  -19.7270 S.3    96  MET96      -0.1393
    112  CE        87.5230  -12.9370  -21.0640 C.3    96  MET96       0.0692
    113  N         74.6080  -14.7780  -19.9280 N.3   101  MET101     -0.1245
    114  CA        74.0720  -14.7540  -21.2840 C.3   101  MET101      0.1570
    115  C         73.6970  -16.1560  -21.7540 C.2   101  MET101      0.2261
    116  O         74.5680  -16.9560  -22.0920 O.2   101  MET101     -0.2867
    117  CB        75.0520  -14.0830  -22.2530 C.3   101  MET101      0.0387
    118  CG        76.5160  -14.2530  -21.8870 C.3   101  MET101      0.0595
    119  SD        77.5870  -13.0590  -22.7140 S.3   101  MET101     -0.1393
    120  CE        77.3280  -13.4960  -24.4320 C.3   101  MET101      0.0692
    121  N         72.1920  -19.2910  -24.0150 N.3   103  LEU103     -0.1245
    122  CA        72.3740  -19.6770  -25.4060 C.3   103  LEU103      0.1561
    123  C         71.6480  -20.9860  -25.6870 C.2   103  LEU103      0.2260
    124  O         71.4730  -21.8130  -24.7900 O.2   103  LEU103     -0.2867
    125  CB        73.8660  -19.8110  -25.7310 C.3   103  LEU103      0.0270
    126  CG        74.7000  -20.7750  -24.8730 C.3   103  LEU103      0.0019
    127  CD1       74.7300  -22.1850  -25.4580 C.3   103  LEU103      0.0001
    128  CD2       76.1150  -20.2480  -24.6760 C.3   103  LEU103      0.0001
    129  N         72.9190  -16.8560  -29.1990 N.3   117  PHE117     -0.1241
    130  CA        72.6390  -16.0100  -28.0450 C.3   117  PHE117      0.1605
    131  C         71.3490  -15.2170  -28.2280 C.2   117  PHE117      0.2264
    132  O         70.8300  -14.6360  -27.2760 O.2   117  PHE117     -0.2867
    133  CB        73.8110  -15.0690  -27.7740 C.3   117  PHE117      0.0534
    134  CG        75.0760  -15.7790  -27.3920 C.ar  117  PHE117     -0.0203
    135  CD1       76.0460  -16.0560  -28.3410 C.ar  117  PHE117     -0.0042
    136  CD2       75.2930  -16.1780  -26.0840 C.ar  117  PHE117     -0.0042
    137  CE1       77.2120  -16.7130  -27.9920 C.ar  117  PHE117     -0.0003
    138  CE2       76.4560  -16.8340  -25.7290 C.ar  117  PHE117     -0.0003
    139  CZ        77.4160  -17.1010  -26.6840 C.ar  117  PHE117     -0.0000
@<TRIPOS>BOND
     1    16    14    1
     2    14    15    1
     3    14    11    1
     4     9     7   am
     5     1     2    1
     6     2     3    1
     7     2     5    1
     8    10     3   am
     9    10    11    1
    10     3     4    2
    11    11    12    1
    12     7     8    2
    13     7     6    1
    14    12    13    2
    15    12    17   am
    16     5     6    1
    17    17    18    1
    18    20    19    2
    19    19    18    1
    20    19    24   am
    21    18    21    1
    22   129   130    1
    23    24    25    1
    24    24    30    1
    25    25    28    1
    26    25    26    1
    27   135   137   ar
    28   135   134   ar
    29    30    29    1
    30   131   130    1
    31   131   132    2
    32    28    29    1
    33   130   133    1
    34   137   139   ar
    35    21    22    1
    36    21    23    1
    37   133   134    1
    38    26    27    2
    39   134   136   ar
    40   139   138   ar
    41    51    52   ar
    42    51    49   ar
    43   136   138   ar
    44    52    50   ar
    45    31    32    1
    46   125   122    1
    47   125   126    1
    48   123   122    1
    49   123   124    2
    50    36    35    1
    51   127   126    1
    52   122   121    1
    53    49    47   ar
    54    50    48   ar
    55   126   128    1
    56    35    32    1
    57    32    33    1
    58   120   119    1
    59    47    48   ar
    60    47    46    1
    61    37    33   am
    62    37    38    1
    63    41    38    1
    64    33    34    2
    65    68    66   ar
    66    68    70   ar
    67    38    39    1
    68    66    65   ar
    69    46    43    1
    70   119   118    1
    71    42    39   am
    72    42    43    1
    73    39    40    2
    74   117   118    1
    75   117   114    1
    76    60    61    1
    77    87    84    1
    78   116   115    2
    79    70    69   ar
    80    43    44    1
    81    65    64    1
    82    65    67   ar
    83    63    62    2
    84    64    61    1
    85   115   114    1
    86   114   113    1
    87    61    62    1
    88   112   111    1
    89    62    71   am
    90    69    67   ar
    91    84    83    1
    92    84    85    1
    93    44    45    2
    94    44    53   am
    95   101    98    1
    96   101   102    1
    97    83    73   am
    98   110   111    1
    99   110   109    1
   100    98    97    1
   101    98    99    1
   102   104   102   ar
   103    71    72    1
   104    85    88   am
   105    85    86    2
   106    91    90    2
   107    73    72    1
   108    73    74    2
   109    59    53    1
   110    59    58    1
   111    53    54    1
   112    72    75    1
   113    56    55    2
   114   102   103   ar
   115    97    90   am
   116    88    89    1
   117   105    99   am
   118   105   106    1
   119    90    89    1
   120   109   106    1
   121    99   100    2
   122    89    92    1
   123    55    54    1
   124   106   107    1
   125    54    57    1
   126    77    79   ar
   127    77    76   ar
   128    75    76    1
   129    58    57    1
   130    79    81   ar
   131    76    78   ar
   132    81    82    1
   133    81    80   ar
   134    78    80   ar
   135   107   108    2
   136    92    93    1
   137    93    94    1
   138    94    95    2
   139    94    96   am
