@<TRIPOS>MOLECULE
tmp/4odmB00.pdb
 196 193 0 0 0
SMALL
GASTEIGER

@<TRIPOS>ATOM
      1  N         21.6210    6.8930   40.8120 N.3    13  TYR13      -0.1241
      2  CA        20.9530    5.6090   40.6070 C.3    13  TYR13       0.1605
      3  C         21.9410    4.4750   40.3910 C.2    13  TYR13       0.2264
      4  O         23.1080    4.6850   40.0420 O.2    13  TYR13      -0.2867
      5  CB        19.9960    5.6830   39.4060 C.3    13  TYR13       0.0534
      6  CG        20.7320    5.7810   38.0930 C.ar   13  TYR13      -0.0201
      7  CD1       21.1990    7.0020   37.6320 C.ar   13  TYR13      -0.0009
      8  CD2       21.0000    4.6440   37.3370 C.ar   13  TYR13      -0.0009
      9  CE1       21.9040    7.0980   36.4540 C.ar   13  TYR13       0.0417
     10  CE2       21.7050    4.7280   36.1570 C.ar   13  TYR13       0.0417
     11  CZ        22.1530    5.9610   35.7170 C.ar   13  TYR13       0.1957
     12  OH        22.8550    6.0540   34.5370 O.3    13  TYR13      -0.2866
     13  N         21.5560    0.7690   38.2830 N.3    15  LEU15      -0.1245
     14  CA        20.7190   -0.0600   37.4290 C.3    15  LEU15       0.1561
     15  C         21.2200   -1.5000   37.5020 C.2    15  LEU15       0.2260
     16  O         22.3530   -1.7790   37.1130 O.2    15  LEU15      -0.2867
     17  CB        20.7800    0.4580   35.9840 C.3    15  LEU15       0.0270
     18  CG        19.8250   -0.0670   34.9040 C.3    15  LEU15       0.0019
     19  CD1       19.7010    0.9590   33.7850 C.3    15  LEU15       0.0001
     20  CD2       20.2840   -1.3950   34.3310 C.3    15  LEU15       0.0001
     21  N         24.6180   -2.9280   35.9200 N.3    22  LEU22      -0.1231
     22  CA        25.0150   -2.6400   34.5490 C.3    22  LEU22       0.1693
     23  C         25.4120   -1.1900   34.3630 C.2    22  LEU22       0.2592
     24  O         26.1820   -0.8720   33.4660 O.2    22  LEU22      -0.2718
     25  CB        23.8910   -2.9760   33.5720 C.3    22  LEU22       0.0284
     26  CG        23.5460   -4.4490   33.4160 C.3    22  LEU22       0.0019
     27  CD1       22.6630   -4.6550   32.1890 C.3    22  LEU22       0.0001
     28  CD2       24.8120   -5.2780   33.3090 C.3    22  LEU22       0.0001
     29  N         24.8850   -0.3150   35.2100 N.am   23  ASP23      -0.1974
     30  CA        25.1700    1.1060   35.0910 C.3    23  ASP23       0.1709
     31  C         24.9190    1.8010   36.4210 C.2    23  ASP23       0.2293
     32  O         24.0630    1.3910   37.2080 O.2    23  ASP23      -0.2864
     33  CB        24.3190    1.7260   33.9770 C.3    23  ASP23       0.1436
     34  CG        24.5890    3.2090   33.7830 C.2    23  ASP23       0.3671
     35  OD1       25.7670    3.6230   33.8500 O.co2  23  ASP23      -0.2456
     36  OD2       23.6140    3.9590   33.5640 O.co2  23  ASP23      -0.2456
     37  N         22.0890   11.3760   36.7480 N.3    27  LEU27      -0.1231
     38  CA        21.5410   12.0030   35.5560 C.3    27  LEU27       0.1693
     39  C         20.5240   13.0630   35.9450 C.2    27  LEU27       0.2593
     40  O         20.0200   13.0780   37.0720 O.2    27  LEU27      -0.2718
     41  CB        20.9110   10.9740   34.6010 C.3    27  LEU27       0.0284
     42  CG        19.6720   10.1770   35.0120 C.3    27  LEU27       0.0019
     43  CD1       18.3660   10.9630   34.8710 C.3    27  LEU27       0.0001
     44  CD2       19.5880    8.9100   34.1760 C.3    27  LEU27       0.0001
     45  N         20.2300   13.9520   35.0030 N.am   28  SER28      -0.1938
     46  CA        19.1570   14.9180   35.1960 C.3    28  SER28       0.2055
     47  C         18.2330   14.7770   34.0010 C.2    28  SER28       0.2643
     48  O         18.6840   14.4450   32.9070 O.2    28  SER28      -0.2714
     49  CB        19.7030   16.3440   35.2820 C.3    28  SER28       0.2130
     50  OG        20.4930   16.5130   36.4500 O.3    28  SER28      -0.2179
     51  N         16.9400   15.0090   34.2050 N.am   29  TYR29      -0.1973
     52  CA        15.9840   14.8470   33.1110 C.3    29  TYR29       0.1639
     53  C         14.8160   15.7950   33.3440 C.2    29  TYR29       0.2290
     54  O         14.5580   16.2010   34.4770 O.2    29  TYR29      -0.2864
     55  CB        15.4940   13.3780   33.0070 C.3    29  TYR29       0.0560
     56  CG        14.5290   12.9990   34.0960 C.ar   29  TYR29      -0.0198
     57  CD1       14.9870   12.6850   35.3760 C.ar   29  TYR29      -0.0009
     58  CD2       13.1530   12.9660   33.8570 C.ar   29  TYR29      -0.0009
     59  CE1       14.1140   12.3650   36.3850 C.ar   29  TYR29       0.0417
     60  CE2       12.2720   12.6470   34.8560 C.ar   29  TYR29       0.0417
     61  CZ        12.7590   12.3510   36.1260 C.ar   29  TYR29       0.1957
     62  OH        11.8870   12.0440   37.1310 O.3    29  TYR29      -0.2866
     63  N          8.5960   12.4250   28.3160 N.3    34  ARG34      -0.1231
     64  CA         9.1140   11.1690   27.7760 C.3    34  ARG34       0.1694
     65  C         10.6360   11.1580   27.6310 C.2    34  ARG34       0.2592
     66  O         11.1640   10.6310   26.6550 O.2    34  ARG34      -0.2718
     67  CB         8.4500   10.8410   26.4350 C.3    34  ARG34       0.0321
     68  CG         6.9230   10.8310   26.4830 C.3    34  ARG34       0.0489
     69  CD         6.3260   10.1020   25.2920 C.3    34  ARG34       0.2205
     70  NE         6.7270   10.6880   24.0170 N.pl3  34  ARG34      -0.0865
     71  CZ         6.4560   10.1650   22.8270 C.cat  34  ARG34       0.5346
     72  NH1        5.7690    9.0240   22.7290 N.pl3  34  ARG34       0.1354
     73  NH2        6.8780   10.7820   21.7320 N.pl3  34  ARG34       0.1354
     74  N         11.3360   11.7450   28.5950 N.am   35  ASN35      -0.1960
     75  CA        12.7990   11.7650   28.5570 C.3    35  ASN35       0.1819
     76  C         13.4300   10.6000   29.3160 C.2    35  ASN35       0.2621
     77  O         14.6180   10.3230   29.1600 O.2    35  ASN35      -0.2715
     78  CB        13.3380   13.0820   29.1060 C.3    35  ASN35       0.1195
     79  CG        13.0660   14.2420   28.1780 C.2    35  ASN35       0.2630
     80  OD1       13.2360   14.1290   26.9630 O.2    35  ASN35      -0.2716
     81  ND2       12.6280   15.3580   28.7370 N.am   35  ASN35      -0.0877
     82  N         12.6300    9.9210   30.1260 N.am   36  LEU36      -0.1963
     83  CA        13.1240    8.8500   30.9940 C.3    36  LEU36       0.1728
     84  C         12.2030    7.6540   30.8060 C.2    36  LEU36       0.2616
     85  O         11.0150    7.8330   30.5330 O.2    36  LEU36      -0.2715
     86  CB        13.0890    9.3180   32.4470 C.3    36  LEU36       0.0311
     87  CG        13.8000    8.5000   33.5180 C.3    36  LEU36       0.0022
     88  CD1       15.3140    8.6870   33.3760 C.3    36  LEU36       0.0001
     89  CD2       13.3270    8.9220   34.9020 C.3    36  LEU36       0.0001
     90  N         12.7300    6.4360   30.9460 N.am   37  ILE37      -0.1964
     91  CA        11.8850    5.2610   30.7550 C.3    37  ILE37       0.1712
     92  C         10.6720    5.3500   31.6760 C.2    37  ILE37       0.2458
     93  O         10.7830    5.7820   32.8240 O.2    37  ILE37      -0.2730
     94  CB        12.6530    3.9410   30.9680 C.3    37  ILE37       0.0289
     95  CG1       13.3010    3.9060   32.3490 C.3    37  ILE37       0.0022
     96  CG2       13.6850    3.7460   29.8640 C.3    37  ILE37       0.0023
     97  CD1       13.9440    2.5630   32.6590 C.3    37  ILE37       0.0001
     98  N          9.4990    4.9590   31.1660 N.am   38  PRO38      -0.2727
     99  CA         8.2700    5.3600   31.8660 C.3    38  PRO38       0.1402
    100  C          8.1040    4.7660   33.2580 C.2    38  PRO38       0.2269
    101  O          7.5760    5.4580   34.1240 O.2    38  PRO38      -0.2865
    102  CB         7.1430    4.9170   30.9200 C.3    38  PRO38       0.0296
    103  CG         7.7710    4.0160   29.9290 C.3    38  PRO38       0.0237
    104  CD         9.2280    4.3480   29.8550 C.3    38  PRO38       0.0939
    105  N         10.3830    4.1710   35.4950 N.3    40  LEU40      -0.1245
    106  CA        11.2180    4.8800   36.4490 C.3    40  LEU40       0.1561
    107  C         10.6080    6.2550   36.7110 C.2    40  LEU40       0.2260
    108  O         10.5630    6.7260   37.8490 O.2    40  LEU40      -0.2867
    109  CB        12.6410    5.0000   35.9030 C.3    40  LEU40       0.0270
    110  CG        13.6970    5.6000   36.8330 C.3    40  LEU40       0.0019
    111  CD1       13.7820    4.8320   38.1530 C.3    40  LEU40       0.0001
    112  CD2       15.0410    5.6200   36.1150 C.3    40  LEU40       0.0001
    113  N         10.1290   -0.3010   30.7560 N.3    62  ALA62      -0.1231
    114  CA        11.5310    0.0870   30.6640 C.3    62  ALA62       0.1694
    115  C         11.8900    0.3830   29.2060 C.2    62  ALA62       0.2592
    116  O         11.3280    1.3080   28.6020 O.2    62  ALA62      -0.2718
    117  CB        12.4330   -1.0020   31.2670 C.3    62  ALA62       0.0304
    118  N         12.8080   -0.3890   28.6310 N.am   63  TYR63      -0.1976
    119  CA        13.2140   -0.1660   27.2410 C.3    63  TYR63       0.1639
    120  C         12.3000   -0.8590   26.2200 C.2    63  TYR63       0.2290
    121  O         12.5270   -0.7810   25.0110 O.2    63  TYR63      -0.2864
    122  CB        14.7000   -0.5070   27.0350 C.3    63  TYR63       0.0560
    123  CG        15.6100    0.3840   27.8610 C.ar   63  TYR63      -0.0198
    124  CD1       16.0880   -0.0390   29.0920 C.ar   63  TYR63      -0.0009
    125  CD2       15.9660    1.6660   27.4210 C.ar   63  TYR63      -0.0009
    126  CE1       16.9100    0.7830   29.8710 C.ar   63  TYR63       0.0417
    127  CE2       16.7790    2.4940   28.1950 C.ar   63  TYR63       0.0417
    128  CZ        17.2520    2.0400   29.4170 C.ar   63  TYR63       0.1957
    129  OH        18.0680    2.8380   30.2050 O.3    63  TYR63      -0.2866
    130  N         29.3000   -3.6620   17.5900 N.3    90  GLN90      -0.1245
    131  CA        28.2290   -2.7100   17.3540 C.3    90  GLN90       0.1566
    132  C         28.5260   -1.7860   16.1780 C.2    90  GLN90       0.2260
    133  O         29.6810   -1.4360   15.9050 O.2    90  GLN90      -0.2867
    134  CB        27.8980   -1.9410   18.6380 C.3    90  GLN90       0.0367
    135  CG        27.3210   -2.8600   19.7300 C.3    90  GLN90       0.0905
    136  CD        26.9550   -2.1370   21.0020 C.2    90  GLN90       0.2608
    137  OE1       27.7560   -1.3900   21.5520 O.2    90  GLN90      -0.2717
    138  NE2       25.7300   -2.3580   21.4820 N.am   90  GLN90      -0.0878
    139  N         21.4400    2.1600   15.5440 N.3   102  PRO102     -0.2116
    140  CA        22.4630    1.2680   16.0860 C.3   102  PRO102      0.1372
    141  C         22.0130   -0.1920   16.0440 C.2   102  PRO102      0.2244
    142  O         20.8140   -0.4900   16.0950 O.2   102  PRO102     -0.2868
    143  CB        22.6380    1.7530   17.5330 C.3   102  PRO102      0.0268
    144  CG        21.4400    2.5860   17.8220 C.3   102  PRO102      0.0207
    145  CD        20.9820    3.1590   16.5210 C.3   102  PRO102      0.0892
    146  N         17.1810   -2.1870   21.3310 N.3   119  HIS119     -0.1227
    147  CA        17.9320   -1.7270   22.4870 C.3   119  HIS119      0.1737
    148  C         18.4980   -2.9400   23.2170 C.2   119  HIS119      0.2438
    149  O         17.8220   -3.9530   23.3650 O.2   119  HIS119     -0.2733
    150  CB        17.0320   -0.9300   23.4210 C.3   119  HIS119      0.0758
    151  CG        17.7860   -0.1810   24.4700 C.ar  119  HIS119      0.0818
    152  ND1       18.3700   -0.8030   25.5510 N.ar  119  HIS119     -0.2268
    153  CD2       18.0650    1.1370   24.5960 C.ar  119  HIS119      0.1154
    154  CE1       18.9740    0.1010   26.3000 C.ar  119  HIS119      0.1986
    155  NE2       18.8070    1.2860   25.7390 N.ar  119  HIS119     -0.2212
    156  N         19.7550   -2.8550   23.6580 N.am  120  PRO120     -0.2718
    157  CA        20.3690   -4.0110   24.3200 C.3   120  PRO120      0.1535
    158  C         19.6140   -4.4620   25.5700 C.2   120  PRO120      0.2598
    159  O         19.7320   -5.6220   25.9540 O.2   120  PRO120     -0.2715
    160  CB        21.7570   -3.4950   24.6980 C.3   120  PRO120      0.0310
    161  CG        22.0360   -2.4270   23.7030 C.3   120  PRO120      0.0237
    162  CD        20.7120   -1.7570   23.4670 C.3   120  PRO120      0.0939
    163  N         18.8430   -3.5670   26.1830 N.am  121  LEU121     -0.1978
    164  CA        18.0590   -3.9270   27.3620 C.3   121  LEU121      0.1596
    165  C         16.6000   -4.1990   27.0370 C.2   121  LEU121      0.2287
    166  O         15.8050   -4.4530   27.9390 O.2   121  LEU121     -0.2864
    167  CB        18.1650   -2.8440   28.4430 C.3   121  LEU121      0.0297
    168  CG        19.5850   -2.6670   28.9730 C.3   121  LEU121      0.0022
    169  CD1       19.6200   -1.6220   30.0800 C.3   121  LEU121      0.0001
    170  CD2       20.1410   -3.9820   29.4560 C.3   121  LEU121      0.0001
    171  N         16.1500   -0.6950   40.0070 N.3   128  PHE128     -0.1241
    172  CA        16.8580    0.5380   40.3090 C.3   128  PHE128      0.1605
    173  C         16.9020    0.7900   41.7980 C.2   128  PHE128      0.2264
    174  O         15.9310    0.5480   42.5270 O.2   128  PHE128     -0.2867
    175  CB        16.1600    1.7400   39.6610 C.3   128  PHE128      0.0534
    176  CG        16.3200    1.8180   38.1850 C.ar  128  PHE128     -0.0203
    177  CD1       17.4190    2.4510   37.6280 C.ar  128  PHE128     -0.0042
    178  CD2       15.3520    1.2820   37.3420 C.ar  128  PHE128     -0.0042
    179  CE1       17.5650    2.5350   36.2630 C.ar  128  PHE128     -0.0003
    180  CE2       15.4920    1.3690   35.9710 C.ar  128  PHE128     -0.0003
    181  CZ        16.6030    1.9920   35.4290 C.ar  128  PHE128     -0.0000
    182  N         14.1050   19.1020   26.9280 N.3   147  HIS147     -0.1226
    183  CA        15.1170   18.3670   27.6840 C.3   147  HIS147      0.1752
    184  C         15.8010   19.2820   28.6980 C.2   147  HIS147      0.2595
    185  O         15.8720   20.4910   28.4930 O.2   147  HIS147     -0.2718
    186  CB        16.2010   17.8140   26.7540 C.3   147  HIS147      0.0759
    187  CG        15.6720   17.0690   25.5700 C.ar  147  HIS147      0.0818
    188  ND1       15.3600   15.7270   25.6130 N.ar  147  HIS147     -0.2268
    189  CD2       15.4070   17.4770   24.3070 C.ar  147  HIS147      0.1154
    190  CE1       14.9180   15.3420   24.4280 C.ar  147  HIS147      0.1986
    191  NE2       14.9340   16.3860   23.6190 N.ar  147  HIS147     -0.2212
    192  N         16.3420   18.6930   29.7560 N.am  148  ALA148     -0.1980
    193  CA        17.1200   19.4390   30.7350 C.3   148  ALA148      0.1597
    194  C         18.3750   19.9530   30.0490 C.2   148  ALA148      0.2287
    195  O         18.8990   19.3030   29.1440 O.2   148  ALA148     -0.2864
    196  CB        17.4770   18.5500   31.9110 C.3   148  ALA148      0.0319
@<TRIPOS>BOND
     1   139   140    1
     2   139   145    1
     3   133   132    2
     4   141   140    1
     5   141   142    2
     6   140   143    1
     7   132   131    1
     8   145   144    1
     9   131   130    1
    10   131   134    1
    11   143   144    1
    12   134   135    1
    13   135   136    1
    14   136   138   am
    15   136   137    2
    16   146   147    1
    17    73    71    1
    18   147   148    1
    19   147   150    1
    20    72    71    1
    21    71    70    2
    22   148   149    2
    23   148   156   am
    24   150   151    1
    25   162   156    1
    26   162   161    1
    27   191   189   ar
    28   191   190   ar
    29   156   157    1
    30   161   160    1
    31    70    69    1
    32   189   187   ar
    33   157   160    1
    34   157   158    1
    35   190   188   ar
    36   151   153   ar
    37   151   152   ar
    38   153   155   ar
    39   121   120    2
    40    69    68    1
    41   152   154   ar
    42   187   188   ar
    43   187   186    1
    44   158   159    2
    45   158   163   am
    46   155   154   ar
    47   163   164    1
    48   120   119    1
    49    67    68    1
    50    67    64    1
    51    66    65    2
    52   186   183    1
    53   182   183    1
    54    80    79    2
    55   122   119    1
    56   122   123    1
    57   165   164    1
    58   165   166    2
    59   119   118    1
    60   164   167    1
    61   125   123   ar
    62   125   127   ar
    63    65    64    1
    64    65    74   am
    65   183   184    1
    66    64    63    1
    67   123   124   ar
    68    79    81   am
    69    79    78    1
    70   127   128   ar
    71   167   168    1
    72   185   184    2
    73    75    74    1
    74    75    78    1
    75    75    76    1
    76   116   115    2
    77   118   115   am
    78   184   192   am
    79   168   170    1
    80   168   169    1
    81   124   126   ar
    82   195   194    2
    83    77    76    2
    84   115   114    1
    85    76    82   am
    86   128   126   ar
    87   128   129    1
    88   192   193    1
    89   104   103    1
    90   104    98    1
    91    96    94    1
    92   103   102    1
    93   194   193    1
    94    82    83    1
    95    85    84    2
    96   114   113    1
    97   114   117    1
    98   193   196    1
    99    91    90    1
   100    91    94    1
   101    91    92    1
   102    84    90   am
   103    84    83    1
   104   102    99    1
   105    94    95    1
   106    83    86    1
   107    98    92   am
   108    98    99    1
   109    92    93    2
   110    99   100    1
   111    27    26    1
   112    95    97    1
   113    86    87    1
   114    48    47    2
   115    55    52    1
   116    55    56    1
   117    52    53    1
   118    52    51    1
   119   100   101    2
   120    28    26    1
   121    53    54    2
   122    88    87    1
   123    26    25    1
   124    24    23    2
   125    87    89    1
   126    36    34   ar
   127    25    22    1
   128    34    35   ar
   129    34    33    1
   130    19    18    1
   131    58    56   ar
   132    58    60   ar
   133    33    30    1
   134    47    51   am
   135    47    46    1
   136    56    57   ar
   137    44    42    1
   138    20    18    1
   139    23    22    1
   140    23    29   am
   141    12    11    1
   142    22    21    1
   143    41    42    1
   144    41    38    1
   145    60    61   ar
   146    43    42    1
   147    18    17    1
   148    45    46    1
   149    45    39   am
   150    30    29    1
   151    30    31    1
   152    46    49    1
   153    49    50    1
   154    57    59   ar
   155   181   180   ar
   156   181   179   ar
   157   105   106    1
   158    38    39    1
   159    38    37    1
   160    11    10   ar
   161    11     9   ar
   162   109   106    1
   163   109   110    1
   164    39    40    2
   165   180   178   ar
   166    17    14    1
   167   112   110    1
   168    61    59   ar
   169    61    62    1
   170    10     8   ar
   171   179   177   ar
   172    31    32    2
   173   106   107    1
   174     9     7   ar
   175   107   108    2
   176   110   111    1
   177    16    15    2
   178     8     6   ar
   179   178   176   ar
   180    14    15    1
   181    14    13    1
   182   177   176   ar
   183     7     6   ar
   184     6     5    1
   185   176   175    1
   186     5     2    1
   187   175   172    1
   188   171   172    1
   189     4     3    2
   190   172   173    1
   191     3     2    1
   192     2     1    1
   193   173   174    2
