@<TRIPOS>MOLECULE
tmp/4odmC01.pdb
 124 124 0 0 0
SMALL
GASTEIGER

@<TRIPOS>ATOM
      1  N        -19.6520  -10.7310   -1.8280 N.3    74  VAL74      -0.1231
      2  CA       -19.4110   -9.3850   -2.3350 C.3    74  VAL74       0.1678
      3  C        -18.0500   -9.3380   -3.0260 C.2    74  VAL74       0.2434
      4  O        -17.2110  -10.2020   -2.8020 O.2    74  VAL74      -0.2733
      5  CB       -19.4500   -8.3510   -1.1920 C.3    74  VAL74       0.0265
      6  CG1      -20.8030   -8.3720   -0.4920 C.3    74  VAL74       0.0020
      7  CG2      -18.3400   -8.6360   -0.1860 C.3    74  VAL74       0.0020
      8  N        -17.8300   -8.3350   -3.8890 N.am   75  PRO75      -0.2729
      9  CA       -16.5110   -8.2590   -4.5270 C.3    75  PRO75       0.1401
     10  C        -15.4540   -7.7330   -3.5580 C.2    75  PRO75       0.2269
     11  O        -15.7830   -7.0170   -2.6140 O.2    75  PRO75      -0.2865
     12  CB       -16.7350   -7.2740   -5.6770 C.3    75  PRO75       0.0296
     13  CG       -17.8790   -6.4420   -5.2480 C.3    75  PRO75       0.0237
     14  CD       -18.7600   -7.3160   -4.4040 C.3    75  PRO75       0.0939
     15  N        -13.3800   -5.5330   -4.1390 N.3    77  SER77      -0.1202
     16  CA       -13.3310   -4.0870   -4.3380 C.3    77  SER77       0.2020
     17  C        -14.3980   -3.3400   -3.5340 C.2    77  SER77       0.2619
     18  O        -14.4670   -2.1110   -3.5720 O.2    77  SER77      -0.2717
     19  CB       -13.4650   -3.7520   -5.8270 C.3    77  SER77       0.2103
     20  OG       -14.7290   -4.1570   -6.3240 O.3    77  SER77      -0.2182
     21  N        -15.2300   -4.0820   -2.8120 N.am   78  ALA78      -0.1965
     22  CA       -16.2320   -3.4790   -1.9440 C.3    78  ALA78       0.1728
     23  C        -15.5980   -2.9430   -0.6660 C.2    78  ALA78       0.2616
     24  O        -16.2120   -2.1670    0.0620 O.2    78  ALA78      -0.2715
     25  CB       -17.2920   -4.4930   -1.5950 C.3    78  ALA78       0.0334
     26  N        -14.3730   -3.3740   -0.3910 N.am   79  PHE79      -0.1960
     27  CA       -13.7240   -3.0720    0.8830 C.3    79  PHE79       0.1756
     28  C        -12.7720   -1.8850    0.7160 C.2    79  PHE79       0.2461
     29  O        -12.3360   -1.6030   -0.3930 O.2    79  PHE79      -0.2730
     30  CB       -12.9560   -4.2990    1.3850 C.3    79  PHE79       0.0574
     31  CG       -13.8320   -5.4630    1.7620 C.ar   79  PHE79      -0.0200
     32  CD1      -14.2320   -6.3890    0.8100 C.ar   79  PHE79      -0.0042
     33  CD2      -14.2380   -5.6460    3.0730 C.ar   79  PHE79      -0.0042
     34  CE1      -15.0250   -7.4710    1.1620 C.ar   79  PHE79      -0.0003
     35  CE2      -15.0360   -6.7220    3.4260 C.ar   79  PHE79      -0.0003
     36  CZ       -15.4290   -7.6350    2.4640 C.ar   79  PHE79      -0.0000
     37  N        -12.4550   -1.1830    1.8180 N.am   80  PRO80      -0.2716
     38  CA       -11.5010   -0.0680    1.7600 C.3    80  PRO80       0.1536
     39  C        -10.1310   -0.5110    1.2450 C.2    80  PRO80       0.2598
     40  O         -9.7050   -1.6320    1.5250 O.2    80  PRO80      -0.2715
     41  CB       -11.3990    0.3810    3.2190 C.3    80  PRO80       0.0310
     42  CG       -12.6940   -0.0480    3.8360 C.3    80  PRO80       0.0237
     43  CD       -13.0260   -1.3470    3.1670 C.3    80  PRO80       0.0939
     44  N         -9.4630    0.3760    0.5100 N.am   81  GLU81      -0.1978
     45  CA        -8.2110    0.0780   -0.1910 C.3    81  GLU81       0.1602
     46  C         -7.1500   -0.6740    0.6200 C.2    81  GLU81       0.2287
     47  O         -6.5760   -1.6560    0.1460 O.2    81  GLU81      -0.2864
     48  CB        -7.6020    1.3740   -0.7420 C.3    81  GLU81       0.0415
     49  CG        -7.5460    2.5120    0.2740 C.3    81  GLU81       0.1163
     50  CD        -6.5510    3.5950   -0.1030 C.2    81  GLU81       0.3649
     51  OE1       -5.8330    3.4250   -1.1120 O.co2  81  GLU81      -0.2457
     52  OE2       -6.4840    4.6170    0.6120 O.co2  81  GLU81      -0.2457
     53  N        -13.6120   -8.0720   10.6920 N.3    90  GLN90      -0.1231
     54  CA       -14.9300   -7.4910   10.8920 C.3    90  GLN90       0.1698
     55  C        -15.0150   -6.1270   10.2450 C.2    90  GLN90       0.2592
     56  O        -14.1080   -5.3090   10.3660 O.2    90  GLN90      -0.2718
     57  CB       -15.2510   -7.3680   12.3810 C.3    90  GLN90       0.0381
     58  CG       -15.4530   -8.6970   13.0770 C.3    90  GLN90       0.0905
     59  CD       -16.4140   -8.5960   14.2440 C.2    90  GLN90       0.2608
     60  OE1      -16.8300   -7.5010   14.6310 O.2    90  GLN90      -0.2717
     61  NE2      -16.7850   -9.7420   14.8030 N.am   90  GLN90      -0.0878
     62  N        -16.1200   -5.8880    9.5550 N.am   91  PHE91      -0.1962
     63  CA       -16.3630   -4.6130    8.9160 C.3    91  PHE91       0.1771
     64  C        -17.8370   -4.3160    9.0930 C.2    91  PHE91       0.2620
     65  O        -18.5360   -5.0430    9.7830 O.2    91  PHE91      -0.2715
     66  CB       -16.0510   -4.6910    7.4240 C.3    91  PHE91       0.0574
     67  CG       -14.6110   -4.9510    7.1070 C.ar   91  PHE91      -0.0200
     68  CD1      -14.1390   -6.2490    6.9850 C.ar   91  PHE91      -0.0042
     69  CD2      -13.7290   -3.8990    6.9150 C.ar   91  PHE91      -0.0042
     70  CE1      -12.8140   -6.4930    6.6780 C.ar   91  PHE91      -0.0003
     71  CE2      -12.3980   -4.1360    6.6130 C.ar   91  PHE91      -0.0003
     72  CZ       -11.9400   -5.4370    6.4990 C.ar   91  PHE91      -0.0000
     73  N        -18.3130   -3.2540    8.4570 N.am   92  TYR92      -0.1960
     74  CA       -19.7430   -3.0000    8.4320 C.3    92  TYR92       0.1771
     75  C        -20.1800   -2.3460    7.1270 C.2    92  TYR92       0.2619
     76  O        -19.4330   -1.5830    6.5100 O.2    92  TYR92      -0.2715
     77  CB       -20.1920   -2.1760    9.6450 C.3    92  TYR92       0.0574
     78  CG       -19.6820   -0.7540    9.6640 C.ar   92  TYR92      -0.0198
     79  CD1      -18.4350   -0.4500   10.1940 C.ar   92  TYR92      -0.0009
     80  CD2      -20.4550    0.2880    9.1680 C.ar   92  TYR92      -0.0009
     81  CE1      -17.9630    0.8530   10.2150 C.ar   92  TYR92       0.0417
     82  CE2      -19.9920    1.5960    9.1860 C.ar   92  TYR92       0.0417
     83  CZ       -18.7470    1.8710    9.7120 C.ar   92  TYR92       0.1957
     84  OH       -18.2820    3.1670    9.7320 O.3    92  TYR92      -0.2866
     85  N        -21.3880   -2.6880    6.7020 N.am   93  ALA93      -0.1963
     86  CA       -22.0440   -2.0100    5.5990 C.3    93  ALA93       0.1728
     87  C        -23.1030   -1.1100    6.2180 C.2    93  ALA93       0.2616
     88  O        -23.1610   -0.9760    7.4380 O.2    93  ALA93      -0.2715
     89  CB       -22.6790   -3.0200    4.6640 C.3    93  ALA93       0.0334
     90  N        -23.9400   -0.4960    5.3910 N.am   94  GLN94      -0.1977
     91  CA       -25.0170    0.3470    5.9040 C.3    94  GLN94       0.1601
     92  C        -26.3800   -0.1450    5.4410 C.2    94  GLN94       0.2287
     93  O        -26.5290   -0.5990    4.3090 O.2    94  GLN94      -0.2864
     94  CB       -24.8170    1.8000    5.4730 C.3    94  GLN94       0.0394
     95  CG       -23.6580    2.4970    6.1660 C.3    94  GLN94       0.0908
     96  CD       -23.3960    3.8890    5.6150 C.2    94  GLN94       0.2608
     97  OE1      -23.7390    4.1940    4.4700 O.2    94  GLN94      -0.2717
     98  NE2      -22.7850    4.7430    6.4310 N.am   94  GLN94      -0.0878
     99  N        -20.4480   -7.0540    9.8480 N.3   103  LEU103     -0.1245
    100  CA       -20.2830   -8.3240    9.1760 C.3   103  LEU103      0.1561
    101  C        -18.9430   -8.9250    9.5190 C.2   103  LEU103      0.2260
    102  O        -18.0210   -8.2190    9.9300 O.2   103  LEU103     -0.2867
    103  CB       -20.4250   -8.1420    7.6620 C.3   103  LEU103      0.0270
    104  CG       -19.4610   -7.1500    7.0060 C.3   103  LEU103      0.0019
    105  CD1      -18.1190   -7.7980    6.6620 C.3   103  LEU103      0.0001
    106  CD2      -20.1030   -6.5480    5.7670 C.3   103  LEU103      0.0001
    107  N        -19.1840  -12.9220    3.0970 N.3   115  VAL115     -0.1245
    108  CA       -19.3780  -12.2470    4.3720 C.3   115  VAL115      0.1561
    109  C        -20.6300  -12.7740    5.0570 C.2   115  VAL115      0.2260
    110  O        -21.5050  -13.3420    4.4090 O.2   115  VAL115     -0.2867
    111  CB       -19.5010  -10.7280    4.1810 C.3   115  VAL115      0.0252
    112  CG1      -18.2200  -10.1700    3.5490 C.3   115  VAL115      0.0019
    113  CG2      -20.7170  -10.4000    3.3130 C.3   115  VAL115      0.0019
    114  N        -23.5950  -11.5560    7.8990 N.3   117  PHE117     -0.1241
    115  CA       -24.2250  -10.5180    8.7090 C.3   117  PHE117      0.1605
    116  C        -24.8640  -11.0530    9.9920 C.2   117  PHE117      0.2264
    117  O        -25.3860  -10.2820   10.7970 O.2   117  PHE117     -0.2867
    118  CB       -25.2910   -9.7850    7.8900 C.3   117  PHE117      0.0534
    119  CG       -24.7320   -8.9610    6.7750 C.ar  117  PHE117     -0.0203
    120  CD1      -24.2020   -7.7050    7.0230 C.ar  117  PHE117     -0.0042
    121  CD2      -24.7390   -9.4370    5.4720 C.ar  117  PHE117     -0.0042
    122  CE1      -23.6840   -6.9430    5.9910 C.ar  117  PHE117     -0.0003
    123  CE2      -24.2290   -8.6800    4.4400 C.ar  117  PHE117     -0.0003
    124  CZ       -23.6990   -7.4320    4.7010 C.ar  117  PHE117     -0.0000
@<TRIPOS>BOND
     1    20    19    1
     2    19    16    1
     3    12    13    1
     4    12     9    1
     5    13    14    1
     6     9     8    1
     7     9    10    1
     8    14     8    1
     9    16    15    1
    10    16    17    1
    11     8     3   am
    12    18    17    2
    13    10    11    2
    14    17    21   am
    15     3     4    2
    16     3     2    1
    17    21    22    1
    18     2     1    1
    19     2     5    1
    20    22    25    1
    21    22    23    1
    22     5     6    1
    23     5     7    1
    24    51    50   ar
    25    48    45    1
    26    48    49    1
    27    23    26   am
    28    23    24    2
    29    29    28    2
    30    26    27    1
    31    45    44    1
    32    45    46    1
    33    50    49    1
    34    50    52   ar
    35    47    46    2
    36    44    39   am
    37    28    27    1
    38    28    37   am
    39    32    34   ar
    40    32    31   ar
    41    27    30    1
    42    34    36   ar
    43    39    40    2
    44    39    38    1
    45    30    31    1
    46    38    37    1
    47    38    41    1
    48    31    33   ar
    49    37    43    1
    50    36    35   ar
    51    33    35   ar
    52   107   108    1
    53    43    42    1
    54    41    42    1
    55   113   111    1
    56   112   111    1
    57   111   108    1
    58    93    92    2
    59   108   109    1
    60   110   109    2
    61   123   124   ar
    62   123   121   ar
    63    97    96    2
    64    89    86    1
    65   124   122   ar
    66    90    91    1
    67    90    87   am
    68    92    91    1
    69   121   119   ar
    70    94    91    1
    71    94    95    1
    72    86    87    1
    73    86    85    1
    74    96    95    1
    75    96    98   am
    76   106   104    1
    77   122   120   ar
    78    87    88    2
    79    72    71   ar
    80    72    70   ar
    81    76    75    2
    82    71    69   ar
    83   105   104    1
    84    70    68   ar
    85    85    75   am
    86   119   120   ar
    87   119   118    1
    88    69    67   ar
    89    68    67   ar
    90   104   103    1
    91    67    66    1
    92    75    74    1
    93    66    63    1
    94   103   100    1
    95   118   115    1
    96   114   115    1
    97    74    73    1
    98    74    77    1
    99    73    64   am
   100   115   116    1
   101    63    64    1
   102    63    62    1
   103    64    65    2
   104    80    82   ar
   105    80    78   ar
   106   100   101    1
   107   100    99    1
   108    82    83   ar
   109   101   102    2
   110    62    55   am
   111    77    78    1
   112    78    79   ar
   113    83    84    1
   114    83    81   ar
   115   116   117    2
   116    79    81   ar
   117    55    56    2
   118    55    54    1
   119    53    54    1
   120    54    57    1
   121    57    58    1
   122    58    59    1
   123    59    60    2
   124    59    61   am
