@<TRIPOS>MOLECULE
tmp/4odmD01.pdb
 124 124 0 0 0
SMALL
GASTEIGER

@<TRIPOS>ATOM
      1  N        -18.6850    9.4580   54.0610 N.3    74  VAL74      -0.1231
      2  CA       -19.1070   10.8180   54.3330 C.3    74  VAL74       0.1678
      3  C        -20.4190   10.7480   55.0890 C.2    74  VAL74       0.2434
      4  O        -21.1130    9.7240   55.0420 O.2    74  VAL74      -0.2733
      5  CB       -19.3000   11.6330   53.0260 C.3    74  VAL74       0.0265
      6  CG1      -17.9810   11.7560   52.2720 C.3    74  VAL74       0.0020
      7  CG2      -20.3600   10.9880   52.1500 C.3    74  VAL74       0.0020
      8  N        -20.7590   11.8230   55.8100 N.am   75  PRO75      -0.2729
      9  CA       -22.0370   11.8490   56.5210 C.3    75  PRO75       0.1401
     10  C        -23.2130   12.0480   55.5740 C.2    75  PRO75       0.2269
     11  O        -23.0730   12.6580   54.5090 O.2    75  PRO75      -0.2865
     12  CB       -21.8940   13.0490   57.4670 C.3    75  PRO75       0.0296
     13  CG       -20.8610   13.9230   56.8210 C.3    75  PRO75       0.0237
     14  CD       -19.9130   12.9990   56.1210 C.3    75  PRO75       0.0939
     15  N        -25.5030   13.9910   56.0260 N.3    77  SER77      -0.1202
     16  CA       -25.7320   15.4320   56.0240 C.3    77  SER77       0.2020
     17  C        -24.9530   16.1700   54.9220 C.2    77  SER77       0.2619
     18  O        -25.1590   17.3580   54.6900 O.2    77  SER77      -0.2717
     19  CB       -25.3870   16.0220   57.3970 C.3    77  SER77       0.2103
     20  OG       -23.9990   15.9010   57.6580 O.3    77  SER77      -0.2182
     21  N        -24.0670   15.4600   54.2410 N.am   78  ALA78      -0.1965
     22  CA       -23.2760   16.0360   53.1730 C.3    78  ALA78       0.1728
     23  C        -24.1500   16.2830   51.9380 C.2    78  ALA78       0.2616
     24  O        -23.8180   17.1130   51.1040 O.2    78  ALA78      -0.2715
     25  CB       -22.1480   15.1000   52.8190 C.3    78  ALA78       0.0334
     26  N        -25.2570   15.5490   51.8440 N.am   79  PHE79      -0.1960
     27  CA       -26.0310   15.4500   50.5980 C.3    79  PHE79       0.1756
     28  C        -27.1530   16.4840   50.5380 C.2    79  PHE79       0.2461
     29  O        -27.5520   16.9940   51.5740 O.2    79  PHE79      -0.2730
     30  CB       -26.5970   14.0330   50.4730 C.3    79  PHE79       0.0574
     31  CG       -25.5440   12.9920   50.1860 C.ar   79  PHE79      -0.0200
     32  CD1      -25.2620   12.6100   48.8800 C.ar   79  PHE79      -0.0042
     33  CD2      -24.8240   12.4190   51.2160 C.ar   79  PHE79      -0.0042
     34  CE1      -24.2780   11.6640   48.6080 C.ar   79  PHE79      -0.0003
     35  CE2      -23.8510   11.4550   50.9540 C.ar   79  PHE79      -0.0003
     36  CZ       -23.5720   11.0810   49.6500 C.ar   79  PHE79      -0.0000
     37  N        -27.6650   16.7860   49.3190 N.am   80  PRO80      -0.2716
     38  CA       -28.7490   17.7640   49.1620 C.3    80  PRO80       0.1536
     39  C        -29.9820   17.3370   49.9510 C.2    80  PRO80       0.2598
     40  O        -30.2260   16.1450   50.0870 O.2    80  PRO80      -0.2715
     41  CB       -29.0770   17.7030   47.6600 C.3    80  PRO80       0.0310
     42  CG       -27.9180   17.0850   47.0100 C.3    80  PRO80       0.0237
     43  CD       -27.2650   16.1940   48.0320 C.3    80  PRO80       0.0939
     44  N        -30.7430   18.2900   50.4760 N.am   81  GLU81      -0.1978
     45  CA       -32.0120   17.9550   51.1010 C.3    81  GLU81       0.1602
     46  C        -32.8880   17.2260   50.0800 C.2    81  GLU81       0.2287
     47  O        -32.8510   17.5360   48.8920 O.2    81  GLU81      -0.2864
     48  CB       -32.7260   19.2140   51.6010 C.3    81  GLU81       0.0415
     49  CG       -34.0320   18.9170   52.3340 C.3    81  GLU81       0.1163
     50  CD       -34.8400   20.1650   52.6500 C.2    81  GLU81       0.3649
     51  OE1      -34.5580   20.8140   53.6790 O.co2  81  GLU81      -0.2457
     52  OE2      -35.7630   20.4920   51.8720 O.co2  81  GLU81      -0.2457
     53  N        -25.6660    9.0720   41.7750 N.3    90  GLN90      -0.1231
     54  CA       -24.4710    9.8150   41.4070 C.3    90  GLN90       0.1698
     55  C        -24.5950   11.2990   41.7290 C.2    90  GLN90       0.2592
     56  O        -25.6830   11.8670   41.6570 O.2    90  GLN90      -0.2718
     57  CB       -24.1380    9.5340   39.9480 C.3    90  GLN90       0.0381
     58  CG       -23.9000    8.0170   39.7640 C.3    90  GLN90       0.0905
     59  CD       -23.5430    7.5880   38.3630 C.2    90  GLN90       0.2608
     60  OE1      -24.2430    7.9000   37.4010 O.2    90  GLN90      -0.2717
     61  NE2      -22.4510    6.8350   38.2440 N.am   90  GLN90      -0.0878
     62  N        -23.4790   11.8930   42.1320 N.am   91  PHE91      -0.1962
     63  CA       -23.4560   13.2670   42.6360 C.3    91  PHE91       0.1771
     64  C        -22.1040   13.8670   42.2900 C.2    91  PHE91       0.2620
     65  O        -21.2670   13.2100   41.6710 O.2    91  PHE91      -0.2715
     66  CB       -23.6150   13.2930   44.1630 C.3    91  PHE91       0.0574
     67  CG       -24.9420   12.7860   44.6610 C.ar   91  PHE91      -0.0200
     68  CD1      -26.0100   13.6600   44.8540 C.ar   91  PHE91      -0.0042
     69  CD2      -25.1290   11.4420   44.9360 C.ar   91  PHE91      -0.0042
     70  CE1      -27.2370   13.1930   45.3060 C.ar   91  PHE91      -0.0003
     71  CE2      -26.3560   10.9780   45.4030 C.ar   91  PHE91      -0.0003
     72  CZ       -27.4030   11.8540   45.5810 C.ar   91  PHE91      -0.0000
     73  N        -21.9010   15.1220   42.6890 N.am   92  TYR92      -0.1960
     74  CA       -20.6150   15.8030   42.5080 C.3    92  TYR92       0.1771
     75  C        -20.2210   16.4780   43.7990 C.2    92  TYR92       0.2619
     76  O        -21.0690   17.0510   44.4850 O.2    92  TYR92      -0.2715
     77  CB       -20.7370   16.9110   41.4450 C.3    92  TYR92       0.0574
     78  CG       -21.1930   16.3690   40.1220 C.ar   92  TYR92      -0.0198
     79  CD1      -20.3060   15.7140   39.2800 C.ar   92  TYR92      -0.0009
     80  CD2      -22.5220   16.4890   39.7280 C.ar   92  TYR92      -0.0009
     81  CE1      -20.7350   15.1920   38.0530 C.ar   92  TYR92       0.0417
     82  CE2      -22.9560   15.9740   38.5120 C.ar   92  TYR92       0.0417
     83  CZ       -22.0590   15.3360   37.6860 C.ar   92  TYR92       0.1957
     84  OH       -22.5050   14.8370   36.4800 O.3    92  TYR92      -0.2866
     85  N        -18.9270   16.4500   44.1130 N.am   93  ALA93      -0.1963
     86  CA       -18.4010   17.3200   45.1400 C.3    93  ALA93       0.1728
     87  C        -17.6240   18.3640   44.3730 C.2    93  ALA93       0.2616
     88  O        -17.7220   18.4320   43.1450 O.2    93  ALA93      -0.2715
     89  CB       -17.4810   16.5530   46.1080 C.3    93  ALA93       0.0334
     90  N        -16.8670   19.1880   45.0760 N.am   94  GLN94      -0.1977
     91  CA       -16.0680   20.1950   44.3920 C.3    94  GLN94       0.1601
     92  C        -14.6010   20.0070   44.7560 C.2    94  GLN94       0.2287
     93  O        -14.2870   19.8290   45.9250 O.2    94  GLN94      -0.2864
     94  CB       -16.5250   21.5810   44.8070 C.3    94  GLN94       0.0394
     95  CG       -15.8740   22.7010   44.0310 C.3    94  GLN94       0.0908
     96  CD       -16.4660   24.0560   44.3750 C.2    94  GLN94       0.2608
     97  OE1      -16.7700   24.3480   45.5380 O.2    94  GLN94      -0.2717
     98  NE2      -16.6360   24.8940   43.3620 N.am   94  GLN94      -0.0878
     99  N        -18.9300   11.4860   41.9720 N.3   103  LEU103     -0.1245
    100  CA       -18.8540   10.3810   42.9180 C.3   103  LEU103      0.1561
    101  C        -20.0900    9.5280   42.7410 C.2   103  LEU103      0.2260
    102  O        -21.1240    9.9970   42.2370 O.2   103  LEU103     -0.2867
    103  CB       -18.7450   10.9010   44.3460 C.3   103  LEU103      0.0270
    104  CG       -19.9360   11.7180   44.8760 C.3   103  LEU103      0.0019
    105  CD1      -20.9450   10.8310   45.5820 C.3   103  LEU103      0.0001
    106  CD2      -19.4510   12.8130   45.8140 C.3   103  LEU103      0.0001
    107  N        -18.9450    6.4700   49.5720 N.3   115  VAL115     -0.1245
    108  CA       -18.9400    6.9770   48.2100 C.3   115  VAL115      0.1561
    109  C        -17.6360    6.6180   47.5150 C.2   115  VAL115      0.2260
    110  O        -16.6430    6.3000   48.1610 O.2   115  VAL115     -0.2867
    111  CB       -19.1350    8.5180   48.1640 C.3   115  VAL115      0.0252
    112  CG1      -20.4640    8.9170   48.8180 C.3   115  VAL115      0.0019
    113  CG2      -17.9550    9.2350   48.8550 C.3   115  VAL115      0.0019
    114  N        -14.9820    8.0400   44.6140 N.3   117  PHE117     -0.1241
    115  CA       -14.5250    9.1510   43.7760 C.3   117  PHE117      0.1605
    116  C        -13.6910    8.6790   42.5960 C.2   117  PHE117      0.2264
    117  O        -13.2320    9.4990   41.7910 O.2   117  PHE117     -0.2867
    118  CB       -13.6680   10.1220   44.5900 C.3   117  PHE117      0.0534
    119  CG       -14.4350   10.9340   45.5820 C.ar  117  PHE117     -0.0203
    120  CD1      -15.1510   12.0490   45.1770 C.ar  117  PHE117     -0.0042
    121  CD2      -14.4070   10.6130   46.9260 C.ar  117  PHE117     -0.0042
    122  CE1      -15.8480   12.8180   46.1070 C.ar  117  PHE117     -0.0003
    123  CE2      -15.0920   11.3750   47.8590 C.ar  117  PHE117     -0.0003
    124  CZ       -15.8160   12.4790   47.4440 C.ar  117  PHE117     -0.0000
@<TRIPOS>BOND
     1    84    83    1
     2    60    59    2
     3    83    81   ar
     4    83    82   ar
     5    81    79   ar
     6    61    59   am
     7    59    58    1
     8    82    80   ar
     9    79    78   ar
    10    80    78   ar
    11    58    57    1
    12    57    54    1
    13    78    77    1
    14    54    55    1
    15    54    53    1
    16    77    74    1
    17    56    55    2
    18    65    64    2
    19    55    62   am
    20   117   116    2
    21    99   100    1
    22    62    63    1
    23   102   101    2
    24    64    63    1
    25    64    73   am
    26    74    73    1
    27    74    75    1
    28   116   115    1
    29    63    66    1
    30   101   100    1
    31   100   103    1
    32    88    87    2
    33    98    96   am
    34   115   118    1
    35   115   114    1
    36    75    85   am
    37    75    76    2
    38    95    96    1
    39    95    94    1
    40    85    86    1
    41    66    67    1
    42   103   104    1
    43    87    90   am
    44    87    86    1
    45    96    97    2
    46    91    92    1
    47    91    94    1
    48    91    90    1
    49   118   119    1
    50    67    68   ar
    51    67    69   ar
    52    92    93    2
    53    68    70   ar
    54   104   105    1
    55   104   106    1
    56    69    71   ar
    57    86    89    1
    58   120   119   ar
    59   120   122   ar
    60    70    72   ar
    61    71    72   ar
    62   119   121   ar
    63   122   124   ar
    64   121   123   ar
    65    42    41    1
    66    42    43    1
    67   124   123   ar
    68   109   110    2
    69   109   108    1
    70    41    38    1
    71    43    37    1
    72   111   108    1
    73   111   112    1
    74   111   113    1
    75   108   107    1
    76    34    32   ar
    77    34    36   ar
    78    32    31   ar
    79    47    46    2
    80    38    37    1
    81    38    39    1
    82    37    28   am
    83    36    35   ar
    84    39    40    2
    85    39    44   am
    86    46    45    1
    87    31    30    1
    88    31    33   ar
    89    30    27    1
    90    44    45    1
    91    28    27    1
    92    28    29    2
    93    27    26    1
    94    35    33   ar
    95    45    48    1
    96    24    23    2
    97    48    49    1
    98    26    23   am
    99    52    50   ar
   100    23    22    1
   101     7     5    1
   102     6     5    1
   103    49    50    1
   104    50    51   ar
   105    25    22    1
   106     5     2    1
   107    22    21    1
   108     1     2    1
   109    21    17   am
   110     2     3    1
   111    11    10    2
   112    18    17    2
   113    17    16    1
   114     4     3    2
   115     3     8   am
   116    10     9    1
   117     8    14    1
   118     8     9    1
   119    16    15    1
   120    16    19    1
   121    14    13    1
   122     9    12    1
   123    13    12    1
   124    19    20    1
