@<TRIPOS>MOLECULE
tmp/4odmB02.pdb
 105 108 0 0 0
SMALL
GASTEIGER

@<TRIPOS>ATOM
      1  N         29.3000   -3.6620   17.5900 N.3    90  GLN90      -0.1231
      2  CA        28.2290   -2.7100   17.3540 C.3    90  GLN90       0.1698
      3  C         28.5260   -1.7860   16.1780 C.2    90  GLN90       0.2592
      4  O         29.6810   -1.4360   15.9050 O.2    90  GLN90      -0.2718
      5  CB        27.8980   -1.9410   18.6380 C.3    90  GLN90       0.0381
      6  CG        27.3210   -2.8600   19.7300 C.3    90  GLN90       0.0905
      7  CD        26.9550   -2.1370   21.0020 C.2    90  GLN90       0.2608
      8  OE1       27.7560   -1.3900   21.5520 O.2    90  GLN90      -0.2717
      9  NE2       25.7300   -2.3580   21.4820 N.am   90  GLN90      -0.0878
     10  N         27.4650   -1.4240   15.4690 N.am   91  PHE91      -0.1962
     11  CA        27.5700   -0.6380   14.2530 C.3    91  PHE91       0.1771
     12  C         26.2900    0.1670   14.1720 C.2    91  PHE91       0.2619
     13  O         25.4950    0.1580   15.1000 O.2    91  PHE91      -0.2715
     14  CB        27.6690   -1.5500   13.0240 C.3    91  PHE91       0.0574
     15  CG        28.9010   -2.4260   12.9920 C.ar   91  PHE91      -0.0200
     16  CD1       28.8980   -3.6820   13.5910 C.ar   91  PHE91      -0.0042
     17  CD2       30.0520   -2.0030   12.3440 C.ar   91  PHE91      -0.0042
     18  CE1       30.0220   -4.4870   13.5640 C.ar   91  PHE91      -0.0003
     19  CE2       31.1850   -2.8110   12.3080 C.ar   91  PHE91      -0.0003
     20  CZ        31.1670   -4.0560   12.9230 C.ar   91  PHE91      -0.0000
     21  N         26.0750    0.8570   13.0600 N.am   92  TYR92      -0.1974
     22  CA        24.7720    1.4660   12.8430 C.3    92  TYR92       0.1639
     23  C         24.4430    1.5300   11.3610 C.2    92  TYR92       0.2290
     24  O         25.3310    1.6660   10.5320 O.2    92  TYR92      -0.2864
     25  CB        24.6870    2.8550   13.4880 C.3    92  TYR92       0.0560
     26  CG        25.4610    3.9340   12.7740 C.ar   92  TYR92      -0.0198
     27  CD1       24.8450    4.7570   11.8300 C.ar   92  TYR92      -0.0009
     28  CD2       26.8070    4.1370   13.0380 C.ar   92  TYR92      -0.0009
     29  CE1       25.5580    5.7480   11.1680 C.ar   92  TYR92       0.0417
     30  CE2       27.5280    5.1270   12.3850 C.ar   92  TYR92       0.0417
     31  CZ        26.8990    5.9270   11.4520 C.ar   92  TYR92       0.1957
     32  OH        27.6130    6.9090   10.8050 O.3    92  TYR92      -0.2866
     33  N         20.8980    7.6760   12.4690 N.3   100  PRO100     -0.2116
     34  CA        21.5870    6.4340   12.8390 C.3   100  PRO100      0.1372
     35  C         20.6570    5.4030   13.4760 C.2   100  PRO100      0.2244
     36  O         19.7870    5.7490   14.2760 O.2   100  PRO100     -0.2868
     37  CB        22.6230    6.8990   13.8650 C.3   100  PRO100      0.0268
     38  CG        22.8400    8.3290   13.5620 C.3   100  PRO100      0.0207
     39  CD        21.5150    8.8530   13.1030 C.3   100  PRO100      0.0892
     40  N         21.4400    2.1600   15.5440 N.3   102  PRO102     -0.2102
     41  CA        22.4630    1.2680   16.0860 C.3   102  PRO102      0.1504
     42  C         22.0130   -0.1920   16.0440 C.2   102  PRO102      0.2576
     43  O         20.8140   -0.4900   16.0950 O.2   102  PRO102     -0.2718
     44  CB        22.6380    1.7530   17.5330 C.3   102  PRO102      0.0282
     45  CG        21.4400    2.5860   17.8220 C.3   102  PRO102      0.0208
     46  CD        20.9820    3.1590   16.5210 C.3   102  PRO102      0.0893
     47  N         22.9850   -1.0850   15.9370 N.am  103  LEU103     -0.1966
     48  CA        22.7060   -2.5110   15.8770 C.3   103  LEU103      0.1728
     49  C         23.8440   -3.2550   16.5410 C.2   103  LEU103      0.2616
     50  O         24.9610   -2.7450   16.6340 O.2   103  LEU103     -0.2715
     51  CB        22.5670   -2.9650   14.4190 C.3   103  LEU103      0.0311
     52  CG        23.8070   -2.8590   13.5190 C.3   103  LEU103      0.0022
     53  CD1       24.7310   -4.0780   13.6500 C.3   103  LEU103      0.0001
     54  CD2       23.3900   -2.6430   12.0620 C.3   103  LEU103      0.0001
     55  N         23.5500   -4.4720   16.9780 N.am  104  THR104     -0.1951
     56  CA        24.5570   -5.3600   17.5220 C.3   104  THR104      0.1897
     57  C         24.5780   -6.6310   16.6870 C.2   104  THR104      0.2313
     58  O         23.5300   -7.1710   16.3460 O.2   104  THR104     -0.2863
     59  CB        24.2280   -5.7250   18.9810 C.3   104  THR104      0.1794
     60  OG1       24.0620   -4.5210   19.7480 O.3   104  THR104     -0.2208
     61  CG2       25.3430   -6.5690   19.5850 C.3   104  THR104      0.0378
     62  N         20.8880   -7.2790   15.3610 N.3   116  ASP116     -0.1225
     63  CA        19.7290   -6.9350   16.1680 C.3   116  ASP116      0.1805
     64  C         19.7150   -5.4250   16.3650 C.2   116  ASP116      0.2598
     65  O         20.6720   -4.8480   16.9000 O.2   116  ASP116     -0.2718
     66  CB        19.7770   -7.6540   17.5200 C.3   116  ASP116      0.1424
     67  CG        18.4310   -7.6610   18.2380 C.2   116  ASP116      0.3668
     68  OD1       17.5730   -6.8130   17.9300 O.co2 116  ASP116     -0.2456
     69  OD2       18.2260   -8.5290   19.1190 O.co2 116  ASP116     -0.2456
     70  N         18.6330   -4.7960   15.9160 N.am  117  PHE117     -0.1962
     71  CA        18.4440   -3.3550   16.0610 C.3   117  PHE117      0.1771
     72  C         17.7900   -2.9640   17.3860 C.2   117  PHE117      0.2620
     73  O         17.6370   -1.7770   17.6760 O.2   117  PHE117     -0.2715
     74  CB        17.5990   -2.8230   14.9090 C.3   117  PHE117      0.0574
     75  CG        18.3360   -2.7660   13.5960 C.ar  117  PHE117     -0.0200
     76  CD1       19.2250   -1.7330   13.3280 C.ar  117  PHE117     -0.0042
     77  CD2       18.1400   -3.7390   12.6360 C.ar  117  PHE117     -0.0042
     78  CE1       19.9000   -1.6690   12.1130 C.ar  117  PHE117     -0.0003
     79  CE2       18.8130   -3.6850   11.4250 C.ar  117  PHE117     -0.0003
     80  CZ        19.6940   -2.6510   11.1640 C.ar  117  PHE117     -0.0000
     81  N         17.3980   -3.9550   18.1820 N.am  118  ASN118     -0.1958
     82  CA        16.7800   -3.6840   19.4800 C.3   118  ASN118      0.1819
     83  C         17.7380   -3.0150   20.4600 C.2   118  ASN118      0.2621
     84  O         18.9490   -3.2470   20.4380 O.2   118  ASN118     -0.2715
     85  CB        16.2620   -4.9690   20.1390 C.3   118  ASN118      0.1195
     86  CG        14.9290   -5.4220   19.5810 C.2   118  ASN118      0.2630
     87  OD1       13.8660   -5.0060   20.0560 O.2   118  ASN118     -0.2716
     88  ND2       14.9740   -6.2940   18.5780 N.am  118  ASN118     -0.0877
     89  N         17.1810   -2.1870   21.3310 N.am  119  HIS119     -0.1960
     90  CA        17.9320   -1.7270   22.4870 C.3   119  HIS119      0.1772
     91  C         18.4980   -2.9400   23.2170 C.2   119  HIS119      0.2462
     92  O         17.8220   -3.9530   23.3650 O.2   119  HIS119     -0.2730
     93  CB        17.0320   -0.9300   23.4210 C.3   119  HIS119      0.0785
     94  CG        17.7860   -0.1810   24.4700 C.ar  119  HIS119      0.0821
     95  ND1       18.3700   -0.8030   25.5510 N.ar  119  HIS119     -0.2267
     96  CD2       18.0650    1.1370   24.5960 C.ar  119  HIS119      0.1154
     97  CE1       18.9740    0.1010   26.3000 C.ar  119  HIS119      0.1986
     98  NE2       18.8070    1.2860   25.7390 N.ar  119  HIS119     -0.2212
     99  N         19.7550   -2.8550   23.6580 N.am  120  PRO120     -0.2727
    100  CA        20.3690   -4.0110   24.3200 C.3   120  PRO120      0.1402
    101  C         19.6140   -4.4620   25.5700 C.2   120  PRO120      0.2269
    102  O         19.7320   -5.6220   25.9540 O.2   120  PRO120     -0.2865
    103  CB        21.7570   -3.4950   24.6980 C.3   120  PRO120      0.0296
    104  CG        22.0360   -2.4270   23.7030 C.3   120  PRO120      0.0237
    105  CD        20.7120   -1.7570   23.4670 C.3   120  PRO120      0.0939
@<TRIPOS>BOND
     1    24    23    2
     2    32    31    1
     3    80    79   ar
     4    80    78   ar
     5    29    31   ar
     6    29    27   ar
     7    23    22    1
     8    79    77   ar
     9    31    30   ar
    10    27    26   ar
    11    54    52    1
    12    78    76   ar
    13    19    17   ar
    14    19    20   ar
    15    17    15   ar
    16    30    28   ar
    17    33    34    1
    18    33    39    1
    19    77    75   ar
    20    26    28   ar
    21    26    25    1
    22    34    35    1
    23    34    37    1
    24    22    21    1
    25    22    25    1
    26    20    18   ar
    27    15    14    1
    28    15    16   ar
    29    14    11    1
    30    21    12   am
    31    39    38    1
    32    76    75   ar
    33    35    36    2
    34    52    53    1
    35    52    51    1
    36    38    37    1
    37    18    16   ar
    38    75    74    1
    39    12    11    1
    40    12    13    2
    41    11    10    1
    42    51    48    1
    43    74    71    1
    44    62    63    1
    45    10     3   am
    46    40    41    1
    47    40    46    1
    48    48    47    1
    49    48    49    1
    50     4     3    2
    51    70    71    1
    52    70    64   am
    53    47    42   am
    54    42    41    1
    55    42    43    2
    56    71    72    1
    57    41    44    1
    58    63    64    1
    59    63    66    1
    60     3     2    1
    61    58    57    2
    62    64    65    2
    63    46    45    1
    64    49    50    2
    65    49    55   am
    66    57    56    1
    67    55    56    1
    68     2     1    1
    69     2     5    1
    70    72    73    2
    71    72    81   am
    72    66    67    1
    73    56    59    1
    74    44    45    1
    75    68    67   ar
    76    81    82    1
    77    67    69   ar
    78    88    86   am
    79     5     6    1
    80    59    61    1
    81    59    60    1
    82    82    85    1
    83    82    83    1
    84    86    87    2
    85    86    85    1
    86     6     7    1
    87    84    83    2
    88    83    89   am
    89     7     9   am
    90     7     8    2
    91    89    90    1
    92    90    91    1
    93    90    93    1
    94    91    92    2
    95    91    99   am
    96    93    94    1
    97   105    99    1
    98   105   104    1
    99    99   100    1
   100   104   103    1
   101   100   103    1
   102   100   101    1
   103    94    96   ar
   104    94    95   ar
   105    96    98   ar
   106    95    97   ar
   107   101   102    2
   108    98    97   ar
