@<TRIPOS>MOLECULE
tmp/4odoC00.pdb
 88 83 0 0 0
SMALL
GASTEIGER

@<TRIPOS>ATOM
      1  N         26.2970   56.9970   40.4620 N.3    10  THR10      -0.1203
      2  CA        26.0500   55.6070   40.8150 C.3    10  THR10       0.1994
      3  C         24.6130   55.2360   40.4940 C.2    10  THR10       0.2618
      4  O         23.6780   55.9120   40.9250 O.2    10  THR10      -0.2717
      5  CB        26.3340   55.3470   42.3030 C.3    10  THR10       0.1784
      6  OG1       27.7100   55.6270   42.5750 O.3    10  THR10      -0.2211
      7  CG2       26.0370   53.9000   42.6570 C.3    10  THR10       0.0376
      8  N         24.4410   54.1650   39.7270 N.am   11  ILE11      -0.1965
      9  CA        23.1170   53.7680   39.2850 C.3    11  ILE11       0.1727
     10  C         22.8100   52.2950   39.5160 C.2    11  ILE11       0.2616
     11  O         23.7080   51.4600   39.6460 O.2    11  ILE11      -0.2715
     12  CB        22.9130   54.0530   37.7710 C.3    11  ILE11       0.0290
     13  CG1       23.9180   53.2560   36.9290 C.3    11  ILE11       0.0022
     14  CG2       23.0060   55.5440   37.4730 C.3    11  ILE11       0.0023
     15  CD1       23.6560   53.3250   35.4340 C.3    11  ILE11       0.0001
     16  N         21.5190   52.0050   39.6050 N.am   12  ARG12      -0.1977
     17  CA        21.0240   50.6430   39.4890 C.3    12  ARG12       0.1597
     18  C         20.3950   50.5030   38.1090 C.2    12  ARG12       0.2287
     19  O         19.6170   51.3590   37.6890 O.2    12  ARG12      -0.2864
     20  CB        20.0120   50.3200   40.5900 C.3    12  ARG12       0.0334
     21  CG        20.5470   49.3970   41.6750 C.3    12  ARG12       0.0492
     22  CD        19.4480   48.9760   42.6450 C.3    12  ARG12       0.2205
     23  NE        19.2550   49.9400   43.7250 N.pl3  12  ARG12      -0.0865
     24  CZ        19.7840   49.8160   44.9390 C.cat  12  ARG12       0.5346
     25  NH1       20.5380   48.7640   45.2300 N.pl3  12  ARG12       0.1354
     26  NH2       19.5580   50.7390   45.8630 N.pl3  12  ARG12       0.1354
     27  N         24.6920   47.0330   39.3210 N.3    26  GLU26      -0.1245
     28  CA        25.0700   48.3570   39.8000 C.3    26  GLU26       0.1567
     29  C         26.3020   48.8750   39.0700 C.2    26  GLU26       0.2260
     30  O         27.1060   48.0950   38.5590 O.2    26  GLU26      -0.2867
     31  CB        25.3270   48.3230   41.3070 C.3    26  GLU26       0.0388
     32  CG        24.1630   47.7720   42.1180 C.3    26  GLU26       0.1160
     33  CD        24.5520   47.4230   43.5390 C.2    26  GLU26       0.3649
     34  OE1       25.7410   47.5880   43.8880 O.co2  26  GLU26      -0.2457
     35  OE2       23.6690   46.9820   44.3060 O.co2  26  GLU26      -0.2457
     36  N         29.0900   52.5390   39.0660 N.3    28  SER28      -0.1217
     37  CA        29.4990   53.9180   39.2870 C.3    28  SER28       0.1889
     38  C         30.3800   54.3290   38.1220 C.2    28  SER28       0.2288
     39  O         31.3430   53.6360   37.7920 O.2    28  SER28      -0.2866
     40  CB        30.2350   54.0830   40.6190 C.3    28  SER28       0.2089
     41  OG        29.3380   53.9400   41.7090 O.3    28  SER28      -0.2183
     42  N         21.1250   56.5870   41.9120 N.3   133  VAL133     -0.1231
     43  CA        21.2490   56.4020   43.3540 C.3   133  VAL133      0.1692
     44  C         22.1050   57.4720   44.0360 C.2   133  VAL133      0.2591
     45  O         21.7370   57.9930   45.0900 O.2   133  VAL133     -0.2718
     46  CB        21.8350   55.0150   43.6780 C.3   133  VAL133      0.0266
     47  CG1       21.9710   54.8300   45.1810 C.3   133  VAL133      0.0020
     48  CG2       20.9560   53.9250   43.0860 C.3   133  VAL133      0.0020
     49  N         23.2430   57.8040   43.4380 N.am  134  LYS134     -0.1980
     50  CA        24.1670   58.7440   44.0610 C.3   134  LYS134      0.1596
     51  C         24.8550   59.6150   43.0180 C.2   134  LYS134      0.2287
     52  O         25.2400   59.1340   41.9550 O.2   134  LYS134     -0.2864
     53  CB        25.2110   57.9880   44.8870 C.3   134  LYS134      0.0298
     54  CG        26.1000   58.8640   45.7520 C.3   134  LYS134      0.0038
     55  CD        25.4010   59.2460   47.0450 C.3   134  LYS134      0.0206
     56  CE        26.3480   59.9680   47.9880 C.3   134  LYS134      0.1093
     57  NZ        27.6120   59.2040   48.1820 N.3   134  LYS134     -0.1314
     58  N         27.9690   62.6200   42.8590 N.3   136  ARG136     -0.1245
     59  CA        28.9880   63.4200   43.5220 C.3   136  ARG136      0.1563
     60  C         29.9210   64.0070   42.4800 C.2   136  ARG136      0.2260
     61  O         29.8830   63.6140   41.3110 O.2   136  ARG136     -0.2867
     62  CB        29.7810   62.5870   44.5330 C.3   136  ARG136      0.0307
     63  CG        30.6300   61.4900   43.9070 C.3   136  ARG136      0.0489
     64  CD        31.6740   60.9700   44.8830 C.3   136  ARG136      0.2205
     65  NE        32.3290   59.7600   44.3920 N.pl3 136  ARG136     -0.0865
     66  CZ        33.3880   59.7530   43.5870 C.cat 136  ARG136      0.5346
     67  NH1       33.9250   60.8940   43.1750 N.pl3 136  ARG136      0.1354
     68  NH2       33.9140   58.6000   43.1930 N.pl3 136  ARG136      0.1354
     69  N         34.1460   49.9750   42.3210 N.3   151  SER151     -0.1202
     70  CA        33.3630   49.5230   43.4670 C.3   151  SER151      0.2020
     71  C         32.9230   48.0780   43.2480 C.2   151  SER151      0.2619
     72  O         32.8500   47.6130   42.1110 O.2   151  SER151     -0.2717
     73  CB        32.1360   50.4160   43.6850 C.3   151  SER151      0.2103
     74  OG        32.4880   51.7880   43.7570 O.3   151  SER151     -0.2182
     75  N         32.6300   47.3680   44.3350 N.am  152  GLY152     -0.1942
     76  CA        32.1220   46.0090   44.2390 C.3   152  GLY152      0.2014
     77  C         33.1470   44.9380   44.5560 C.2   152  GLY152      0.2638
     78  O         33.1070   43.8390   43.9950 O.2   152  GLY152     -0.2714
     79  N         34.0670   45.2600   45.4600 N.am  153  HIS153     -0.1973
     80  CA        35.1500   44.3540   45.8190 C.3   153  HIS153      0.1656
     81  C         34.6300   43.1320   46.5690 C.2   153  HIS153      0.2291
     82  O         33.8240   43.2480   47.4910 O.2   153  HIS153     -0.2864
     83  CB        36.1920   45.0850   46.6640 C.3   153  HIS153      0.0771
     84  CG        36.5080   46.4640   46.1750 C.ar  153  HIS153      0.0820
     85  ND1       37.6410   46.7560   45.4450 N.ar  153  HIS153     -0.2267
     86  CD2       35.8410   47.6350   46.3130 C.ar  153  HIS153      0.1154
     87  CE1       37.6590   48.0440   45.1570 C.ar  153  HIS153      0.1986
     88  NE2       36.5750   48.6010   45.6680 N.ar  153  HIS153     -0.2212
@<TRIPOS>BOND
     1    15    13    1
     2    13    12    1
     3    14    12    1
     4    19    18    2
     5    12     9    1
     6    39    38    2
     7    18    17    1
     8    38    37    1
     9    30    29    2
    10    36    37    1
    11    29    28    1
    12     9    10    1
    13     9     8    1
    14    37    40    1
    15    27    28    1
    16    17    16    1
    17    17    20    1
    18    10    16   am
    19    10    11    2
    20     8     3   am
    21    28    31    1
    22     1     2    1
    23     3     2    1
    24     3     4    2
    25    20    21    1
    26    40    41    1
    27     2     5    1
    28    31    32    1
    29    61    60    2
    30    21    22    1
    31    42    43    1
    32    52    51    2
    33    72    71    2
    34    32    33    1
    35     5     6    1
    36     5     7    1
    37    69    70    1
    38    60    59    1
    39    22    23    1
    40    58    59    1
    41    51    50    1
    42    48    46    1
    43    67    66    1
    44    68    66    1
    45    71    70    1
    46    71    75   am
    47    43    46    1
    48    43    44    1
    49    49    44   am
    50    49    50    1
    51    70    73    1
    52    59    62    1
    53    33    34   ar
    54    33    35   ar
    55    66    65    2
    56    46    47    1
    57    73    74    1
    58    23    24    2
    59    63    62    1
    60    63    64    1
    61    78    77    2
    62    44    45    2
    63    50    53    1
    64    76    75    1
    65    76    77    1
    66    65    64    1
    67    77    79   am
    68    53    54    1
    69    24    25    1
    70    24    26    1
    71    87    85   ar
    72    87    88   ar
    73    85    84   ar
    74    79    80    1
    75    88    86   ar
    76    54    55    1
    77    80    81    1
    78    80    83    1
    79    84    86   ar
    80    84    83    1
    81    81    82    2
    82    55    56    1
    83    56    57    1
