@<TRIPOS>MOLECULE
tmp/4odoC02.pdb
 117 115 0 0 0
SMALL
GASTEIGER

@<TRIPOS>ATOM
      1  N         31.6700   28.1350    8.8930 N.3    74  VAL74      -0.1231
      2  CA        32.9050   27.3750    9.0480 C.3    74  VAL74       0.1678
      3  C         32.5850   25.8830    9.1670 C.2    74  VAL74       0.2434
      4  O         31.4700   25.5130    9.5160 O.2    74  VAL74      -0.2733
      5  CB        33.7040   27.8350   10.2840 C.3    74  VAL74       0.0265
      6  CG1       34.0970   29.3050   10.1530 C.3    74  VAL74       0.0020
      7  CG2       32.8980   27.6020   11.5490 C.3    74  VAL74       0.0020
      8  N         33.5570   25.0150    8.8650 N.am   75  PRO75      -0.2729
      9  CA        33.2540   23.5840    8.9750 C.3    75  PRO75       0.1401
     10  C         33.1160   23.1060   10.4210 C.2    75  PRO75       0.2269
     11  O         33.8090   23.6070   11.3050 O.2    75  PRO75      -0.2865
     12  CB        34.4560   22.9190    8.2930 C.3    75  PRO75       0.0296
     13  CG        35.5460   23.9220    8.3940 C.3    75  PRO75       0.0237
     14  CD        34.8900   25.2590    8.2850 C.3    75  PRO75       0.0939
     15  N         34.1820   20.5390   11.6190 N.3    77  SER77      -0.1202
     16  CA        35.4720   19.9630   11.9800 C.3    77  SER77       0.2020
     17  C         36.4270   20.9760   12.6240 C.2    77  SER77       0.2619
     18  O         37.4720   20.5950   13.1470 O.2    77  SER77      -0.2717
     19  CB        36.1410   19.3610   10.7440 C.3    77  SER77       0.2103
     20  OG        36.3610   20.3540    9.7590 O.3    77  SER77      -0.2182
     21  N         36.0830   22.2600   12.5780 N.am   78  ALA78      -0.1965
     22  CA        36.9310   23.2830   13.1900 C.3    78  ALA78       0.1728
     23  C         36.8180   23.2410   14.7110 C.2    78  ALA78       0.2616
     24  O         37.6820   23.7470   15.4280 O.2    78  ALA78      -0.2715
     25  CB        36.5620   24.6730   12.6680 C.3    78  ALA78       0.0334
     26  N         35.7420   22.6360   15.1970 N.am   79  PHE79      -0.1974
     27  CA        35.4970   22.5290   16.6290 C.3    79  PHE79       0.1639
     28  C         35.9360   21.1580   17.1260 C.2    79  PHE79       0.2290
     29  O         35.9910   20.2120   16.3430 O.2    79  PHE79      -0.2864
     30  CB        34.0150   22.7770   16.9260 C.3    79  PHE79       0.0560
     31  CG        33.5230   24.1030   16.4280 C.ar   79  PHE79      -0.0200
     32  CD1       33.0090   24.2330   15.1470 C.ar   79  PHE79      -0.0042
     33  CD2       33.5870   25.2260   17.2360 C.ar   79  PHE79      -0.0042
     34  CE1       32.5640   25.4650   14.6820 C.ar   79  PHE79      -0.0003
     35  CE2       33.1460   26.4560   16.7780 C.ar   79  PHE79      -0.0003
     36  CZ        32.6340   26.5750   15.5010 C.ar   79  PHE79      -0.0000
     37  N         35.9220   31.1140   20.9340 N.3    92  TYR92      -0.1227
     38  CA        36.8290   32.2260   20.6810 C.3    92  TYR92       0.1736
     39  C         37.7440   31.9450   19.5030 C.2    92  TYR92       0.2595
     40  O         38.1360   30.8000   19.2640 O.2    92  TYR92      -0.2718
     41  CB        37.6820   32.5240   21.9180 C.3    92  TYR92       0.0548
     42  CG        36.8840   32.8930   23.1470 C.ar   92  TYR92      -0.0200
     43  CD1       36.6680   34.2210   23.4840 C.ar   92  TYR92      -0.0009
     44  CD2       36.3500   31.9100   23.9700 C.ar   92  TYR92      -0.0009
     45  CE1       35.9430   34.5610   24.6090 C.ar   92  TYR92       0.0417
     46  CE2       35.6260   32.2420   25.0980 C.ar   92  TYR92       0.0417
     47  CZ        35.4250   33.5670   25.4100 C.ar   92  TYR92       0.1957
     48  OH        34.6990   33.8990   26.5320 O.3    92  TYR92      -0.2866
     49  N         38.0930   33.0040   18.7820 N.am   93  ALA93      -0.1966
     50  CA        39.0780   32.9260   17.7110 C.3    93  ALA93       0.1728
     51  C         39.9840   34.1510   17.7750 C.2    93  ALA93       0.2616
     52  O         39.6330   35.1520   18.3970 O.2    93  ALA93      -0.2715
     53  CB        38.3920   32.8270   16.3630 C.3    93  ALA93       0.0334
     54  N         41.1450   34.0830   17.1330 N.am   94  GLN94      -0.1963
     55  CA        42.0950   35.1860   17.1830 C.3    94  GLN94       0.1733
     56  C         41.7720   36.2610   16.1510 C.2    94  GLN94       0.2616
     57  O         41.4450   35.9490   15.0030 O.2    94  GLN94      -0.2715
     58  CB        43.5250   34.6790   16.9600 C.3    94  GLN94       0.0408
     59  CG        44.3190   34.4370   18.2350 C.3    94  GLN94       0.0908
     60  CD        45.6980   33.8640   17.9530 C.2    94  GLN94       0.2608
     61  OE1       45.8440   32.9430   17.1500 O.2    94  GLN94      -0.2717
     62  NE2       46.7160   34.4140   18.6050 N.am   94  GLN94      -0.0878
     63  N         41.8690   37.5250   16.5560 N.am   95  ASP95      -0.1957
     64  CA        41.7090   38.6250   15.6120 C.3    95  ASP95       0.1840
     65  C         43.0300   38.9200   14.9090 C.2    95  ASP95       0.2622
     66  O         44.0160   38.2060   15.0970 O.2    95  ASP95      -0.2715
     67  CB        41.1630   39.8900   16.3070 C.3    95  ASP95       0.1450
     68  CG        42.0940   40.4520   17.3840 C.2    95  ASP95       0.3671
     69  OD1       43.3110   40.1640   17.3890 O.co2  95  ASP95      -0.2456
     70  OD2       41.5920   41.2220   18.2340 O.co2  95  ASP95      -0.2456
     71  N         43.0600   39.9850   14.1190 N.am   96  MET96      -0.1963
     72  CA        44.2280   40.2680   13.3010 C.3    96  MET96       0.1736
     73  C         45.4080   40.8190   14.0990 C.2    96  MET96       0.2616
     74  O         46.4980   41.0090   13.5540 O.2    96  MET96      -0.2715
     75  CB        43.8580   41.2370   12.1720 C.3    96  MET96       0.0427
     76  CG        42.9350   40.6400   11.1120 C.3    96  MET96       0.0599
     77  SD        43.6280   39.1970   10.2680 S.3    96  MET96      -0.1393
     78  CE        45.3620   39.6470   10.2160 C.3    96  MET96       0.0692
     79  N         45.1960   41.0750   15.3860 N.am   97  GLU97      -0.1963
     80  CA        46.2820   41.4950   16.2570 C.3    97  GLU97       0.1733
     81  C         46.7500   40.3390   17.1380 C.2    97  GLU97       0.2616
     82  O         47.6290   40.5110   17.9840 O.2    97  GLU97      -0.2715
     83  CB        45.8550   42.6860   17.1240 C.3    97  GLU97       0.0429
     84  CG        45.4500   43.9120   16.3220 C.3    97  GLU97       0.1163
     85  CD        45.3230   45.1620   17.1770 C.2    97  GLU97       0.3649
     86  OE1       46.0110   45.2470   18.2170 O.co2  97  GLU97      -0.2457
     87  OE2       44.5360   46.0610   16.8080 O.co2  97  GLU97      -0.2457
     88  N         46.1590   39.1660   16.9340 N.am   98  GLY98      -0.1955
     89  CA        46.5380   37.9780   17.6760 C.3    98  GLY98       0.1869
     90  C         45.7820   37.8110   18.9820 C.2    98  GLY98       0.2309
     91  O         46.0730   36.9060   19.7620 O.2    98  GLY98      -0.2863
     92  N         33.0470   34.5670   19.6190 N.3   103  LEU103     -0.1245
     93  CA        32.0940   34.2710   18.5560 C.3   103  LEU103      0.1561
     94  C         30.9370   33.4570   19.1210 C.2   103  LEU103      0.2260
     95  O         31.1020   32.7270   20.0940 O.2   103  LEU103     -0.2867
     96  CB        32.7690   33.5170   17.4030 C.3   103  LEU103      0.0270
     97  CG        33.3710   32.1530   17.7460 C.3   103  LEU103      0.0019
     98  CD1       32.5050   31.0210   17.2140 C.3   103  LEU103      0.0001
     99  CD2       34.7990   32.0380   17.2230 C.3   103  LEU103      0.0001
    100  N         28.6360   31.0930   12.3170 N.3   115  VAL115     -0.1245
    101  CA        29.0850   31.7990   13.5120 C.3   115  VAL115      0.1561
    102  C         28.9930   33.3080   13.3210 C.2   115  VAL115      0.2260
    103  O         28.9520   33.8010   12.1930 O.2   115  VAL115     -0.2867
    104  CB        30.5280   31.4160   13.8850 C.3   115  VAL115      0.0252
    105  CG1       30.6210   29.9190   14.1700 C.3   115  VAL115      0.0019
    106  CG2       31.4950   31.8250   12.7770 C.3   115  VAL115      0.0019
    107  N         30.7190   36.9910   14.6510 N.3   117  PHE117     -0.1241
    108  CA        31.7950   37.6750   15.3680 C.3   117  PHE117      0.1605
    109  C         31.3850   39.0650   15.8500 C.2   117  PHE117      0.2264
    110  O         32.1430   39.7300   16.5560 O.2   117  PHE117     -0.2867
    111  CB        33.0370   37.7810   14.4800 C.3   117  PHE117      0.0534
    112  CG        33.6570   36.4510   14.1450 C.ar  117  PHE117     -0.0203
    113  CD1       34.5530   35.8530   15.0120 C.ar  117  PHE117     -0.0042
    114  CD2       33.3370   35.8010   12.9610 C.ar  117  PHE117     -0.0042
    115  CE1       35.1200   34.6300   14.7060 C.ar  117  PHE117     -0.0003
    116  CE2       33.9030   34.5740   12.6510 C.ar  117  PHE117     -0.0003
    117  CZ        34.7910   33.9900   13.5260 C.ar  117  PHE117     -0.0000
@<TRIPOS>BOND
     1    14    13    1
     2    14     8    1
     3    12    13    1
     4    12     9    1
     5     8     9    1
     6     8     3   am
     7     1     2    1
     8     9    10    1
     9     2     3    1
    10     2     5    1
    11     3     4    2
    12    20    19    1
    13     6     5    1
    14    78    77    1
    15    77    76    1
    16     5     7    1
    17    10    11    2
    18    19    16    1
    19    76    75    1
    20    15    16    1
    21    16    17    1
    22    75    72    1
    23   103   102    2
    24   100   101    1
    25    21    17   am
    26    21    22    1
    27    17    18    2
    28   116   114   ar
    29   116   117   ar
    30    25    22    1
    31   106   104    1
    32   114   112   ar
    33    22    23    1
    34    72    73    1
    35    72    71    1
    36   102   101    1
    37   101   104    1
    38   117   115   ar
    39    74    73    2
    40   104   105    1
    41    73    79   am
    42    71    65   am
    43   112   111    1
    44   112   113   ar
    45   111   108    1
    46   107   108    1
    47    34    32   ar
    48    34    36   ar
    49   115   113   ar
    50    23    26   am
    51    23    24    2
    52    65    66    2
    53    65    64    1
    54    57    56    2
    55    32    31   ar
    56    26    27    1
    57   108   109    1
    58    79    80    1
    59    36    35   ar
    60    64    67    1
    61    64    63    1
    62   109   110    2
    63    56    63   am
    64    56    55    1
    65    80    83    1
    66    80    81    1
    67    67    68    1
    68    84    83    1
    69    84    85    1
    70    29    28    2
    71    53    50    1
    72    31    30    1
    73    31    33   ar
    74    27    30    1
    75    27    28    1
    76    35    33   ar
    77    87    85   ar
    78    88    81   am
    79    88    89    1
    80    58    55    1
    81    58    59    1
    82    54    55    1
    83    54    51   am
    84    81    82    2
    85    61    60    2
    86    85    86   ar
    87    98    97    1
    88    99    97    1
    89    68    69   ar
    90    68    70   ar
    91    96    97    1
    92    96    93    1
    93    89    90    1
    94    50    51    1
    95    50    49    1
    96    51    52    2
    97    60    59    1
    98    60    62   am
    99    93    94    1
   100    93    92    1
   101    49    39   am
   102    90    91    2
   103    94    95    2
   104    40    39    2
   105    39    38    1
   106    38    37    1
   107    38    41    1
   108    41    42    1
   109    42    43   ar
   110    42    44   ar
   111    43    45   ar
   112    44    46   ar
   113    45    47   ar
   114    46    47   ar
   115    47    48    1
