@<TRIPOS>MOLECULE
tmp/4odoB01.pdb
 181 175 0 0 0
SMALL
GASTEIGER

@<TRIPOS>ATOM
      1  N         44.2440   22.8130    1.2510 N.3    11  ILE11      -0.1245
      2  CA        45.4000   22.0320    1.6820 C.3    11  ILE11       0.1561
      3  C         45.0000   20.9340    2.6520 C.2    11  ILE11       0.2260
      4  O         44.0180   21.0630    3.3800 O.2    11  ILE11      -0.2867
      5  CB        46.4820   22.9120    2.3620 C.3    11  ILE11       0.0252
      6  CG1       45.9200   23.6180    3.6030 C.3    11  ILE11       0.0019
      7  CG2       47.0590   23.9130    1.3770 C.3    11  ILE11       0.0019
      8  CD1       46.9810   24.3260    4.4390 C.3    11  ILE11       0.0001
      9  N         46.8690   19.1120    5.8560 N.3    13  TYR13      -0.1241
     10  CA        48.0090   19.4280    6.7010 C.3    13  TYR13       0.1605
     11  C         48.0870   18.5410    7.9320 C.2    13  TYR13       0.2264
     12  O         47.0830   18.0100    8.4140 O.2    13  TYR13      -0.2867
     13  CB        47.9600   20.9010    7.1480 C.3    13  TYR13       0.0534
     14  CG        46.8750   21.1710    8.1750 C.ar   13  TYR13      -0.0201
     15  CD1       45.5630   21.4250    7.7810 C.ar   13  TYR13      -0.0009
     16  CD2       47.1550   21.1460    9.5360 C.ar   13  TYR13      -0.0009
     17  CE1       44.5680   21.6480    8.7150 C.ar   13  TYR13       0.0417
     18  CE2       46.1570   21.3700   10.4790 C.ar   13  TYR13       0.0417
     19  CZ        44.8690   21.6200   10.0590 C.ar   13  TYR13       0.1957
     20  OH        43.8780   21.8340   10.9950 O.3    13  TYR13      -0.2866
     21  N         50.1460   19.0830   11.7300 N.3    15  LEU15      -0.1245
     22  CA        50.9800   19.9510   12.5430 C.3    15  LEU15       0.1561
     23  C         51.7090   19.1400   13.6010 C.2    15  LEU15       0.2260
     24  O         51.0860   18.4220   14.3780 O.2    15  LEU15      -0.2867
     25  CB        50.1410   21.0450   13.2030 C.3    15  LEU15       0.0270
     26  CG        50.8630   21.8530   14.2850 C.3    15  LEU15       0.0019
     27  CD1       52.0780   22.5850   13.7250 C.3    15  LEU15       0.0001
     28  CD2       49.8950   22.8290   14.9420 C.3    15  LEU15       0.0001
     29  N         47.7600   18.4030   15.5000 N.3    23  ASP23      -0.1239
     30  CA        46.5510   18.6390   14.7290 C.3    23  ASP23       0.1674
     31  C         46.7190   18.1280   13.3140 C.2    23  ASP23       0.2266
     32  O         47.8360   17.9890   12.8180 O.2    23  ASP23      -0.2867
     33  CB        46.2070   20.1320   14.7200 C.3    23  ASP23       0.1410
     34  CG        44.8480   20.4200   14.1050 C.2    23  ASP23       0.3668
     35  OD1       43.9400   19.5670   14.2190 O.co2  23  ASP23      -0.2456
     36  OD2       44.6930   21.5010   13.4990 O.co2  23  ASP23      -0.2456
     37  N         41.9630   19.2650    6.8510 N.3    26  GLU26      -0.1231
     38  CA        41.8930   19.8570    5.5320 C.3    26  GLU26       0.1699
     39  C         41.3230   21.2510    5.6900 C.2    26  GLU26       0.2592
     40  O         40.4240   21.4690    6.4990 O.2    26  GLU26      -0.2718
     41  CB        41.0290   19.0210    4.5880 C.3    26  GLU26       0.0402
     42  CG        40.9090   19.5920    3.1840 C.3    26  GLU26       0.1161
     43  CD        40.0400   18.7410    2.2770 C.2    26  GLU26       0.3649
     44  OE1       40.5060   17.6680    1.8430 O.co2  26  GLU26      -0.2457
     45  OE2       38.8890   19.1430    1.9990 O.co2  26  GLU26      -0.2457
     46  N         41.8460   22.1820    4.9050 N.am   27  LEU27      -0.1980
     47  CA        41.4780   23.5890    5.0040 C.3    27  LEU27       0.1596
     48  C         41.3830   24.2060    3.6190 C.2    27  LEU27       0.2287
     49  O         42.2610   23.9850    2.7880 O.2    27  LEU27      -0.2864
     50  CB        42.5200   24.3330    5.8460 C.3    27  LEU27       0.0297
     51  CG        42.5530   25.8510    5.7170 C.3    27  LEU27       0.0022
     52  CD1       41.3160   26.4370    6.3780 C.3    27  LEU27       0.0001
     53  CD2       43.8110   26.3850    6.3620 C.3    27  LEU27       0.0001
     54  N         41.2850   28.0290    2.1760 N.3    29  TYR29      -0.1241
     55  CA        41.4530   29.4040    2.6480 C.3    29  TYR29       0.1605
     56  C         41.6970   30.3480    1.4730 C.2    29  TYR29       0.2264
     57  O         42.1280   29.9190    0.3970 O.2    29  TYR29      -0.2867
     58  CB        42.6150   29.4960    3.6470 C.3    29  TYR29       0.0534
     59  CG        43.9580   29.4290    2.9580 C.ar   29  TYR29      -0.0201
     60  CD1       44.5080   28.2070    2.5750 C.ar   29  TYR29      -0.0009
     61  CD2       44.6710   30.5910    2.6800 C.ar   29  TYR29      -0.0009
     62  CE1       45.7250   28.1500    1.9300 C.ar   29  TYR29       0.0417
     63  CE2       45.8800   30.5420    2.0270 C.ar   29  TYR29       0.0417
     64  CZ        46.3990   29.3230    1.6560 C.ar   29  TYR29       0.1957
     65  OH        47.6050   29.2800    1.0090 O.3    29  TYR29      -0.2866
     66  N         45.7250   37.7400    4.8860 N.3    34  ARG34      -0.1231
     67  CA        46.1040   37.5670    6.2910 C.3    34  ARG34       0.1694
     68  C         45.2740   36.5080    7.0300 C.2    34  ARG34       0.2592
     69  O         45.0460   36.6030    8.2340 O.2    34  ARG34      -0.2718
     70  CB        46.0220   38.9150    7.0160 C.3    34  ARG34       0.0321
     71  CG        46.9470   39.9710    6.4230 C.3    34  ARG34       0.0489
     72  CD        47.1890   41.1280    7.4010 C.3    34  ARG34       0.2205
     73  NE        45.9440   41.7990    7.7680 N.pl3  34  ARG34      -0.0865
     74  CZ        45.8450   42.7460    8.6960 C.cat  34  ARG34       0.5346
     75  NH1       46.9240   43.1450    9.3600 N.pl3  34  ARG34       0.1354
     76  NH2       44.6660   43.2940    8.9630 N.pl3  34  ARG34       0.1354
     77  N         44.8600   35.4650    6.3180 N.am   35  ASN35      -0.1960
     78  CA        44.0380   34.4280    6.9380 C.3    35  ASN35       0.1819
     79  C         44.8580   33.2810    7.5280 C.2    35  ASN35       0.2621
     80  O         44.3300   32.4380    8.2490 O.2    35  ASN35      -0.2715
     81  CB        43.0370   33.8810    5.9230 C.3    35  ASN35       0.1195
     82  CG        41.9760   34.9010    5.5590 C.2    35  ASN35       0.2630
     83  OD1       41.4410   35.5910    6.4300 O.2    35  ASN35      -0.2716
     84  ND2       41.6830   35.0190    4.2710 N.am   35  ASN35      -0.0877
     85  N         46.1480   33.2540    7.2140 N.am   36  LEU36      -0.1963
     86  CA        47.0330   32.2100    7.7260 C.3    36  LEU36       0.1728
     87  C         48.1770   32.8090    8.5140 C.2    36  LEU36       0.2616
     88  O         48.5010   33.9830    8.3370 O.2    36  LEU36      -0.2715
     89  CB        47.6160   31.3720    6.5860 C.3    36  LEU36       0.0311
     90  CG        46.7160   30.4680    5.7510 C.3    36  LEU36       0.0022
     91  CD1       47.5780   29.4780    4.9830 C.3    36  LEU36       0.0001
     92  CD2       45.7000   29.7540    6.6220 C.3    36  LEU36       0.0001
     93  N         48.8150   32.0040    9.3630 N.am   37  ILE37      -0.1964
     94  CA        50.0820   32.4420    9.9430 C.3    37  ILE37       0.1712
     95  C         51.0510   32.7400    8.7960 C.2    37  ILE37       0.2458
     96  O         51.1210   31.9890    7.8210 O.2    37  ILE37      -0.2730
     97  CB        50.6830   31.3960   10.9040 C.3    37  ILE37       0.0289
     98  CG1       50.7430   30.0180   10.2490 C.3    37  ILE37       0.0022
     99  CG2       49.8730   31.3240   12.1950 C.3    37  ILE37       0.0023
    100  CD1       51.6420   29.0580   11.0130 C.3    37  ILE37       0.0001
    101  N         51.7810   33.8610    8.8860 N.am   38  PRO38      -0.2727
    102  CA        52.5810   34.3310    7.7490 C.3    38  PRO38       0.1402
    103  C         53.6530   33.3430    7.3000 C.2    38  PRO38       0.2269
    104  O         53.8980   33.2380    6.1010 O.2    38  PRO38      -0.2865
    105  CB        53.2160   35.6300    8.2710 C.3    38  PRO38       0.0296
    106  CG        53.0110   35.6180    9.7500 C.3    38  PRO38       0.0237
    107  CD        51.7900   34.8120   10.0110 C.3    38  PRO38       0.0939
    108  N         53.5910   30.0630    7.1340 N.3    40  LEU40      -0.1245
    109  CA        53.0650   29.0280    6.2470 C.3    40  LEU40       0.1561
    110  C         52.5470   29.6370    4.9460 C.2    40  LEU40       0.2260
    111  O         52.6910   29.0440    3.8810 O.2    40  LEU40      -0.2867
    112  CB        51.9590   28.2120    6.9240 C.3    40  LEU40       0.0270
    113  CG        51.6720   26.9020    6.1680 C.3    40  LEU40       0.0019
    114  CD1       52.9010   25.9960    6.1850 C.3    40  LEU40       0.0001
    115  CD2       50.4780   26.1710    6.7400 C.3    40  LEU40       0.0001
    116  N         54.8510   32.4390   13.4280 N.3    62  ALA62      -0.1231
    117  CA        53.6490   31.6940   13.7790 C.3    62  ALA62       0.1694
    118  C         52.8790   32.4170   14.8780 C.2    62  ALA62       0.2592
    119  O         52.3360   33.5000   14.6510 O.2    62  ALA62      -0.2718
    120  CB        54.0060   30.2740   14.2130 C.3    62  ALA62       0.0304
    121  N         52.8520   31.8430   16.0770 N.am   63  TYR63      -0.1976
    122  CA        52.0240   32.4130   17.1420 C.3    63  TYR63       0.1639
    123  C         52.8000   33.2920   18.1200 C.2    63  TYR63       0.2290
    124  O         52.2670   33.7050   19.1530 O.2    63  TYR63      -0.2864
    125  CB        51.2790   31.2960   17.8750 C.3    63  TYR63       0.0560
    126  CG        50.2900   30.6460   16.9440 C.ar   63  TYR63      -0.0198
    127  CD1       50.6030   29.4730   16.2750 C.ar   63  TYR63      -0.0009
    128  CD2       49.0690   31.2490   16.6740 C.ar   63  TYR63      -0.0009
    129  CE1       49.7100   28.8960   15.3890 C.ar   63  TYR63       0.0417
    130  CE2       48.1710   30.6790   15.7930 C.ar   63  TYR63       0.0417
    131  CZ        48.5010   29.5080   15.1500 C.ar   63  TYR63       0.1957
    132  OH        47.6170   28.9390   14.2650 O.3    63  TYR63      -0.2866
    133  N         49.5490   32.3260   24.4920 N.3   119  HIS119     -0.1241
    134  CA        48.9810   31.4070   23.5130 C.3   119  HIS119      0.1621
    135  C         49.6380   30.0450   23.7230 C.2   119  HIS119      0.2264
    136  O         50.8250   29.9770   24.0320 O.2   119  HIS119     -0.2867
    137  CB        49.2090   31.9240   22.0900 C.3   119  HIS119      0.0745
    138  CG        48.5310   31.1080   21.0340 C.ar  119  HIS119      0.0817
    139  ND1       49.0110   29.8850   20.6190 N.ar  119  HIS119     -0.2268
    140  CD2       47.4080   31.3370   20.3120 C.ar  119  HIS119      0.1154
    141  CE1       48.2150   29.3960   19.6840 C.ar  119  HIS119      0.1986
    142  NE2       47.2350   30.2590   19.4780 N.ar  119  HIS119     -0.2212
    143  N         50.7590   27.8970   21.8150 N.3   121  LEU121     -0.1245
    144  CA        51.8780   27.6390   20.9110 C.3   121  LEU121      0.1561
    145  C         52.9110   28.7750   20.8960 C.2   121  LEU121      0.2260
    146  O         53.8210   28.7930   20.0620 O.2   121  LEU121     -0.2867
    147  CB        51.3580   27.3860   19.4940 C.3   121  LEU121      0.0270
    148  CG        50.5270   26.1120   19.3340 C.3   121  LEU121      0.0019
    149  CD1       50.1060   25.9450   17.8880 C.3   121  LEU121      0.0001
    150  CD2       51.3160   24.9010   19.8070 C.3   121  LEU121      0.0001
    151  N         55.0170   21.6820    9.7640 N.3   128  PHE128     -0.1241
    152  CA        53.8620   21.2920    8.9630 C.3   128  PHE128      0.1605
    153  C         54.2280   20.3360    7.8440 C.2   128  PHE128      0.2264
    154  O         55.2410   20.5180    7.1650 O.2   128  PHE128     -0.2867
    155  CB        53.1870   22.5130    8.3350 C.3   128  PHE128      0.0534
    156  CG        52.4910   23.4120    9.3160 C.ar  128  PHE128     -0.0203
    157  CD1       51.1790   23.1630    9.6990 C.ar  128  PHE128     -0.0042
    158  CD2       53.1370   24.5260    9.8310 C.ar  128  PHE128     -0.0042
    159  CE1       50.5300   24.0050   10.5920 C.ar  128  PHE128     -0.0003
    160  CE2       52.4990   25.3680   10.7230 C.ar  128  PHE128     -0.0003
    161  CZ        51.1950   25.1100   11.1030 C.ar  128  PHE128     -0.0000
    162  N         37.1690   35.8920    2.9640 N.3   147  HIS147     -0.1241
    163  CA        37.4080   34.5090    3.3680 C.3   147  HIS147      0.1621
    164  C         36.8750   33.5560    2.3150 C.2   147  HIS147      0.2264
    165  O         35.9800   33.9090    1.5440 O.2   147  HIS147     -0.2867
    166  CB        36.7470   34.2000    4.7180 C.3   147  HIS147      0.0745
    167  CG        37.1820   35.1080    5.8220 C.ar  147  HIS147      0.0817
    168  ND1       36.5600   36.3100    6.0760 N.ar  147  HIS147     -0.2268
    169  CD2       38.1950   35.0120    6.7150 C.ar  147  HIS147      0.1154
    170  CE1       37.1600   36.9100    7.0890 C.ar  147  HIS147      0.1986
    171  NE2       38.1550   36.1420    7.4960 N.ar  147  HIS147     -0.2212
    172  N         34.7120   30.4100    0.9420 N.3   149  HIS149     -0.1241
    173  CA        33.3740   29.8510    1.1820 C.3   149  HIS149      0.1621
    174  C         32.6570   30.4050    2.4220 C.2   149  HIS149      0.2264
    175  O         32.2580   29.6560    3.3120 O.2   149  HIS149     -0.2867
    176  CB        33.4650   28.3170    1.2610 C.3   149  HIS149      0.0745
    177  CG        34.5110   27.8190    2.2090 C.ar  149  HIS149      0.0817
    178  ND1       34.2600   27.5980    3.5460 N.ar  149  HIS149     -0.2268
    179  CD2       35.8140   27.5040    2.0130 C.ar  149  HIS149      0.1154
    180  CE1       35.3620   27.1680    4.1340 C.ar  149  HIS149      0.1986
    181  NE2       36.3210   27.1060    3.2270 N.ar  149  HIS149     -0.2212
@<TRIPOS>BOND
     1    57    56    2
     2   172   173    1
     3    65    64    1
     4   173   176    1
     5   173   174    1
     6     1     2    1
     7   176   177    1
     8     7     5    1
     9    56    55    1
    10   165   164    2
    11    64    62   ar
    12    64    63   ar
    13     2     5    1
    14     2     3    1
    15    44    43   ar
    16    62    60   ar
    17    45    43   ar
    18   179   177   ar
    19   179   181   ar
    20    63    61   ar
    21    54    55    1
    22   177   178   ar
    23    43    42    1
    24   164   163    1
    25     5     6    1
    26   174   175    2
    27    60    59   ar
    28    55    58    1
    29     3     4    2
    30    61    59   ar
    31    49    48    2
    32    59    58    1
    33   162   163    1
    34    42    41    1
    35   181   180   ar
    36   163   166    1
    37   178   180   ar
    38     6     8    1
    39    48    47    1
    40   111   110    2
    41    84    82   am
    42    41    38    1
    43   166   167    1
    44    66    67    1
    45    46    47    1
    46    46    39   am
    47   110   109    1
    48    91    90    1
    49    47    50    1
    50    38    39    1
    51    38    37    1
    52    82    81    1
    53    82    83    2
    54    39    40    2
    55    51    50    1
    56    51    53    1
    57    51    52    1
    58    90    89    1
    59    90    92    1
    60   167   168   ar
    61   167   169   ar
    62     9    10    1
    63    81    78    1
    64   168   170   ar
    65   104   103    2
    66   113   114    1
    67   113   115    1
    68   113   112    1
    69   109   112    1
    70   109   108    1
    71    67    70    1
    72    67    68    1
    73    77    78    1
    74    77    68   am
    75    71    70    1
    76    71    72    1
    77    89    86    1
    78    10    13    1
    79    10    11    1
    80   169   171   ar
    81    78    79    1
    82    68    69    2
    83   170   171   ar
    84    13    14    1
    85   154   153    2
    86    85    79   am
    87    85    86    1
    88   103   102    1
    89    72    73    1
    90    79    80    2
    91    86    87    1
    92   102   105    1
    93   102   101    1
    94    73    74    2
    95    15    14   ar
    96    15    17   ar
    97    96    95    2
    98   153   152    1
    99    11    12    2
   100    14    16   ar
   101   105   106    1
   102   155   152    1
   103   155   156    1
   104    88    87    2
   105    87    93   am
   106    74    76    1
   107    74    75    1
   108    17    19   ar
   109    95   101   am
   110    95    94    1
   111   101   107    1
   112   152   151    1
   113   156   157   ar
   114   156   158   ar
   115    93    94    1
   116    16    18   ar
   117   157   159   ar
   118   106   107    1
   119   158   160   ar
   120    94    97    1
   121    19    18   ar
   122    19    20    1
   123    98    97    1
   124    98   100    1
   125   159   161   ar
   126   160   161   ar
   127    97    99    1
   128    21    22    1
   129    22    25    1
   130    22    23    1
   131    32    31    2
   132    25    26    1
   133    31    30    1
   134   116   117    1
   135    36    34   ar
   136    23    24    2
   137    27    26    1
   138   117   120    1
   139   117   118    1
   140    34    35   ar
   141    34    33    1
   142   132   131    1
   143    26    28    1
   144   119   118    2
   145    33    30    1
   146    30    29    1
   147   118   121   am
   148   131   129   ar
   149   131   130   ar
   150   129   127   ar
   151   130   128   ar
   152   121   122    1
   153   127   126   ar
   154   128   126   ar
   155   126   125    1
   156   122   125    1
   157   122   123    1
   158   149   148    1
   159   123   124    2
   160   148   147    1
   161   148   150    1
   162   142   141   ar
   163   142   140   ar
   164   147   144    1
   165   141   139   ar
   166   146   145    2
   167   140   138   ar
   168   139   138   ar
   169   145   144    1
   170   144   143    1
   171   138   137    1
   172   137   134    1
   173   134   135    1
   174   134   133    1
   175   135   136    2
