@<TRIPOS>MOLECULE
tmp/4odrA00.pdb
 167 161 0 0 0
SMALL
GASTEIGER

@<TRIPOS>ATOM
      1  N         39.0910    7.9750   35.4170 N.3    11  ILE11      -0.1245
      2  CA        38.5430    6.8690   36.2020 C.3    11  ILE11       0.1561
      3  C         37.7690    5.8600   35.3650 C.2    11  ILE11       0.2260
      4  O         37.1080    6.2270   34.3940 O.2    11  ILE11      -0.2867
      5  CB        37.5980    7.3660   37.3140 C.3    11  ILE11       0.0252
      6  CG1       36.4700    8.2190   36.7320 C.3    11  ILE11       0.0019
      7  CG2       38.3760    8.1340   38.3940 C.3    11  ILE11       0.0019
      8  CD1       35.3820    8.5510   37.7430 C.3    11  ILE11       0.0001
      9  N         34.6320    3.2470   36.0080 N.3    13  TYR13      -0.1241
     10  CA        33.6000    3.1090   37.0300 C.3    13  TYR13       0.1605
     11  C         32.5390    2.0970   36.6330 C.2    13  TYR13       0.2264
     12  O         32.2710    1.8770   35.4440 O.2    13  TYR13      -0.2867
     13  CB        32.9310    4.4650   37.3170 C.3    13  TYR13       0.0534
     14  CG        32.0570    4.9420   36.1690 C.ar   13  TYR13      -0.0201
     15  CD1       32.6030    5.6430   35.1020 C.ar   13  TYR13      -0.0009
     16  CD2       30.6890    4.6820   36.1480 C.ar   13  TYR13      -0.0009
     17  CE1       31.8170    6.0680   34.0370 C.ar   13  TYR13       0.0417
     18  CE2       29.8910    5.1030   35.0780 C.ar   13  TYR13       0.0417
     19  CZ        30.4640    5.7970   34.0310 C.ar   13  TYR13       0.1957
     20  OH        29.6860    6.2210   32.9680 O.3    13  TYR13      -0.2866
     21  N         28.5030    1.5910   38.0050 N.3    15  LEU15      -0.1245
     22  CA        27.4470    2.1150   38.8590 C.3    15  LEU15       0.1561
     23  C         26.3570    1.0800   39.0870 C.2    15  LEU15       0.2260
     24  O         25.7980    0.5420   38.1340 O.2    15  LEU15      -0.2867
     25  CB        26.8310    3.3770   38.2510 C.3    15  LEU15       0.0270
     26  CG        25.5500    3.8750   38.9320 C.3    15  LEU15       0.0019
     27  CD1       25.8030    4.2430   40.3960 C.3    15  LEU15       0.0001
     28  CD2       24.9640    5.0500   38.1740 C.3    15  LEU15       0.0001
     29  N         25.2240    1.4490   34.8400 N.3    23  ASP23      -0.1239
     30  CA        26.1870    2.0330   33.9200 C.3    23  ASP23       0.1674
     31  C         27.5930    1.5480   34.2250 C.2    23  ASP23       0.2266
     32  O         27.9020    1.1560   35.3490 O.2    23  ASP23      -0.2867
     33  CB        26.1350    3.5660   33.9840 C.3    23  ASP23       0.1410
     34  CG        26.8330    4.2270   32.8050 C.2    23  ASP23       0.3668
     35  OD1       27.0270    3.5530   31.7670 O.co2  23  ASP23      -0.2456
     36  OD2       27.1820    5.4220   32.9160 O.co2  23  ASP23      -0.2456
     37  N         31.7900    2.4710   32.5930 N.3    25  GLY25      -0.1210
     38  CA        32.5890    3.1370   31.5880 C.3    25  GLY25       0.1956
     39  C         33.8250    3.8140   32.1310 C.2    25  GLY25       0.2612
     40  O         34.3300    3.4750   33.2000 O.2    25  GLY25      -0.2717
     41  N         34.3140    4.7870   31.3770 N.am   26  GLU26      -0.1965
     42  CA        35.5620    5.4540   31.7020 C.3    26  GLU26       0.1733
     43  C         35.4520    6.9140   31.3250 C.2    26  GLU26       0.2616
     44  O         34.8520    7.2490   30.3090 O.2    26  GLU26      -0.2715
     45  CB        36.7210    4.7850   30.9650 C.3    26  GLU26       0.0429
     46  CG        38.0840    5.3810   31.2310 C.3    26  GLU26       0.1163
     47  CD        39.1990    4.5060   30.6940 C.2    26  GLU26       0.3649
     48  OE1       38.8960    3.4120   30.1740 O.co2  26  GLU26      -0.2457
     49  OE2       40.3760    4.9050   30.7940 O.co2  26  GLU26      -0.2457
     50  N         36.0200    7.7910   32.1400 N.am   27  LEU27      -0.1963
     51  CA        35.9840    9.2060   31.8210 C.3    27  LEU27       0.1728
     52  C         37.1210    9.9480   32.4790 C.2    27  LEU27       0.2616
     53  O         37.6930    9.4860   33.4650 O.2    27  LEU27      -0.2715
     54  CB        34.6550    9.8230   32.2480 C.3    27  LEU27       0.0311
     55  CG        34.4130    9.8840   33.7490 C.3    27  LEU27       0.0022
     56  CD1       34.6210   11.2960   34.2770 C.3    27  LEU27       0.0001
     57  CD2       33.0160    9.4210   34.0520 C.3    27  LEU27       0.0001
     58  N         37.4400   11.1060   31.9170 N.am   28  SER28      -0.1950
     59  CA        38.4070   12.0070   32.5170 C.3    28  SER28       0.1924
     60  C         37.6800   13.2810   32.8890 C.2    28  SER28       0.2314
     61  O         36.7990   13.7240   32.1580 O.2    28  SER28      -0.2863
     62  CB        39.5590   12.2890   31.5510 C.3    28  SER28       0.2116
     63  OG        40.2630   11.0980   31.2440 O.3    28  SER28      -0.2180
     64  N         33.3640   21.0850   40.0940 N.3    34  ARG34      -0.1231
     65  CA        31.9770   20.6260   39.9900 C.3    34  ARG34       0.1694
     66  C         31.6730   19.8340   38.7180 C.2    34  ARG34       0.2592
     67  O         30.5550   19.8810   38.2110 O.2    34  ARG34      -0.2718
     68  CB        31.0150   21.8150   40.0880 C.3    34  ARG34       0.0321
     69  CG        31.2430   22.6940   41.3090 C.3    34  ARG34       0.0489
     70  CD        29.9820   23.4720   41.6690 C.3    34  ARG34       0.2205
     71  NE        30.2770   24.7610   42.2900 N.pl3  34  ARG34      -0.0865
     72  CZ        30.5910   24.9290   43.5720 C.cat  34  ARG34       0.5346
     73  NH1       30.6650   23.8830   44.3860 N.pl3  34  ARG34       0.1354
     74  NH2       30.8380   26.1460   44.0420 N.pl3  34  ARG34       0.1354
     75  N         32.6640   19.1060   38.2090 N.am   35  ASN35      -0.1960
     76  CA        32.4500   18.2040   37.0780 C.3    35  ASN35       0.1819
     77  C         31.5720   17.0020   37.4470 C.2    35  ASN35       0.2621
     78  O         30.7570   16.5490   36.6460 O.2    35  ASN35      -0.2715
     79  CB        33.7840   17.6840   36.5390 C.3    35  ASN35       0.1195
     80  CG        34.5460   18.7110   35.7180 C.2    35  ASN35       0.2630
     81  OD1       35.4330   18.3450   34.9490 O.2    35  ASN35      -0.2716
     82  ND2       34.2120   19.9890   35.8700 N.am   35  ASN35      -0.0877
     83  N         31.7630   16.4730   38.6540 N.am   36  LEU36      -0.1963
     84  CA        31.0440   15.2760   39.0920 C.3    36  LEU36       0.1728
     85  C         30.0730   15.5550   40.2320 C.2    36  LEU36       0.2616
     86  O         30.1480   16.5970   40.8860 O.2    36  LEU36      -0.2715
     87  CB        32.0280   14.1900   39.5480 C.3    36  LEU36       0.0311
     88  CG        33.2430   13.8450   38.6860 C.3    36  LEU36       0.0022
     89  CD1       33.9890   12.6450   39.2750 C.3    36  LEU36       0.0001
     90  CD2       32.8320   13.5670   37.2630 C.3    36  LEU36       0.0001
     91  N         29.1760   14.6070   40.4890 N.am   37  ILE37      -0.1964
     92  CA        28.3460   14.6790   41.6870 C.3    37  ILE37       0.1712
     93  C         29.2700   14.7780   42.8990 C.2    37  ILE37       0.2458
     94  O         30.2910   14.0950   42.9530 O.2    37  ILE37      -0.2730
     95  CB        27.4140   13.4600   41.8260 C.3    37  ILE37       0.0289
     96  CG1       28.2050   12.1550   41.6880 C.3    37  ILE37       0.0022
     97  CG2       26.2980   13.5170   40.7770 C.3    37  ILE37       0.0023
     98  CD1       27.4150   10.9190   42.1110 C.3    37  ILE37       0.0001
     99  N         28.9270   15.6520   43.8560 N.am   38  PRO38      -0.2727
    100  CA        29.8090   15.9690   44.9870 C.3    38  PRO38       0.1402
    101  C         30.2090   14.7520   45.8240 C.2    38  PRO38       0.2269
    102  O         31.3530   14.6720   46.2690 O.2    38  PRO38      -0.2865
    103  CB        28.9740   16.9530   45.8220 C.3    38  PRO38       0.0296
    104  CG        27.5640   16.7990   45.3390 C.3    38  PRO38       0.0237
    105  CD        27.6920   16.4510   43.8840 C.3    38  PRO38       0.0939
    106  N         30.7890   11.6740   44.9510 N.3    40  LEU40      -0.1245
    107  CA        31.8640   10.8710   44.3810 C.3    40  LEU40       0.1561
    108  C         33.1810   11.6480   44.3670 C.2    40  LEU40       0.2260
    109  O         34.2330   11.0580   44.5790 O.2    40  LEU40      -0.2867
    110  CB        31.5170   10.3850   42.9670 C.3    40  LEU40       0.0270
    111  CG        32.5170    9.3480   42.4280 C.3    40  LEU40       0.0019
    112  CD1       32.5040    8.0860   43.2740 C.3    40  LEU40       0.0001
    113  CD2       32.2500    9.0030   40.9830 C.3    40  LEU40       0.0001
    114  N         24.1010   13.1390   45.4730 N.3    62  ALA62      -0.1231
    115  CA        24.0480   12.6960   44.0860 C.3    62  ALA62       0.1694
    116  C         22.8590   13.3370   43.3690 C.2    62  ALA62       0.2592
    117  O         22.8250   14.5540   43.1990 O.2    62  ALA62      -0.2718
    118  CB        23.9790   11.1720   44.0160 C.3    62  ALA62       0.0304
    119  N         21.8760   12.5340   42.9690 N.am   63  TYR63      -0.1976
    120  CA        20.7770   13.0540   42.1520 C.3    63  TYR63       0.1639
    121  C         19.5080   13.3750   42.9420 C.2    63  TYR63       0.2290
    122  O         18.4890   13.7490   42.3600 O.2    63  TYR63      -0.2864
    123  CB        20.4720   12.0730   41.0150 C.3    63  TYR63       0.0560
    124  CG        21.6620   11.9200   40.0940 C.ar   63  TYR63      -0.0198
    125  CD1       21.8760   12.8100   39.0470 C.ar   63  TYR63      -0.0009
    126  CD2       22.5960   10.9150   40.3020 C.ar   63  TYR63      -0.0009
    127  CE1       22.9850   12.6860   38.2140 C.ar   63  TYR63       0.0417
    128  CE2       23.7040   10.7820   39.4810 C.ar   63  TYR63       0.0417
    129  CZ        23.8950   11.6670   38.4420 C.ar   63  TYR63       0.1957
    130  OH        25.0010   11.5250   37.6340 O.3    63  TYR63      -0.2866
    131  N         17.5840   10.9420   38.0320 N.3    68  HIS68      -0.1241
    132  CA        17.7360   11.2930   36.6190 C.3    68  HIS68       0.1621
    133  C         16.8640   10.3270   35.8310 C.2    68  HIS68       0.2264
    134  O         17.2950    9.2140   35.5330 O.2    68  HIS68      -0.2867
    135  CB        19.2020   11.2110   36.1650 C.3    68  HIS68       0.0745
    136  CG        19.4300   11.7120   34.7700 C.ar   68  HIS68       0.0817
    137  ND1       20.3660   12.6800   34.4700 N.ar   68  HIS68      -0.2268
    138  CD2       18.8450   11.3820   33.5930 C.ar   68  HIS68       0.1154
    139  CE1       20.3420   12.9270   33.1710 C.ar   68  HIS68       0.1986
    140  NE2       19.4250   12.1560   32.6170 N.ar   68  HIS68      -0.2212
    141  N         17.4090    6.8020   34.0340 N.3    71  ILE71      -0.1231
    142  CA        18.6310    6.1820   34.5530 C.3    71  ILE71       0.1692
    143  C         18.5980    5.9590   36.0680 C.2    71  ILE71       0.2591
    144  O         18.6780    4.8290   36.5440 O.2    71  ILE71      -0.2718
    145  CB        19.8890    7.0240   34.2580 C.3    71  ILE71       0.0266
    146  CG1       19.8690    7.6160   32.8520 C.3    71  ILE71       0.0019
    147  CG2       21.1500    6.1840   34.4710 C.3    71  ILE71       0.0020
    148  CD1       21.0060    8.5860   32.6200 C.3    71  ILE71       0.0001
    149  N         18.5020    7.0530   36.8170 N.am   72  ILE72      -0.1980
    150  CA        18.5910    7.0100   38.2780 C.3    72  ILE72       0.1595
    151  C         17.2280    7.2990   38.8890 C.2    72  ILE72       0.2287
    152  O         16.6460    8.3490   38.6170 O.2    72  ILE72      -0.2864
    153  CB        19.6080    8.0440   38.8170 C.3    72  ILE72       0.0276
    154  CG1       20.9340    7.9720   38.0530 C.3    72  ILE72       0.0022
    155  CG2       19.8250    7.8730   40.3330 C.3    72  ILE72       0.0022
    156  CD1       21.7390    6.7430   38.3500 C.3    72  ILE72       0.0001
    157  N         29.2090    2.8400   43.7020 N.3    80  PHE80      -0.1241
    158  CA        30.2370    2.8970   42.6760 C.3    80  PHE80       0.1605
    159  C         31.4130    1.9810   42.9660 C.2    80  PHE80       0.2264
    160  O         31.9090    1.9190   44.0940 O.2    80  PHE80      -0.2867
    161  CB        30.7840    4.3170   42.5320 C.3    80  PHE80       0.0534
    162  CG        29.8690    5.2710   41.8190 C.ar   80  PHE80      -0.0203
    163  CD1       29.8310    5.3110   40.4320 C.ar   80  PHE80      -0.0042
    164  CD2       29.0920    6.1660   42.5350 C.ar   80  PHE80      -0.0042
    165  CE1       29.0110    6.2090   39.7710 C.ar   80  PHE80      -0.0003
    166  CE2       28.2690    7.0660   41.8830 C.ar   80  PHE80      -0.0003
    167  CZ        28.2230    7.0840   40.5010 C.ar   80  PHE80      -0.0000
@<TRIPOS>BOND
     1    48    47   ar
     2    44    43    2
     3    47    49   ar
     4    47    46    1
     5    45    46    1
     6    45    42    1
     7    63    62    1
     8    43    42    1
     9    43    50   am
    10    41    42    1
    11    41    39   am
    12    62    59    1
    13    38    39    1
    14    38    37    1
    15    35    34   ar
    16    51    50    1
    17    51    54    1
    18    51    52    1
    19    58    52   am
    20    58    59    1
    21    39    40    2
    22    61    60    2
    23    54    55    1
    24    52    53    2
    25    59    60    1
    26   140   139   ar
    27   140   138   ar
    28   148   146    1
    29    34    36   ar
    30    34    33    1
    31   146   145    1
    32    20    19    1
    33   139   137   ar
    34   138   136   ar
    35    55    57    1
    36    55    56    1
    37    30    33    1
    38    30    31    1
    39    30    29    1
    40    19    17   ar
    41    19    18   ar
    42   141   142    1
    43    17    15   ar
    44    31    32    2
    45   145   147    1
    46   145   142    1
    47     4     3    2
    48   137   136   ar
    49   142   143    1
    50   136   135    1
    51    81    80    2
    52    18    16   ar
    53    15    14   ar
    54     3     2    1
    55     1     2    1
    56    12    11    2
    57   134   133    2
    58    80    82   am
    59    80    79    1
    60   133   132    1
    61     9    10    1
    62   143   144    2
    63   143   149   am
    64    16    14   ar
    65   135   132    1
    66    14    13    1
    67     2     5    1
    68    79    76    1
    69   132   131    1
    70    11    10    1
    71    78    77    2
    72     6     5    1
    73     6     8    1
    74   149   150    1
    75    10    13    1
    76    76    77    1
    77    76    75    1
    78    90    88    1
    79     5     7    1
    80    77    83   am
    81   130   129    1
    82    21    22    1
    83   154   156    1
    84   154   153    1
    85    24    23    2
    86    28    26    1
    87    75    66   am
    88    67    66    2
    89   127   129   ar
    90   127   125   ar
    91    25    22    1
    92    25    26    1
    93   150   153    1
    94   150   151    1
    95   129   128   ar
    96   152   151    2
    97    83    84    1
    98    88    89    1
    99    88    87    1
   100    66    65    1
   101   153   155    1
   102    22    23    1
   103    26    27    1
   104   125   124   ar
   105    84    87    1
   106    84    85    1
   107   128   126   ar
   108   165   163   ar
   109   165   167   ar
   110    65    68    1
   111    65    64    1
   112    68    69    1
   113   124   126   ar
   114   124   123    1
   115    85    91   am
   116    85    86    2
   117   163   162   ar
   118    91    92    1
   119   167   166   ar
   120    97    95    1
   121   113   111    1
   122   123   120    1
   123    69    70    1
   124    70    71    1
   125    92    95    1
   126    92    93    1
   127    96    95    1
   128    96    98    1
   129   162   161    1
   130   162   164   ar
   131   166   164   ar
   132   120   121    1
   133   120   119    1
   134    71    72    2
   135   122   121    2
   136   111   110    1
   137   111   112    1
   138   161   158    1
   139   158   159    1
   140   158   157    1
   141    93    94    2
   142    93    99   am
   143   159   160    2
   144   110   107    1
   145   119   116   am
   146   117   116    2
   147   116   115    1
   148    72    74    1
   149    72    73    1
   150    99   105    1
   151    99   100    1
   152   105   104    1
   153   118   115    1
   154   115   114    1
   155   108   107    1
   156   108   109    2
   157   107   106    1
   158   100   103    1
   159   100   101    1
   160   104   103    1
   161   101   102    2
