@<TRIPOS>MOLECULE
tmp/4odtA00.pdb
 138 137 0 0 0
SMALL
GASTEIGER

@<TRIPOS>ATOM
      1  N          5.2040   -0.9670  -28.1030 N.3    31  THR31      -0.1203
      2  CA         5.2810   -1.9720  -29.1680 C.3    31  THR31       0.1994
      3  C          5.5260   -3.4000  -28.6660 C.2    31  THR31       0.2618
      4  O          5.5160   -4.3220  -29.4860 O.2    31  THR31      -0.2717
      5  CB         6.3970   -1.6460  -30.2050 C.3    31  THR31       0.1784
      6  OG1        7.6810   -1.7060  -29.5790 O.3    31  THR31      -0.2211
      7  CG2        6.1820   -0.2550  -30.8140 C.3    31  THR31       0.0376
      8  N          5.7690   -3.5810  -27.3610 N.am   32  TYR32      -0.1961
      9  CA         6.0850   -4.9120  -26.8080 C.3    32  TYR32       0.1771
     10  C          4.9810   -5.4550  -25.9450 C.2    32  TYR32       0.2619
     11  O          4.2680   -4.6910  -25.2680 O.2    32  TYR32      -0.2715
     12  CB         7.3630   -4.9000  -25.9820 C.3    32  TYR32       0.0574
     13  CG         8.5900   -4.6760  -26.7990 C.ar   32  TYR32      -0.0198
     14  CD1        9.0140   -3.3810  -27.0910 C.ar   32  TYR32      -0.0009
     15  CD2        9.3460   -5.7360  -27.2730 C.ar   32  TYR32      -0.0009
     16  CE1       10.1480   -3.1550  -27.8320 C.ar   32  TYR32       0.0417
     17  CE2       10.4910   -5.5190  -28.0280 C.ar   32  TYR32       0.0417
     18  CZ        10.8860   -4.2210  -28.3070 C.ar   32  TYR32       0.1957
     19  OH        12.0280   -3.9760  -29.0570 O.3    32  TYR32      -0.2866
     20  N          4.8410   -6.7790  -25.9700 N.am   33  ALA33      -0.1977
     21  CA         4.0520   -7.4680  -24.9470 C.3    33  ALA33       0.1597
     22  C          4.8890   -7.4950  -23.6690 C.2    33  ALA33       0.2287
     23  O          6.1290   -7.4010  -23.7190 O.2    33  ALA33      -0.2864
     24  CB         3.6990   -8.8660  -25.3930 C.3    33  ALA33       0.0319
     25  N          0.3290  -12.4100  -19.1240 N.3    50  ARG50      -0.1245
     26  CA         0.8020  -11.7010  -20.2890 C.3    50  ARG50       0.1563
     27  C         -0.2250  -10.6620  -20.7020 C.2    50  ARG50       0.2260
     28  O         -1.4190  -10.9020  -20.6420 O.2    50  ARG50      -0.2867
     29  CB         1.0520  -12.6220  -21.4960 C.3    50  ARG50       0.0307
     30  CG         1.5980  -11.8220  -22.6810 C.3    50  ARG50       0.0489
     31  CD         1.8040  -12.5790  -23.9970 C.3    50  ARG50       0.2205
     32  NE         0.6730  -13.4390  -24.3410 N.pl3  50  ARG50      -0.0865
     33  CZ         0.4200  -13.9440  -25.5510 C.cat  50  ARG50       0.5346
     34  NH1        1.1850  -13.6560  -26.6100 N.pl3  50  ARG50       0.1354
     35  NH2       -0.6260  -14.7570  -25.7010 N.pl3  50  ARG50       0.1354
     36  N         -0.6450   -8.1720  -24.1490 N.3    52  ARG52      -0.1231
     37  CA        -0.1140   -7.8040  -25.4620 C.3    52  ARG52       0.1694
     38  C         -0.1600   -6.2940  -25.6890 C.2    52  ARG52       0.2592
     39  O         -0.6290   -5.5530  -24.8450 O.2    52  ARG52      -0.2718
     40  CB        -0.8420   -8.5820  -26.5640 C.3    52  ARG52       0.0321
     41  CG        -0.5370  -10.0700  -26.4600 C.3    52  ARG52       0.0489
     42  CD        -1.3050  -10.9080  -27.4590 C.3    52  ARG52       0.2205
     43  NE        -0.6270  -10.9460  -28.7470 N.pl3  52  ARG52      -0.0865
     44  CZ        -1.1310  -11.5480  -29.8170 C.cat  52  ARG52       0.5346
     45  NH1       -2.3210  -12.1440  -29.7500 N.pl3  52  ARG52       0.1354
     46  NH2       -0.4560  -11.5620  -30.9420 N.pl3  52  ARG52       0.1354
     47  N          0.3880   -5.8510  -26.8190 N.am   53  SER53      -0.1952
     48  CA         0.4460   -4.4510  -27.1610 C.3    53  SER53       0.1924
     49  C         -0.8940   -3.9440  -27.6510 C.2    53  SER53       0.2314
     50  O         -1.8300   -4.7210  -27.9200 O.2    53  SER53      -0.2863
     51  CB         1.4550   -4.2270  -28.2690 C.3    53  SER53       0.2116
     52  OG         0.8790   -4.6310  -29.4970 O.3    53  SER53      -0.2180
     53  N         -1.5330   -2.7900  -30.5090 N.3    55  SER55      -0.1202
     54  CA        -1.8110   -3.2610  -31.8520 C.3    55  SER55       0.2020
     55  C         -2.5020   -4.6380  -31.8090 C.2    55  SER55       0.2618
     56  O         -3.1720   -5.0090  -32.7740 O.2    55  SER55      -0.2717
     57  CB        -0.5420   -3.2730  -32.7040 C.3    55  SER55       0.2103
     58  OG         0.2750   -4.3700  -32.3660 O.3    55  SER55      -0.2182
     59  N         -2.3700   -5.3700  -30.6960 N.am   56  ASN56      -0.1974
     60  CA        -3.1800   -6.5730  -30.4580 C.3    56  ASN56       0.1688
     61  C         -4.2900   -6.4000  -29.4230 C.2    56  ASN56       0.2292
     62  O         -4.6900   -7.3560  -28.7610 O.2    56  ASN56      -0.2864
     63  CB        -2.2820   -7.7240  -30.0710 C.3    56  ASN56       0.1181
     64  CG        -1.3900   -8.1630  -31.2160 C.2    56  ASN56       0.2629
     65  OD1       -1.8720   -8.7150  -32.2060 O.2    56  ASN56      -0.2716
     66  ND2       -0.0940   -7.9320  -31.0860 N.am   56  ASN56      -0.0877
     67  N          9.8480   -8.0960  -20.0470 N.3   100  ARG100     -0.1231
     68  CA         9.5030   -7.6990  -21.4000 C.3   100  ARG100      0.1694
     69  C          9.5240   -8.9360  -22.2940 C.2   100  ARG100      0.2592
     70  O         10.4790   -9.7040  -22.2540 O.2   100  ARG100     -0.2718
     71  CB        10.5200   -6.6760  -21.9190 C.3   100  ARG100      0.0321
     72  CG         9.9990   -5.8070  -23.0520 C.3   100  ARG100      0.0489
     73  CD        11.1310   -5.3570  -23.9560 C.3   100  ARG100      0.2205
     74  NE        11.4710   -6.4660  -24.8210 N.pl3 100  ARG100     -0.0865
     75  CZ        12.3990   -6.4730  -25.7590 C.cat 100  ARG100      0.5346
     76  NH1       13.1650   -5.4100  -25.9930 N.pl3 100  ARG100      0.1354
     77  NH2       12.5240   -7.5800  -26.4800 N.pl3 100  ARG100      0.1354
     78  N          8.4890   -9.1200  -23.1060 N.am  101  HIS101     -0.1962
     79  CA         8.4090  -10.2740  -24.0210 C.3   101  HIS101      0.1787
     80  C          9.4490  -10.1260  -25.1180 C.2   101  HIS101      0.2620
     81  O          9.9200   -9.0010  -25.3860 O.2   101  HIS101     -0.2715
     82  CB         7.0260  -10.3340  -24.6640 C.3   101  HIS101      0.0785
     83  CG         6.5510  -11.7120  -24.9980 C.ar  101  HIS101      0.0821
     84  ND1        6.2190  -12.6400  -24.0360 N.ar  101  HIS101     -0.2267
     85  CD2        6.2820  -12.2960  -26.1900 C.ar  101  HIS101      0.1154
     86  CE1        5.7880  -13.7400  -24.6210 C.ar  101  HIS101      0.1986
     87  NE2        5.8140  -13.5560  -25.9270 N.ar  101  HIS101     -0.2212
     88  N          9.8440  -11.2440  -25.7360 N.am  102  ARG102     -0.1963
     89  CA        10.6660  -11.1620  -26.9420 C.3   102  ARG102      0.1729
     90  C          9.9390  -10.3350  -28.0160 C.2   102  ARG102      0.2617
     91  O          8.7260  -10.2360  -28.0270 O.2   102  ARG102     -0.2715
     92  CB        11.0110  -12.5430  -27.4740 C.3   102  ARG102      0.0348
     93  CG         9.8410  -13.4130  -27.8660 C.3   102  ARG102      0.0492
     94  CD         9.6700  -13.5520  -29.3780 C.3   102  ARG102      0.2205
     95  NE         8.4590  -14.2990  -29.7270 N.pl3 102  ARG102     -0.0865
     96  CZ         7.2570  -13.7670  -29.9530 C.cat 102  ARG102      0.5346
     97  NH1        7.0630  -12.4640  -29.8850 N.pl3 102  ARG102      0.1354
     98  NH2        6.2300  -14.5430  -30.2610 N.pl3 102  ARG102      0.1354
     99  N         10.7010   -9.7340  -28.9120 N.am  103  GLY103     -0.1940
    100  CA        10.1460   -8.9030  -29.9550 C.3   103  GLY103      0.2014
    101  C          9.6560   -9.6710  -31.1600 C.2   103  GLY103      0.2639
    102  O          9.1350  -10.7890  -31.0550 O.2   103  GLY103     -0.2714
    103  N          9.8360   -9.0590  -32.3210 N.am  104  ALA104     -0.1963
    104  CA         9.2350   -9.5170  -33.5580 C.3   104  ALA104      0.1713
    105  C          9.4040  -11.0220  -33.7800 C.2   104  ALA104      0.2458
    106  O         10.5380  -11.5000  -33.8970 O.2   104  ALA104     -0.2730
    107  CB         9.8430   -8.7440  -34.7150 C.3   104  ALA104      0.0333
    108  N          8.2850  -11.7730  -33.8220 N.am  105  PRO105     -0.2727
    109  CA         8.4070  -13.2280  -33.9930 C.3   105  PRO105      0.1402
    110  C          9.0110  -13.6560  -35.3380 C.2   105  PRO105      0.2269
    111  O          9.5880  -14.7500  -35.4240 O.2   105  PRO105     -0.2865
    112  CB         6.9600  -13.7270  -33.8720 C.3   105  PRO105      0.0296
    113  CG         6.0980  -12.5330  -34.0640 C.3   105  PRO105      0.0237
    114  CD         6.8980  -11.3820  -33.5180 C.3   105  PRO105      0.0939
    115  N         11.6020  -12.4720  -36.6130 N.3   107  TYR107     -0.1227
    116  CA        13.0290  -12.5250  -36.3770 C.3   107  TYR107      0.1736
    117  C         13.3710  -13.5080  -35.2560 C.2   107  TYR107      0.2595
    118  O         14.3300  -14.2680  -35.3630 O.2   107  TYR107     -0.2718
    119  CB        13.5770  -11.1320  -36.0510 C.3   107  TYR107      0.0548
    120  CG        15.0800  -11.1030  -35.9610 C.ar  107  TYR107     -0.0200
    121  CD1       15.7190  -11.3360  -34.7550 C.ar  107  TYR107     -0.0009
    122  CD2       15.8610  -10.8650  -37.0810 C.ar  107  TYR107     -0.0009
    123  CE1       17.0920  -11.3330  -34.6530 C.ar  107  TYR107      0.0417
    124  CE2       17.2410  -10.8580  -37.0000 C.ar  107  TYR107      0.0417
    125  CZ        17.8450  -11.0970  -35.7790 C.ar  107  TYR107      0.1957
    126  OH        19.2000  -11.0870  -35.6770 O.3   107  TYR107     -0.2866
    127  N         12.6080  -13.4890  -34.1700 N.am  108  TYR108     -0.1976
    128  CA        13.0060  -14.2460  -32.9760 C.3   108  TYR108      0.1639
    129  C         12.2980  -15.5990  -32.8300 C.2   108  TYR108      0.2290
    130  O         12.5400  -16.3220  -31.8640 O.2   108  TYR108     -0.2864
    131  CB        12.7500  -13.4270  -31.7180 C.3   108  TYR108      0.0560
    132  CG        13.5850  -12.1920  -31.6100 C.ar  108  TYR108     -0.0198
    133  CD1       14.9570  -12.2720  -31.3860 C.ar  108  TYR108     -0.0009
    134  CD2       13.0050  -10.9280  -31.7220 C.ar  108  TYR108     -0.0009
    135  CE1       15.7340  -11.1280  -31.2650 C.ar  108  TYR108      0.0417
    136  CE2       13.7730   -9.7800  -31.6170 C.ar  108  TYR108      0.0417
    137  CZ        15.1370   -9.8850  -31.3800 C.ar  108  TYR108      0.1957
    138  OH        15.9020   -8.7430  -31.2880 O.3   108  TYR108     -0.2866
@<TRIPOS>BOND
     1   122   124   ar
     2   122   120   ar
     3   124   125   ar
     4   115   116    1
     5   116   119    1
     6   116   117    1
     7   119   120    1
     8   120   121   ar
     9   125   126    1
    10   125   123   ar
    11   111   110    2
    12   118   117    2
    13   110   109    1
    14   117   127   am
    15   121   123   ar
    16   107   104    1
    17   127   128    1
    18   113   112    1
    19   113   114    1
    20   109   112    1
    21   109   108    1
    22   106   105    2
    23   108   105   am
    24   108   114    1
    25   105   104    1
    26   104   103    1
    27   128   129    1
    28   128   131    1
    29   129   130    2
    30    56    55    2
    31    57    58    1
    32    57    54    1
    33   103   101   am
    34    65    64    2
    35    54    55    1
    36    54    53    1
    37    55    59   am
    38   134   136   ar
    39   134   132   ar
    40   131   132    1
    41   136   137   ar
    42   132   133   ar
    43   133   135   ar
    44   137   138    1
    45   137   135   ar
    46    64    66   am
    47    64    63    1
    48   101   102    2
    49   101   100    1
    50    46    44    1
    51     7     5    1
    52    59    60    1
    53    60    63    1
    54    60    61    1
    55    98    96    1
    56     5     6    1
    57     5     2    1
    58   100    99    1
    59    96    97    1
    60    96    95    2
    61    44    45    1
    62    44    43    2
    63    95    94    1
    64    52    51    1
    65     4     3    2
    66    61    62    2
    67    94    93    1
    68     2     3    1
    69     2     1    1
    70    19    18    1
    71    99    90   am
    72    43    42    1
    73     3     8   am
    74    18    17   ar
    75    18    16   ar
    76    51    48    1
    77    17    15   ar
    78    91    90    2
    79    90    89    1
    80    50    49    2
    81    93    92    1
    82    16    14   ar
    83    49    48    1
    84    92    89    1
    85    42    41    1
    86     8     9    1
    87    15    13   ar
    88    48    47    1
    89    14    13   ar
    90    89    88    1
    91    47    38   am
    92     9    12    1
    93     9    10    1
    94    13    12    1
    95    34    33    1
    96    40    41    1
    97    40    37    1
    98    77    75    1
    99    85    87   ar
   100    85    83   ar
   101    76    75    1
   102    20    10   am
   103    20    21    1
   104    10    11    2
   105    87    86   ar
   106    75    74    2
   107    88    80   am
   108    35    33    1
   109    38    37    1
   110    38    39    2
   111    33    32    2
   112    37    36    1
   113    24    21    1
   114    81    80    2
   115    80    79    1
   116    83    82    1
   117    83    84   ar
   118    21    22    1
   119    74    73    1
   120    82    79    1
   121    86    84   ar
   122    32    31    1
   123    79    78    1
   124    31    30    1
   125    73    72    1
   126    23    22    2
   127    78    69   am
   128    72    71    1
   129    30    29    1
   130    69    70    2
   131    69    68    1
   132    71    68    1
   133    29    26    1
   134    68    67    1
   135    27    28    2
   136    27    26    1
   137    26    25    1
