@<TRIPOS>MOLECULE
tmp/4oe4B00.pdb
 169 163 0 0 0
SMALL
GASTEIGER

@<TRIPOS>ATOM
      1  N         -2.6360   26.4050  126.0420 N.3   166  VAL166     -0.1231
      2  CA        -1.9610   25.6180  127.0630 C.3   166  VAL166      0.1692
      3  C         -1.0980   26.5440  127.9130 C.2   166  VAL166      0.2593
      4  O         -0.0650   27.0360  127.4580 O.2   166  VAL166     -0.2718
      5  CB        -1.1050   24.5090  126.4330 C.3   166  VAL166      0.0266
      6  CG1       -0.2830   23.8210  127.4870 C.3   166  VAL166      0.0020
      7  CG2       -1.9910   23.4990  125.6990 C.3   166  VAL166      0.0020
      8  N         -1.5360   26.7750  129.1490 N.am  167  SER167     -0.1939
      9  CA        -0.9860   27.8350  129.9940 C.3   167  SER167      0.2040
     10  C         -0.1200   27.2860  131.1330 C.2   167  SER167      0.2485
     11  O         -0.3890   26.2120  131.6600 O.2   167  SER167     -0.2729
     12  CB        -2.1060   28.7260  130.5450 C.3   167  SER167      0.2129
     13  OG        -3.0130   28.0060  131.3640 O.3   167  SER167     -0.2179
     14  N          0.9280   28.0310  131.5110 N.am  168  PRO168     -0.2715
     15  CA         1.8680   27.5750  132.5370 C.3   168  PRO168      0.1536
     16  C          1.3870   27.9530  133.9460 C.2   168  PRO168      0.2599
     17  O          0.4090   28.6960  134.0760 O.2   168  PRO168     -0.2715
     18  CB         3.1390   28.3360  132.1760 C.3   168  PRO168      0.0310
     19  CG         2.6060   29.6710  131.6890 C.3   168  PRO168      0.0237
     20  CD         1.2980   29.3550  130.9780 C.3   168  PRO168      0.0939
     21  N          2.0530   27.4370  134.9790 N.am  169  PHE169     -0.1960
     22  CA         1.6760   27.7350  136.3620 C.3   169  PHE169      0.1771
     23  C          2.1290   29.1150  136.8110 C.2   169  PHE169      0.2619
     24  O          1.5250   29.7090  137.7040 O.2   169  PHE169     -0.2715
     25  CB         2.3050   26.7180  137.3190 C.3   169  PHE169      0.0574
     26  CG         3.7860   26.9380  137.5610 C.ar  169  PHE169     -0.0200
     27  CD1        4.2280   27.7150  138.6190 C.ar  169  PHE169     -0.0042
     28  CD2        4.7300   26.3580  136.7310 C.ar  169  PHE169     -0.0042
     29  CE1        5.5820   27.9180  138.8360 C.ar  169  PHE169     -0.0003
     30  CE2        6.0890   26.5490  136.9460 C.ar  169  PHE169     -0.0003
     31  CZ         6.5130   27.3360  137.9990 C.ar  169  PHE169     -0.0000
     32  N          3.2220   29.6070  136.2350 N.am  170  ASN170     -0.1972
     33  CA         3.9650   30.6860  136.8900 C.3   170  ASN170      0.1688
     34  C          3.3320   32.0830  136.9280 C.2   170  ASN170      0.2292
     35  O          3.5680   32.8470  137.8610 O.2   170  ASN170     -0.2864
     36  CB         5.4380   30.7240  136.4550 C.3   170  ASN170      0.1181
     37  CG         5.6320   31.1610  135.0200 C.2   170  ASN170      0.2629
     38  OD1        4.7350   31.0540  134.1830 O.2   170  ASN170     -0.2716
     39  ND2        6.8300   31.6450  134.7240 N.am  170  ASN170     -0.0877
     40  N         -6.5760   24.3940  128.5580 N.3   192  LYS192     -0.1245
     41  CA        -6.1400   23.5150  129.6380 C.3   192  LYS192      0.1561
     42  C         -5.1200   24.2200  130.5270 C.2   192  LYS192      0.2260
     43  O         -3.9560   24.3150  130.1820 O.2   192  LYS192     -0.2867
     44  CB        -5.5280   22.2280  129.0840 C.3   192  LYS192      0.0271
     45  CG        -5.2280   21.1840  130.1510 C.3   192  LYS192      0.0035
     46  CD        -4.0960   20.2370  129.7320 C.3   192  LYS192      0.0206
     47  CE        -2.7630   20.9730  129.5950 C.3   192  LYS192      0.1093
     48  NZ        -2.3600   21.6290  130.8680 N.3   192  LYS192     -0.1314
     49  N         -2.5490   25.0020  133.7440 N.3   194  SER194     -0.1202
     50  CA        -1.6090   24.2130  134.5260 C.3   194  SER194      0.2020
     51  C         -2.3230   23.6310  135.7410 C.2   194  SER194      0.2618
     52  O         -3.1760   24.2850  136.3410 O.2   194  SER194     -0.2717
     53  CB        -0.4320   25.0770  134.9760 C.3   194  SER194      0.2103
     54  OG         0.3950   24.3580  135.8780 O.3   194  SER194     -0.2182
     55  N         -1.9850   22.3970  136.1010 N.am  195  GLN195     -0.1979
     56  CA        -2.5970   21.7650  137.2660 C.3   195  GLN195      0.1601
     57  C         -2.3430   22.5980  138.5250 C.2   195  GLN195      0.2287
     58  O         -3.2110   22.7220  139.3870 O.2   195  GLN195     -0.2864
     59  CB        -2.0600   20.3420  137.4610 C.3   195  GLN195      0.0394
     60  CG        -2.3140   19.3890  136.2990 C.3   195  GLN195      0.0908
     61  CD        -3.6790   18.7310  136.3790 C.2   195  GLN195      0.2608
     62  OE1       -4.6740   19.3730  136.7400 O.2   195  GLN195     -0.2717
     63  NE2       -3.7320   17.4370  136.0570 N.am  195  GLN195     -0.0878
     64  N         -2.3450   16.3750  131.2830 N.3   225  PRO225     -0.2102
     65  CA        -1.8150   17.1330  130.1400 C.3   225  PRO225      0.1504
     66  C         -1.7270   16.3100  128.8630 C.2   225  PRO225      0.2575
     67  O         -2.1310   16.7950  127.8090 O.2   225  PRO225     -0.2718
     68  CB        -0.4120   17.5530  130.6070 C.3   225  PRO225      0.0282
     69  CG        -0.5310   17.6320  132.0910 C.3   225  PRO225      0.0208
     70  CD        -1.4710   16.4950  132.4650 C.3   225  PRO225      0.0893
     71  N         -1.2270   15.0840  128.9560 N.am  226  VAL226     -0.1980
     72  CA        -1.0180   14.2820  127.7590 C.3   226  VAL226      0.1595
     73  C         -2.3530   13.8160  127.1900 C.2   226  VAL226      0.2287
     74  O         -2.6110   13.9520  125.9920 O.2   226  VAL226     -0.2864
     75  CB        -0.0950   13.0680  128.0290 C.3   226  VAL226      0.0276
     76  CG1       -0.1440   12.0840  126.8550 C.3   226  VAL226      0.0022
     77  CG2        1.3270   13.5350  128.2950 C.3   226  VAL226      0.0022
     78  N         -4.4290   16.7400  125.7450 N.3   229  THR229     -0.1218
     79  CA        -3.7450   17.1850  124.5400 C.3   229  THR229      0.1862
     80  C         -3.9810   16.2680  123.3330 C.2   229  THR229      0.2287
     81  O         -4.2660   16.7390  122.2340 O.2   229  THR229     -0.2866
     82  CB        -2.2410   17.3200  124.8050 C.3   229  THR229      0.1770
     83  OG1       -2.0110   18.4540  125.6510 O.3   229  THR229     -0.2211
     84  CG2       -1.4700   17.4840  123.5070 C.3   229  THR229      0.0375
     85  N          0.7540   28.4900  123.3220 N.3   243  PHE243     -0.1227
     86  CA         1.5110   27.8140  124.3630 C.3   243  PHE243      0.1736
     87  C          2.5190   28.7150  125.0450 C.2   243  PHE243      0.2596
     88  O          3.1910   29.5150  124.4070 O.2   243  PHE243     -0.2718
     89  CB         2.2540   26.6150  123.7800 C.3   243  PHE243      0.0547
     90  CG         3.1030   25.8790  124.7870 C.ar  243  PHE243     -0.0202
     91  CD1        4.4720   26.1240  124.8830 C.ar  243  PHE243     -0.0042
     92  CD2        2.5260   24.9510  125.6570 C.ar  243  PHE243     -0.0042
     93  CE1        5.2610   25.4410  125.8180 C.ar  243  PHE243     -0.0003
     94  CE2        3.2970   24.2620  126.5950 C.ar  243  PHE243     -0.0003
     95  CZ         4.6730   24.5070  126.6760 C.ar  243  PHE243     -0.0000
     96  N          2.6270   28.5640  126.3570 N.am  244  THR244     -0.1939
     97  CA         3.7580   29.1040  127.0940 C.3   244  THR244      0.2028
     98  C          4.1540   28.0980  128.1770 C.2   244  THR244      0.2643
     99  O          3.3260   27.6780  128.9810 O.2   244  THR244     -0.2714
    100  CB         3.4390   30.4570  127.6990 C.3   244  THR244      0.1808
    101  OG1        3.0880   31.3530  126.6450 O.3   244  THR244     -0.2208
    102  CG2        4.6500   31.0130  128.4530 C.3   244  THR244      0.0379
    103  N          5.4200   27.7020  128.1720 N.am  245  GLY245     -0.1939
    104  CA         5.9120   26.6880  129.0820 C.3   245  GLY245      0.2014
    105  C          7.2760   26.2160  128.6280 C.2   245  GLY245      0.2639
    106  O          7.9470   26.8940  127.8570 O.2   245  GLY245     -0.2714
    107  N          7.6730   25.0370  129.0850 N.am  246  SER246     -0.1949
    108  CA         9.0010   24.5240  128.8030 C.3   246  SER246      0.1924
    109  C          9.2230   24.1470  127.3440 C.2   246  SER246      0.2314
    110  O          8.2960   23.7480  126.6300 O.2   246  SER246     -0.2863
    111  CB         9.3020   23.3100  129.6780 C.3   246  SER246      0.2116
    112  OG         8.4770   22.2080  129.3260 O.3   246  SER246     -0.2180
    113  N          8.2600   20.4530  126.5230 N.3   249  VAL249     -0.1245
    114  CA         6.8310   20.2540  126.3230 C.3   249  VAL249      0.1561
    115  C          6.3920   20.8330  124.9710 C.2   249  VAL249      0.2260
    116  O          5.6170   20.2070  124.2460 O.2   249  VAL249     -0.2867
    117  CB         5.9950   20.8120  127.5040 C.3   249  VAL249      0.0252
    118  CG1        4.5230   20.9280  127.1240 C.3   249  VAL249      0.0019
    119  CG2        6.1630   19.9150  128.7330 C.3   249  VAL249      0.0019
    120  N          7.3250   18.4580  122.1670 N.3   252  SER252     -0.1202
    121  CA         6.3630   17.3630  122.1070 C.3   252  SER252      0.2020
    122  C          5.0840   17.7920  121.3970 C.2   252  SER252      0.2618
    123  O          4.6200   17.1030  120.4850 O.2   252  SER252     -0.2717
    124  CB         6.0130   16.8720  123.5060 C.3   252  SER252      0.2103
    125  OG         5.0190   15.8600  123.4450 O.3   252  SER252     -0.2182
    126  N          4.5200   18.9260  121.8280 N.am  253  LEU253     -0.1979
    127  CA         3.2800   19.4490  121.2500 C.3   253  LEU253      0.1596
    128  C          3.4970   19.6330  119.7610 C.2   253  LEU253      0.2287
    129  O          2.7330   19.1150  118.9400 O.2   253  LEU253     -0.2864
    130  CB         2.8840   20.7880  121.8970 C.3   253  LEU253      0.0297
    131  CG         2.3680   20.7020  123.3410 C.3   253  LEU253      0.0022
    132  CD1        2.2800   22.0620  123.9770 C.3   253  LEU253      0.0001
    133  CD2        1.0080   20.0120  123.4110 C.3   253  LEU253      0.0001
    134  N          3.7340   16.3380  117.9180 N.3   256  LYS256     -0.1245
    135  CA         2.3870   15.7970  117.8010 C.3   256  LYS256      0.1561
    136  C          1.5640   16.5390  116.7510 C.2   256  LYS256      0.2260
    137  O          0.8410   15.9180  115.9830 O.2   256  LYS256     -0.2867
    138  CB         1.6800   15.8180  119.1570 C.3   256  LYS256      0.0271
    139  CG         2.0450   14.6510  120.0400 C.3   256  LYS256      0.0035
    140  CD         1.5720   14.8560  121.4640 C.3   256  LYS256      0.0206
    141  CE         1.8230   13.6050  122.2910 C.3   256  LYS256      0.1093
    142  NZ         1.0550   13.6440  123.5580 N.3   256  LYS256     -0.1314
    143  N         10.3110   32.8530  132.8570 N.3   309  CYS309     -0.1235
    144  CA        10.9230   32.5060  131.5860 C.3   309  CYS309      0.1677
    145  C         12.0930   33.4590  131.3030 C.2   309  CYS309      0.2270
    146  O         13.0320   33.0970  130.5910 O.2   309  CYS309     -0.2867
    147  CB         9.8810   32.4830  130.4480 C.3   309  CYS309      0.0956
    148  SG         8.7630   31.0070  130.4440 S.3   309  CYS309     -0.0801
    149  N          6.0840   22.5760  142.7690 N.3   345  HIS345     -0.1241
    150  CA         5.6590   21.2230  143.1250 C.3   345  HIS345      0.1621
    151  C          6.8370   20.2770  143.3800 C.2   345  HIS345      0.2264
    152  O          8.0020   20.6590  143.2430 O.2   345  HIS345     -0.2867
    153  CB         4.7250   20.6410  142.0600 C.3   345  HIS345      0.0745
    154  CG         5.2160   20.8260  140.6590 C.ar  345  HIS345      0.0817
    155  ND1        6.5100   20.5420  140.2790 N.ar  345  HIS345     -0.2268
    156  CD2        4.5890   21.2840  139.5460 C.ar  345  HIS345      0.1154
    157  CE1        6.6580   20.8120  138.9920 C.ar  345  HIS345      0.1986
    158  NE2        5.5070   21.2640  138.5240 N.ar  345  HIS345     -0.2212
    159  N         14.9170   26.1940  135.9410 N.3   401  PHE401     -0.1241
    160  CA        13.7120   26.8310  136.4790 C.3   401  PHE401      0.1605
    161  C         13.6450   26.7530  137.9990 C.2   401  PHE401      0.2264
    162  O         12.7000   26.2030  138.5550 O.2   401  PHE401     -0.2867
    163  CB        12.4390   26.2410  135.8630 C.3   401  PHE401      0.0534
    164  CG        11.4320   27.2860  135.4500 C.ar  401  PHE401     -0.0203
    165  CD1       11.7630   28.2460  134.4980 C.ar  401  PHE401     -0.0042
    166  CD2       10.1570   27.3130  136.0070 C.ar  401  PHE401     -0.0042
    167  CE1       10.8310   29.2240  134.1000 C.ar  401  PHE401     -0.0003
    168  CE2        9.2220   28.2800  135.6090 C.ar  401  PHE401     -0.0003
    169  CZ         9.5610   29.2310  134.6510 C.ar  401  PHE401     -0.0000
@<TRIPOS>BOND
     1   137   136    2
     2   136   135    1
     3   135   134    1
     4   135   138    1
     5   129   128    2
     6   138   139    1
     7   128   127    1
     8   139   140    1
     9   123   122    2
    10   127   126    1
    11   127   130    1
    12   122   126   am
    13   122   121    1
    14   140   141    1
    15   130   131    1
    16   121   120    1
    17   121   124    1
    18    81    80    2
    19   141   142    1
    20    85    86    1
    21    80    79    1
    22   131   133    1
    23   131   132    1
    24   125   124    1
    25    84    82    1
    26    89    86    1
    27    89    90    1
    28   116   115    2
    29    86    87    1
    30    88    87    2
    31    79    82    1
    32    79    78    1
    33    90    91   ar
    34    90    92   ar
    35    82    83    1
    36    91    93   ar
    37   115   114    1
    38    87    96   am
    39    92    94   ar
    40     7     5    1
    41    93    95   ar
    42    74    73    2
    43     1     2    1
    44   114   113    1
    45   114   117    1
    46    96    97    1
    47     5     2    1
    48     5     6    1
    49    94    95   ar
    50   110   109    2
    51   101   100    1
    52    76    75    1
    53     2     3    1
    54    97   100    1
    55    97    98    1
    56   118   117    1
    57    73    72    1
    58   109   108    1
    59     4     3    2
    60   117   119    1
    61   100   102    1
    62    72    75    1
    63    72    71    1
    64    67    66    2
    65   106   105    2
    66     3     8   am
    67    75    77    1
    68   103    98   am
    69   103   104    1
    70    98    99    2
    71    40    41    1
    72   105   104    1
    73   105   107   am
    74   108   107    1
    75   108   111    1
    76    66    71   am
    77    66    65    1
    78    44    41    1
    79    44    45    1
    80     8     9    1
    81   112   111    1
    82    47    46    1
    83    47    48    1
    84    41    42    1
    85    46    45    1
    86     9    12    1
    87     9    10    1
    88    65    68    1
    89    65    64    1
    90    43    42    2
    91   148   147    1
    92   147   144    1
    93    12    13    1
    94   146   145    2
    95    68    69    1
    96    20    14    1
    97    20    19    1
    98    10    14   am
    99    10    11    2
   100    64    70    1
   101   145   144    1
   102    14    15    1
   103   144   143    1
   104    19    18    1
   105    69    70    1
   106    18    15    1
   107    15    16    1
   108    49    50    1
   109    16    17    2
   110    16    21   am
   111   167   165   ar
   112   167   169   ar
   113    38    37    2
   114   165   164   ar
   115    50    53    1
   116    50    51    1
   117   169   168   ar
   118    39    37   am
   119    53    54    1
   120    21    22    1
   121    37    36    1
   122   164   163    1
   123   164   166   ar
   124   168   166   ar
   125    51    55   am
   126    51    52    2
   127   163   160    1
   128   159   160    1
   129    63    61   am
   130    55    56    1
   131    32    23   am
   132    32    33    1
   133    60    61    1
   134    60    59    1
   135    22    23    1
   136    22    25    1
   137    61    62    2
   138    36    33    1
   139   160   161    1
   140    28    30   ar
   141    28    26   ar
   142    23    24    2
   143    33    34    1
   144    34    35    2
   145    30    31   ar
   146    56    59    1
   147    56    57    1
   148    25    26    1
   149    26    27   ar
   150    31    29   ar
   151   161   162    2
   152   158   157   ar
   153   158   156   ar
   154    57    58    2
   155    27    29   ar
   156   157   155   ar
   157   156   154   ar
   158   155   154   ar
   159   154   153    1
   160   153   150    1
   161   149   150    1
   162   150   151    1
   163   152   151    2
