@<TRIPOS>MOLECULE
tmp/4oe4A00.pdb
 189 181 0 0 0
SMALL
GASTEIGER

@<TRIPOS>ATOM
      1  N         12.5320   28.5450   96.5830 N.3   166  VAL166     -0.1231
      2  CA        12.1150   27.6060   95.5500 C.3   166  VAL166      0.1692
      3  C         11.0010   28.2530   94.7220 C.2   166  VAL166      0.2593
      4  O          9.8970   28.4750   95.2100 O.2   166  VAL166     -0.2718
      5  CB        11.6370   26.3180   96.1830 C.3   166  VAL166      0.0266
      6  CG1       11.0740   25.3840   95.1280 C.3   166  VAL166      0.0020
      7  CG2       12.8090   25.6580   96.9320 C.3   166  VAL166      0.0020
      8  N         11.3010   28.5590   93.4680 N.am  167  SER167     -0.1939
      9  CA        10.4530   29.4510   92.6990 C.3   167  SER167      0.2040
     10  C          9.7910   28.6950   91.5420 C.2   167  SER167      0.2485
     11  O         10.3490   27.7270   91.0420 O.2   167  SER167     -0.2729
     12  CB        11.2800   30.6610   92.1990 C.3   167  SER167      0.2129
     13  OG        12.3840   30.2580   91.3940 O.3   167  SER167     -0.2179
     14  N          8.6010   29.1450   91.1190 N.am  168  PRO168     -0.2715
     15  CA         7.7970   28.4640   90.0940 C.3   168  PRO168      0.1536
     16  C          8.1650   28.9470   88.6810 C.2   168  PRO168      0.2599
     17  O          8.8910   29.9250   88.5590 O.2   168  PRO168     -0.2715
     18  CB         6.3700   28.9020   90.4420 C.3   168  PRO168      0.0310
     19  CG         6.5830   30.3620   90.8610 C.3   168  PRO168      0.0237
     20  CD         7.9040   30.3230   91.6740 C.3   168  PRO168      0.0939
     21  N          7.6540   28.2880   87.6400 N.am  169  PHE169     -0.1960
     22  CA         7.9830   28.6610   86.2680 C.3   169  PHE169      0.1771
     23  C          7.2000   29.8650   85.7900 C.2   169  PHE169      0.2619
     24  O          7.6110   30.5370   84.8530 O.2   169  PHE169     -0.2715
     25  CB         7.6690   27.5010   85.3070 C.3   169  PHE169      0.0574
     26  CG         6.1900   27.3230   85.0300 C.ar  169  PHE169     -0.0200
     27  CD1        5.5700   27.9990   83.9850 C.ar  169  PHE169     -0.0042
     28  CD2        5.4170   26.4980   85.8290 C.ar  169  PHE169     -0.0042
     29  CE1        4.2070   27.8440   83.7390 C.ar  169  PHE169     -0.0003
     30  CE2        4.0510   26.3350   85.5860 C.ar  169  PHE169     -0.0003
     31  CZ         3.4480   27.0160   84.5390 C.ar  169  PHE169     -0.0000
     32  N          6.0320   30.1030   86.3840 N.am  170  ASN170     -0.1972
     33  CA         5.0260   30.9040   85.6960 C.3   170  ASN170      0.1688
     34  C          5.2080   32.4190   85.6700 C.2   170  ASN170      0.2292
     35  O          4.7760   33.0700   84.7240 O.2   170  ASN170     -0.2864
     36  CB         3.6040   30.5270   86.1250 C.3   170  ASN170      0.1181
     37  CG         3.3020   30.9140   87.5490 C.2   170  ASN170      0.2629
     38  OD1        4.1980   31.0480   88.3730 O.2   170  ASN170     -0.2716
     39  ND2        2.0320   31.0720   87.8500 N.am  170  ASN170     -0.0877
     40  N         16.8760   27.7020   94.1930 N.3   192  LYS192     -0.1245
     41  CA        16.6800   26.7080   93.1280 C.3   192  LYS192      0.1561
     42  C         15.5180   27.1140   92.2130 C.2   192  LYS192      0.2260
     43  O         14.3600   26.9090   92.5460 O.2   192  LYS192     -0.2867
     44  CB        16.4270   25.3000   93.7030 C.3   192  LYS192      0.0271
     45  CG        16.4830   24.1950   92.6400 C.3   192  LYS192      0.0035
     46  CD        15.5720   22.9870   92.9900 C.3   192  LYS192      0.0206
     47  CE        14.0800   23.3640   93.0040 C.3   192  LYS192      0.1093
     48  NZ        13.6870   24.1420   91.7840 N.3   192  LYS192     -0.1314
     49  N         12.8530   27.1270   88.9570 N.3   194  SER194     -0.1202
     50  CA        12.1610   26.1480   88.1410 C.3   194  SER194      0.2020
     51  C         13.0270   25.8300   86.9250 C.2   194  SER194      0.2618
     52  O         13.6110   26.7440   86.3150 O.2   194  SER194     -0.2717
     53  CB        10.8240   26.7340   87.6860 C.3   194  SER194      0.2103
     54  OG        10.1740   25.8490   86.8000 O.3   194  SER194     -0.2182
     55  N         13.1130   24.5500   86.5730 N.am  195  GLN195     -0.1979
     56  CA        13.8150   24.1270   85.3660 C.3   195  GLN195      0.1601
     57  C         13.3160   24.9010   84.1480 C.2   195  GLN195      0.2287
     58  O         14.0930   25.2850   83.2940 O.2   195  GLN195     -0.2864
     59  CB        13.6110   22.6340   85.1140 C.3   195  GLN195      0.0394
     60  CG        14.0990   21.7090   86.2140 C.3   195  GLN195      0.0908
     61  CD        15.5750   21.3770   86.0920 C.2   195  GLN195      0.2608
     62  OE1       16.4350   22.2740   86.0330 O.2   195  GLN195     -0.2717
     63  NE2       15.8820   20.0790   86.0410 N.am  195  GLN195     -0.0878
     64  N         15.0760   18.8060   91.4070 N.3   225  PRO225     -0.2102
     65  CA        14.3690   19.4760   92.5070 C.3   225  PRO225      0.1504
     66  C         14.4580   18.6970   93.8190 C.2   225  PRO225      0.2575
     67  O         14.6610   19.3050   94.8680 O.2   225  PRO225     -0.2718
     68  CB        12.9140   19.5540   92.0100 C.3   225  PRO225      0.0282
     69  CG        12.9860   19.3400   90.5460 C.3   225  PRO225      0.0208
     70  CD        14.1690   18.4460   90.3060 C.3   225  PRO225      0.0893
     71  N         14.3260   17.3750   93.7440 N.am  226  VAL226     -0.1980
     72  CA        14.4520   16.4880   94.9030 C.3   226  VAL226      0.1595
     73  C         15.8640   16.4150   95.4830 C.2   226  VAL226      0.2287
     74  O         16.0400   16.5540   96.6880 O.2   226  VAL226     -0.2864
     75  CB        13.9670   15.0380   94.5800 C.3   226  VAL226      0.0276
     76  CG1       14.1610   14.1260   95.7760 C.3   226  VAL226      0.0022
     77  CG2       12.5250   15.0450   94.1920 C.3   226  VAL226      0.0022
     78  N         16.8630   19.8900   96.9160 N.3   229  THR229     -0.1218
     79  CA        16.0920   20.1130   98.1250 C.3   229  THR229      0.1862
     80  C         16.5820   19.2580   99.2920 C.2   229  THR229      0.2287
     81  O         16.7490   19.7550  100.4070 O.2   229  THR229     -0.2866
     82  CB        14.6150   19.8330   97.8880 C.3   229  THR229      0.1770
     83  OG1       14.0680   20.8540   97.0450 O.3   229  THR229     -0.2211
     84  CG2       13.8620   19.8160   99.2090 C.3   229  THR229      0.0375
     85  N          8.6790   29.6360   99.3100 N.3   243  PHE243     -0.1227
     86  CA         8.2020   28.7910   98.2280 C.3   243  PHE243      0.1736
     87  C          6.9480   29.3400   97.5580 C.2   243  PHE243      0.2596
     88  O          6.0600   29.8600   98.2170 O.2   243  PHE243     -0.2718
     89  CB         7.8900   27.4040   98.7750 C.3   243  PHE243      0.0547
     90  CG         7.1830   26.4920   97.7850 C.ar  243  PHE243     -0.0202
     91  CD1        5.7880   26.4220   97.7500 C.ar  243  PHE243     -0.0042
     92  CD2        7.9220   25.6800   96.9120 C.ar  243  PHE243     -0.0042
     93  CE1        5.1390   25.5570   96.8520 C.ar  243  PHE243     -0.0003
     94  CE2        7.2930   24.8110   96.0170 C.ar  243  PHE243     -0.0003
     95  CZ         5.8880   24.7490   95.9880 C.ar  243  PHE243     -0.0000
     96  N          6.8830   29.2010   96.2400 N.am  244  THR244     -0.1939
     97  CA         5.6420   29.4110   95.5110 C.3   244  THR244      0.2028
     98  C          5.5390   28.3220   94.4660 C.2   244  THR244      0.2643
     99  O          6.4950   28.0670   93.7250 O.2   244  THR244     -0.2714
    100  CB         5.5760   30.7790   94.8230 C.3   244  THR244      0.1808
    101  OG1        5.6500   31.8030   95.8130 O.3   244  THR244     -0.2208
    102  CG2        4.2610   30.9300   94.0570 C.3   244  THR244      0.0379
    103  N          4.3830   27.6670   94.4230 N.am  245  GLY245     -0.1939
    104  CA         4.1690   26.5790   93.4970 C.3   245  GLY245      0.2014
    105  C          3.0000   25.7310   93.9400 C.2   245  GLY245      0.2639
    106  O          2.0920   26.2320   94.6000 O.2   245  GLY245     -0.2714
    107  N          3.0430   24.4470   93.6060 N.am  246  SER246     -0.1949
    108  CA         1.9020   23.5680   93.8150 C.3   246  SER246      0.1924
    109  C          1.7470   23.1190   95.2570 C.2   246  SER246      0.2314
    110  O          2.7170   22.9970   95.9970 O.2   246  SER246     -0.2863
    111  CB         1.9880   22.3320   92.9090 C.3   246  SER246      0.2116
    112  OG         2.8840   21.3790   93.4490 O.3   246  SER246     -0.2180
    113  N          3.7540   19.7960   96.0360 N.3   249  VAL249     -0.1245
    114  CA         5.1760   20.0020   96.2820 C.3   249  VAL249      0.1561
    115  C          5.3860   20.6670   97.6580 C.2   249  VAL249      0.2260
    116  O          6.2290   20.2400   98.4260 O.2   249  VAL249     -0.2867
    117  CB         5.8570   20.7840   95.1340 C.3   249  VAL249      0.0252
    118  CG1        7.2810   21.1330   95.5180 C.3   249  VAL249      0.0019
    119  CG2        5.8290   19.9420   93.8510 C.3   249  VAL249      0.0019
    120  N          5.1160   18.1930  100.2710 N.3   252  SER252     -0.1202
    121  CA         6.3460   17.4070  100.2840 C.3   252  SER252      0.2020
    122  C          7.4380   18.1710  101.0420 C.2   252  SER252      0.2618
    123  O          8.0630   17.6310  101.9500 O.2   252  SER252     -0.2717
    124  CB         6.8190   17.0910   98.8640 C.3   252  SER252      0.2103
    125  OG         8.0470   16.3740   98.9060 O.3   252  SER252     -0.2182
    126  N          7.6500   19.4390  100.6810 N.am  253  LEU253     -0.1979
    127  CA         8.6910   20.2350  101.3390 C.3   253  LEU253      0.1596
    128  C          8.3970   20.3720  102.8340 C.2   253  LEU253      0.2287
    129  O          9.2940   20.2250  103.6770 O.2   253  LEU253     -0.2864
    130  CB         8.7840   21.6180  100.6970 C.3   253  LEU253      0.0297
    131  CG         9.4540   21.6400   99.3210 C.3   253  LEU253      0.0022
    132  CD1        9.0060   22.8540   98.5150 C.3   253  LEU253      0.0001
    133  CD2       10.9650   21.6620   99.5100 C.3   253  LEU253      0.0001
    134  N          9.1860   17.2850  104.7200 N.3   256  LYS256     -0.1245
    135  CA        10.6280   17.0980  104.9080 C.3   256  LYS256      0.1561
    136  C         11.1950   18.0280  105.9810 C.2   256  LYS256      0.2260
    137  O         12.0360   17.6380  106.7600 O.2   256  LYS256     -0.2867
    138  CB        11.3890   17.2500  103.5910 C.3   256  LYS256      0.0271
    139  CG        11.1890   16.0760  102.6630 C.3   256  LYS256      0.0035
    140  CD        11.8440   16.3090  101.3120 C.3   256  LYS256      0.0206
    141  CE        11.7310   15.0470  100.4380 C.3   256  LYS256      0.1093
    142  NZ        12.2010   15.2810   99.0460 N.3   256  LYS256     -0.1314
    143  N          0.7080   28.6990   97.7240 N.3   276  THR276     -0.1203
    144  CA         0.2960   27.5940   96.8880 C.3   276  THR276      0.1994
    145  C         -0.8460   28.0290   95.9890 C.2   276  THR276      0.2618
    146  O         -1.1140   29.2220   95.8280 O.2   276  THR276     -0.2717
    147  CB        -0.1060   26.3620   97.7130 C.3   276  THR276      0.1784
    148  OG1       -1.0510   26.7420   98.7170 O.3   276  THR276     -0.2211
    149  CG2        1.1030   25.7750   98.3960 C.3   276  THR276      0.0376
    150  N         -1.5120   27.0620   95.3870 N.am  277  GLY277     -0.1956
    151  CA        -2.5610   27.3930   94.4520 C.3   277  GLY277      0.1869
    152  C         -3.9240   27.3470   95.0940 C.2   277  GLY277      0.2309
    153  O         -4.0660   27.4430   96.3180 O.2   277  GLY277     -0.2863
    154  N         -1.7040   31.1150   89.7580 N.3   309  CYS309     -0.1235
    155  CA        -2.2480   30.6900   91.0380 C.3   309  CYS309      0.1677
    156  C         -3.6650   31.2330   91.2820 C.2   309  CYS309      0.2270
    157  O         -4.4310   30.6340   92.0300 O.2   309  CYS309     -0.2867
    158  CB        -1.3150   31.1240   92.1760 C.3   309  CYS309      0.0956
    159  SG        -0.1490   32.4410   91.7230 S.3   309  CYS309     -0.0801
    160  N          5.0530   22.6170   79.7010 N.3   343  HIS343     -0.1241
    161  CA         5.8520   21.4420   79.3290 C.3   343  HIS343      0.1621
    162  C          4.9910   20.2140   79.0730 C.2   343  HIS343      0.2264
    163  O          3.7690   20.2440   79.2510 O.2   343  HIS343     -0.2867
    164  CB         6.9110   21.1140   80.3860 C.3   343  HIS343      0.0745
    165  CG         6.3900   21.0770   81.7940 C.ar  343  HIS343      0.0817
    166  ND1        5.2610   20.3730   82.1590 N.ar  343  HIS343     -0.2268
    167  CD2        6.8560   21.6500   82.9300 C.ar  343  HIS343      0.1154
    168  CE1        5.0610   20.5070   83.4580 C.ar  343  HIS343      0.1986
    169  NE2        6.0110   21.2830   83.9490 N.ar  343  HIS343     -0.2212
    170  N         -7.1520   20.8020   91.0210 N.3   397  GLU397     -0.1245
    171  CA        -6.4520   21.8900   90.3540 C.3   397  GLU397      0.1567
    172  C         -5.7560   21.3400   89.1040 C.2   397  GLU397      0.2260
    173  O         -4.9570   20.4100   89.2020 O.2   397  GLU397     -0.2867
    174  CB        -5.4440   22.5090   91.3220 C.3   397  GLU397      0.0388
    175  CG        -4.6800   23.7020   90.7770 C.3   397  GLU397      0.1160
    176  CD        -4.0880   24.5510   91.8950 C.2   397  GLU397      0.3649
    177  OE1       -3.5250   25.6290   91.6010 O.co2 397  GLU397     -0.2457
    178  OE2       -4.1980   24.1400   93.0740 O.co2 397  GLU397     -0.2457
    179  N         -4.3700   23.5780   86.5330 N.3   399  PHE399     -0.1241
    180  CA        -3.3750   24.5470   86.0510 C.3   399  PHE399      0.1605
    181  C         -3.2180   24.5020   84.5260 C.2   399  PHE399      0.2264
    182  O         -2.1420   24.1840   84.0160 O.2   399  PHE399     -0.2867
    183  CB        -2.0220   24.3010   86.7210 C.3   399  PHE399      0.0534
    184  CG        -1.2940   25.5630   87.0740 C.ar  399  PHE399     -0.0203
    185  CD1       -0.0590   25.8560   86.5010 C.ar  399  PHE399     -0.0042
    186  CD2       -1.8570   26.4730   87.9580 C.ar  399  PHE399     -0.0042
    187  CE1        0.6120   27.0150   86.8220 C.ar  399  PHE399     -0.0003
    188  CE2       -1.1970   27.6520   88.2780 C.ar  399  PHE399     -0.0003
    189  CZ         0.0510   27.9170   87.7150 C.ar  399  PHE399     -0.0000
@<TRIPOS>BOND
     1   162   163    2
     2   162   161    1
     3   161   160    1
     4   161   164    1
     5   164   165    1
     6   165   166   ar
     7   165   167   ar
     8   166   168   ar
     9   167   169   ar
    10    58    57    2
    11   168   169   ar
    12    29    27   ar
    13    29    31   ar
    14    27    26   ar
    15   182   181    2
    16    57    56    1
    17   181   180    1
    18    31    30   ar
    19    35    34    2
    20    24    23    2
    21    26    25    1
    22    26    28   ar
    23    59    56    1
    24    59    60    1
    25    25    22    1
    26    56    55    1
    27    30    28   ar
    28    34    33    1
    29    33    36    1
    30    33    32    1
    31    23    22    1
    32    23    32   am
    33    62    61    2
    34    63    61   am
    35   180   179    1
    36   180   183    1
    37    61    60    1
    38    36    37    1
    39    22    21    1
    40    52    51    2
    41   185   187   ar
    42   185   184   ar
    43    55    51   am
    44   183   184    1
    45    54    53    1
    46   187   189   ar
    47    51    50    1
    48   184   186   ar
    49    37    39   am
    50    37    38    2
    51    21    16   am
    52    53    50    1
    53   189   188   ar
    54   186   188   ar
    55    50    49    1
    56    17    16    2
    57    16    15    1
    58   172   173    2
    59   172   171    1
    60   154   155    1
    61    15    18    1
    62    15    14    1
    63    70    69    1
    64    70    64    1
    65   171   170    1
    66   171   174    1
    67    18    19    1
    68    69    68    1
    69   175   174    1
    70   175   176    1
    71    19    20    1
    72   155   156    1
    73   155   158    1
    74    11    10    2
    75    14    10   am
    76    14    20    1
    77   156   157    2
    78    13    12    1
    79    64    65    1
    80    10     9    1
    81   177   176   ar
    82   159   158    1
    83    48    47    1
    84   176   178   ar
    85    68    65    1
    86    12     9    1
    87    42    43    2
    88    42    41    1
    89    65    66    1
    90    45    46    1
    91    45    44    1
    92     9     8    1
    93   111   112    1
    94   111   108    1
    95    46    47    1
    96    41    44    1
    97    41    40    1
    98     8     3   am
    99   104   105    1
   100   104   103    1
   101   107   108    1
   102   107   105   am
   103    99    98    2
   104    71    66   am
   105    71    72    1
   106   108   109    1
   107    66    67    2
   108   119   117    1
   109   105   106    2
   110   102   100    1
   111    77    75    1
   112   103    98   am
   113   151   152    1
   114   151   150    1
   115    98    97    1
   116    75    72    1
   117    75    76    1
   118     3     4    2
   119     3     2    1
   120   100    97    1
   121   100   101    1
   122    72    73    1
   123   152   153    2
   124     6     5    1
   125   117   118    1
   126   117   114    1
   127   109   110    2
   128   150   145   am
   129    73    74    2
   130    97    96    1
   131     2     5    1
   132     2     1    1
   133   146   145    2
   134    95    94   ar
   135    95    93   ar
   136   145   144    1
   137    94    92   ar
   138   113   114    1
   139     5     7    1
   140    96    87   am
   141   114   115    1
   142    93    91   ar
   143   144   147    1
   144   144   143    1
   145    92    90   ar
   146    78    79    1
   147    83    82    1
   148    87    88    2
   149    87    86    1
   150   115   116    2
   151   147   149    1
   152   147   148    1
   153    91    90   ar
   154    90    89    1
   155    82    79    1
   156    82    84    1
   157    79    80    1
   158    86    89    1
   159    86    85    1
   160   132   131    1
   161   124   125    1
   162   124   121    1
   163   142   141    1
   164    80    81    2
   165   131   133    1
   166   131   130    1
   167   120   121    1
   168   121   122    1
   169   141   140    1
   170   126   122   am
   171   126   127    1
   172   130   127    1
   173   122   123    2
   174   140   139    1
   175   127   128    1
   176   139   138    1
   177   128   129    2
   178   138   135    1
   179   134   135    1
   180   135   136    1
   181   136   137    2
