@<TRIPOS>MOLECULE
tmp/4oe7B00.pdb
 117 113 0 0 0
SMALL
GASTEIGER

@<TRIPOS>ATOM
      1  N          0.2540   17.5680   -4.7500 N.3     9  PRO9       -0.2116
      2  CA         0.7890   18.8360   -4.3690 C.3     9  PRO9        0.1372
      3  C          1.0640   18.7870   -2.8640 C.2     9  PRO9        0.2244
      4  O          0.1570   19.0620   -2.0410 O.2     9  PRO9       -0.2868
      5  CB        -0.3630   19.8110   -4.7230 C.3     9  PRO9        0.0268
      6  CG        -1.6170   18.9740   -4.5910 C.3     9  PRO9        0.0207
      7  CD        -1.1970   17.5430   -4.6370 C.3     9  PRO9        0.0892
      8  N          5.0290   16.9560   -6.0830 N.3    41  PHE41      -0.1241
      9  CA         5.0070   18.3610   -6.4700 C.3    41  PHE41       0.1605
     10  C          5.1470   19.2370   -5.2650 C.2    41  PHE41       0.2264
     11  O          4.2880   19.3170   -4.4120 O.2    41  PHE41      -0.2867
     12  CB         3.7450   18.6670   -7.2830 C.3    41  PHE41       0.0534
     13  CG         3.5190   20.1180   -7.5880 C.ar   41  PHE41      -0.0203
     14  CD1        4.6120   20.9950   -7.8660 C.ar   41  PHE41      -0.0042
     15  CD2        2.2120   20.6130   -7.7080 C.ar   41  PHE41      -0.0042
     16  CE1        4.3840   22.3290   -8.2120 C.ar   41  PHE41      -0.0003
     17  CE2        1.9790   21.9570   -8.0150 C.ar   41  PHE41      -0.0003
     18  CZ         3.0780   22.8000   -8.3200 C.ar   41  PHE41      -0.0000
     19  N          3.5110   23.9330   -4.7880 N.3    44  GLY44      -0.1210
     20  CA         2.2340   24.3410   -5.4110 C.3    44  GLY44       0.1956
     21  C          1.3950   25.2120   -4.5130 C.2    44  GLY44       0.2613
     22  O          1.8640   25.6960   -3.4830 O.2    44  GLY44      -0.2717
     23  N          0.1530   25.4330   -4.8940 N.am   45  SER45      -0.1938
     24  CA        -0.7630   26.3010   -4.1240 C.3    45  SER45       0.2055
     25  C         -0.8790   25.7210   -2.7500 C.2    45  SER45       0.2643
     26  O         -0.6830   26.4060   -1.7100 O.2    45  SER45      -0.2714
     27  CB        -2.1540   26.3890   -4.7650 C.3    45  SER45       0.2130
     28  OG        -1.9640   26.8200   -6.0950 O.3    45  SER45      -0.2179
     29  N         -1.1880   24.4590   -2.7550 N.am   46  GLY46      -0.1954
     30  CA        -1.3170   23.6990   -1.4520 C.3    46  GLY46       0.1869
     31  C         -0.0170   23.6820   -0.5860 C.2    46  GLY46       0.2309
     32  O         -0.0800   23.5910    0.6550 O.2    46  GLY46      -0.2863
     33  N          0.6380   25.7410  -15.3070 N.3   134  TYR134     -0.1241
     34  CA        -0.3300   25.6370  -14.1780 C.3   134  TYR134      0.1605
     35  C         -1.3910   26.6400  -14.4790 C.2   134  TYR134      0.2264
     36  O         -1.1410   27.8500  -14.3830 O.2   134  TYR134     -0.2867
     37  CB         0.4150   25.9610  -12.8760 C.3   134  TYR134      0.0534
     38  CG        -0.2810   25.7380  -11.5660 C.ar  134  TYR134     -0.0201
     39  CD1       -1.5100   25.4560  -11.4260 C.ar  134  TYR134     -0.0009
     40  CD2        0.3210   25.7620  -10.5070 C.ar  134  TYR134     -0.0009
     41  CE1       -2.1220   25.2690  -10.1790 C.ar  134  TYR134      0.0417
     42  CE2       -0.3020   25.5750   -9.2800 C.ar  134  TYR134      0.0417
     43  CZ        -1.5250   25.3530   -9.1540 C.ar  134  TYR134      0.1957
     44  OH        -2.0670   25.1600   -7.9200 O.3   134  TYR134     -0.2866
     45  N         -4.9970   28.0790  -13.1700 N.3   136  PHE136     -0.1241
     46  CA        -5.8880   28.1650  -11.9640 C.3   136  PHE136      0.1605
     47  C         -6.6830   29.4390  -12.0590 C.2   136  PHE136      0.2264
     48  O         -6.5040   30.3970  -11.2650 O.2   136  PHE136     -0.2867
     49  CB        -5.0600   28.0460  -10.6690 C.3   136  PHE136      0.0534
     50  CG        -5.8430   27.6380   -9.4330 C.ar  136  PHE136     -0.0203
     51  CD1       -7.2230   27.6080   -9.4210 C.ar  136  PHE136     -0.0042
     52  CD2       -5.1760   27.3640   -8.2730 C.ar  136  PHE136     -0.0042
     53  CE1       -7.9320   27.2710   -8.2580 C.ar  136  PHE136     -0.0003
     54  CE2       -5.8670   26.9940   -7.1170 C.ar  136  PHE136     -0.0003
     55  CZ        -7.2590   26.9640   -7.1120 C.ar  136  PHE136     -0.0000
     56  N         -1.1890   21.4100  -15.5080 N.3   163  LYS163     -0.1245
     57  CA        -2.0850   21.1070  -14.3990 C.3   163  LYS163      0.1561
     58  C         -3.2340   22.0810  -14.5890 C.2   163  LYS163      0.2260
     59  O         -3.0990   23.3260  -14.4120 O.2   163  LYS163     -0.2867
     60  CB        -1.4180   21.3480  -13.0620 C.3   163  LYS163      0.0271
     61  CG        -2.3130   21.3070  -11.8200 C.3   163  LYS163      0.0035
     62  CD        -1.5360   21.6850  -10.5710 C.3   163  LYS163      0.0206
     63  CE        -2.5080   21.5130   -9.4350 C.3   163  LYS163      0.1093
     64  NZ        -1.9550   21.9340   -8.1390 N.3   163  LYS163     -0.1314
     65  N         -6.3920   23.4070  -13.2570 N.3   165  THR165     -0.1218
     66  CA        -7.1490   23.4880  -11.9920 C.3   165  THR165      0.1862
     67  C         -8.4250   24.3130  -12.2200 C.2   165  THR165      0.2287
     68  O         -8.4120   25.4990  -12.1070 O.2   165  THR165     -0.2866
     69  CB        -6.3050   24.1030  -10.8450 C.3   165  THR165      0.1770
     70  OG1       -5.0480   23.4450  -10.8060 O.3   165  THR165     -0.2211
     71  CG2       -6.9470   23.8890   -9.6000 C.3   165  THR165      0.0375
     72  N         -6.4240   19.4940  -11.6240 N.3   191  GLY191     -0.1210
     73  CA        -6.0370   19.9630  -10.3200 C.3   191  GLY191      0.1956
     74  C         -7.0450   19.6680   -9.2080 C.2   191  GLY191      0.2611
     75  O         -6.7680   19.9860   -8.1020 O.2   191  GLY191     -0.2717
     76  N         -8.1860   19.0770   -9.5360 N.am  192  TYR192     -0.1976
     77  CA        -9.2700   18.7290   -8.5710 C.3   192  TYR192      0.1639
     78  C         -9.5470   17.2470   -8.5050 C.2   192  TYR192      0.2290
     79  O         -9.6110   16.5840   -9.5250 O.2   192  TYR192     -0.2864
     80  CB       -10.5900   19.4790   -8.9220 C.3   192  TYR192      0.0560
     81  CG       -10.5530   20.9380   -8.5490 C.ar  192  TYR192     -0.0198
     82  CD1      -10.1420   21.3620   -7.2670 C.ar  192  TYR192     -0.0009
     83  CD2      -10.9680   21.9120   -9.4460 C.ar  192  TYR192     -0.0009
     84  CE1      -10.0940   22.7100   -6.9200 C.ar  192  TYR192      0.0417
     85  CE2      -10.9570   23.2550   -9.1100 C.ar  192  TYR192      0.0417
     86  CZ       -10.4960   23.6520   -7.8860 C.ar  192  TYR192      0.1957
     87  OH       -10.4950   24.9530   -7.5540 O.3   192  TYR192     -0.2866
     88  N         -2.9590   16.2440  -10.0590 N.3   208  ILE208     -0.1231
     89  CA        -2.2650   16.8690   -8.9790 C.3   208  ILE208      0.1692
     90  C         -3.3620   17.4870   -8.1410 C.2   208  ILE208      0.2593
     91  O         -3.9030   18.5600   -8.4870 O.2   208  ILE208     -0.2718
     92  CB        -1.2720   17.9590   -9.4490 C.3   208  ILE208      0.0266
     93  CG1       -0.2000   17.3000  -10.3810 C.3   208  ILE208      0.0019
     94  CG2       -0.6500   18.6670   -8.2650 C.3   208  ILE208      0.0020
     95  CD1        0.7620   18.3080  -11.0020 C.3   208  ILE208      0.0001
     96  N         -3.7470   16.7960   -7.0780 N.am  209  SER209     -0.1938
     97  CA        -4.8690   17.2950   -6.2580 C.3   209  SER209      0.2055
     98  C         -4.6720   17.0300   -4.7980 C.2   209  SER209      0.2642
     99  O         -4.0420   16.0360   -4.3540 O.2   209  SER209     -0.2714
    100  CB        -6.1880   16.7360   -6.8030 C.3   209  SER209      0.2130
    101  OG        -6.3570   15.3570   -6.5990 O.3   209  SER209     -0.2179
    102  N         -5.2880   17.8780   -4.0160 N.am  210  ALA210     -0.1977
    103  CA        -4.9500   17.9760   -2.5800 C.3   210  ALA210      0.1597
    104  C         -5.1100   16.6860   -1.7930 C.2   210  ALA210      0.2287
    105  O         -4.3160   16.4290   -0.8720 O.2   210  ALA210     -0.2864
    106  CB        -5.7600   19.0770   -1.9420 C.3   210  ALA210      0.0319
    107  N         -7.5510   26.8370    2.1890 N.3   254  PHE254     -0.1241
    108  CA        -7.8400   25.6310    2.9080 C.3   254  PHE254      0.1605
    109  C         -6.6100   24.7110    3.0430 C.2   254  PHE254      0.2264
    110  O         -6.7480   23.5480    3.2790 O.2   254  PHE254     -0.2867
    111  CB        -8.9860   24.8820    2.2560 C.3   254  PHE254      0.0534
    112  CG        -8.8100   24.6200    0.8210 C.ar  254  PHE254     -0.0203
    113  CD1       -9.3690   25.4660   -0.0930 C.ar  254  PHE254     -0.0042
    114  CD2       -8.2060   23.4620    0.3760 C.ar  254  PHE254     -0.0042
    115  CE1       -9.2700   25.2080   -1.4440 C.ar  254  PHE254     -0.0003
    116  CE2       -8.1160   23.1820   -0.9800 C.ar  254  PHE254     -0.0003
    117  CZ        -8.6250   24.0740   -1.8820 C.ar  254  PHE254     -0.0000
@<TRIPOS>BOND
     1    56    57    1
     2    33    34    1
     3    58    59    2
     4    58    57    1
     5    35    36    2
     6    35    34    1
     7    57    60    1
     8    34    37    1
     9    65    66    1
    10    45    46    1
    11    60    61    1
    12    37    38    1
    13    67    68    2
    14    67    66    1
    15    47    46    1
    16    47    48    2
    17    66    69    1
    18    46    49    1
    19    61    62    1
    20    72    73    1
    21    38    39   ar
    22    38    40   ar
    23    39    41   ar
    24    95    93    1
    25    69    70    1
    26    69    71    1
    27    49    50    1
    28    62    63    1
    29    40    42   ar
    30    93    92    1
    31    73    74    1
    32    41    43   ar
    33    88    89    1
    34    76    74   am
    35    76    77    1
    36    79    78    2
    37    92    89    1
    38    92    94    1
    39    83    85   ar
    40    83    81   ar
    41    63    64    1
    42    50    51   ar
    43    50    52   ar
    44    51    53   ar
    45    42    43   ar
    46    74    75    2
    47    43    44    1
    48    85    86   ar
    49    89    90    1
    50    80    77    1
    51    80    81    1
    52    77    78    1
    53    81    82   ar
    54    91    90    2
    55    18    16   ar
    56    18    17   ar
    57    52    54   ar
    58    53    55   ar
    59    16    14   ar
    60    90    96   am
    61    17    15   ar
    62    86    87    1
    63    86    84   ar
    64    14    13   ar
    65    15    13   ar
    66    13    12    1
    67    12     9    1
    68    82    84   ar
    69    54    55   ar
    70    96    97    1
    71   100   101    1
    72   100    97    1
    73     9     8    1
    74     9    10    1
    75    97    98    1
    76    28    27    1
    77    20    19    1
    78    20    21    1
    79    10    11    2
    80    23    21   am
    81    23    24    1
    82    98    99    2
    83    98   102   am
    84    27    24    1
    85     1     7    1
    86     1     2    1
    87     5     6    1
    88     5     2    1
    89     7     6    1
    90    21    22    2
    91     2     3    1
    92    24    25    1
    93   102   103    1
    94     3     4    2
    95    29    25   am
    96    29    30    1
    97    25    26    2
    98   103   106    1
    99   103   104    1
   100   117   115   ar
   101   117   116   ar
   102   104   105    2
   103    30    31    1
   104   115   113   ar
   105   116   114   ar
   106    31    32    2
   107   113   112   ar
   108   114   112   ar
   109   112   111    1
   110   107   108    1
   111   111   108    1
   112   108   109    1
   113   109   110    2
