@<TRIPOS>MOLECULE
tmp/4oe9A01.pdb
 77 71 0 0 0
SMALL
GASTEIGER

@<TRIPOS>ATOM
      1  N          5.0810   -3.2560   38.4480 N.3    17  LEU17      -0.1231
      2  CA         6.0060   -2.1040   38.5280 C.3    17  LEU17       0.1693
      3  C          6.6380   -1.9230   39.9060 C.2    17  LEU17       0.2591
      4  O          7.6800   -1.2830   40.0340 O.2    17  LEU17      -0.2718
      5  CB         5.2910   -0.8210   38.1290 C.3    17  LEU17       0.0284
      6  CG         4.8470   -0.7550   36.6800 C.3    17  LEU17       0.0019
      7  CD1        3.8420    0.3340   36.4450 C.3    17  LEU17       0.0001
      8  CD2        6.0920   -0.5460   35.7860 C.3    17  LEU17       0.0001
      9  N          6.0240   -2.4980   40.9330 N.am   18  LEU18      -0.1980
     10  CA         6.6190   -2.4830   42.2710 C.3    18  LEU18       0.1596
     11  C          7.9210   -3.2630   42.3450 C.2    18  LEU18       0.2287
     12  O          8.6460   -3.1560   43.3420 O.2    18  LEU18      -0.2864
     13  CB         5.6190   -2.9990   43.3060 C.3    18  LEU18       0.0297
     14  CG         4.5420   -1.9690   43.6330 C.3    18  LEU18       0.0022
     15  CD1        3.2260   -2.6020   44.0820 C.3    18  LEU18       0.0001
     16  CD2        5.0500   -1.0180   44.6910 C.3    18  LEU18       0.0001
     17  N         10.2630   -2.6260   40.1680 N.3    20  ALA20      -0.1245
     18  CA        11.2450   -1.7630   39.5220 C.3    20  ALA20       0.1562
     19  C         12.2780   -1.2780   40.4990 C.2    20  ALA20       0.2260
     20  O         11.9830   -0.9730   41.6480 O.2    20  ALA20      -0.2867
     21  CB        10.5790   -0.5770   38.8520 C.3    20  ALA20       0.0290
     22  N         13.9580    1.4960   40.2440 N.3    22  SER22      -0.1202
     23  CA        13.8850    2.9350   40.3910 C.3    22  SER22       0.2020
     24  C         12.6360    3.4770   39.7470 C.2    22  SER22       0.2618
     25  O         12.0490    2.8540   38.8480 O.2    22  SER22      -0.2717
     26  CB        15.1210    3.6030   39.7800 C.3    22  SER22       0.2103
     27  OG        15.1110    3.4680   38.3750 O.3    22  SER22      -0.2182
     28  N         12.2410    4.6620   40.1920 N.am   23  LYS23      -0.1979
     29  CA        11.1210    5.3740   39.5850 C.3    23  LYS23       0.1596
     30  C         11.3920    5.7010   38.1300 C.2    23  LYS23       0.2287
     31  O         10.4770    5.7510   37.3140 O.2    23  LYS23      -0.2864
     32  CB        10.8190    6.6320   40.3920 C.3    23  LYS23       0.0298
     33  CG        10.2860    6.3140   41.7780 C.3    23  LYS23       0.0038
     34  CD         9.9540    7.5560   42.5840 C.3    23  LYS23       0.0206
     35  CE         9.3370    7.1590   43.9230 C.3    23  LYS23       0.1093
     36  NZ         8.9200    8.3410   44.7270 N.3    23  LYS23      -0.1314
     37  N         10.1340    3.1300   35.7910 N.3    26  VAL26      -0.1245
     38  CA         8.6930    3.2110   35.5900 C.3    26  VAL26       0.1561
     39  C          8.3760    4.3150   34.5670 C.2    26  VAL26       0.2260
     40  O          7.5420    4.1400   33.6730 O.2    26  VAL26      -0.2867
     41  CB         7.9640    3.4730   36.9410 C.3    26  VAL26       0.0252
     42  CG1        6.4440    3.5940   36.7300 C.3    26  VAL26       0.0019
     43  CG2        8.2980    2.3580   37.9380 C.3    26  VAL26       0.0019
     44  N         -2.3440   -0.4560   45.1100 N.3    92  HIS92      -0.1241
     45  CA        -1.2650    0.1520   45.8650 C.3    92  HIS92       0.1621
     46  C         -1.2090    1.6730   45.7580 C.2    92  HIS92       0.2264
     47  O         -1.0730    2.2300   44.6630 O.2    92  HIS92      -0.2867
     48  CB         0.0630   -0.4350   45.3920 C.3    92  HIS92       0.0745
     49  CG         1.2240   -0.1290   46.2840 C.ar   92  HIS92       0.0817
     50  ND1        2.0290    0.9770   46.1070 N.ar   92  HIS92      -0.2268
     51  CD2        1.7370   -0.8050   47.3420 C.ar   92  HIS92       0.1154
     52  CE1        2.9880    0.9660   47.0140 C.ar   92  HIS92       0.1986
     53  NE2        2.8360   -0.1060   47.7780 N.ar   92  HIS92      -0.2212
     54  N          0.9270    4.2250   46.7840 N.3    94  ASN94      -0.1225
     55  CA         2.0490    5.0110   46.2930 C.3    94  ASN94       0.1785
     56  C          2.4020    4.6750   44.8420 C.2    94  ASN94       0.2597
     57  O          2.8700    5.5460   44.1020 O.2    94  ASN94      -0.2718
     58  CB         3.2490    4.8670   47.2120 C.3    94  ASN94       0.1169
     59  CG         3.1200    5.7460   48.4410 C.2    94  ASN94       0.2627
     60  OD1        2.3610    6.7150   48.4470 O.2    94  ASN94      -0.2716
     61  ND2        3.8670    5.4270   49.4700 N.am   94  ASN94      -0.0877
     62  N          2.1490    3.4560   44.3830 N.am   95  LEU95      -0.1980
     63  CA         2.3170    3.1830   42.9560 C.3    95  LEU95       0.1596
     64  C          1.3030    3.9840   42.1290 C.2    95  LEU95       0.2287
     65  O          1.6430    4.5330   41.1050 O.2    95  LEU95      -0.2864
     66  CB         2.1770    1.6810   42.6570 C.3    95  LEU95       0.0297
     67  CG         2.2700    1.3130   41.1680 C.3    95  LEU95       0.0022
     68  CD1        3.6020    1.7340   40.5490 C.3    95  LEU95       0.0001
     69  CD2        2.0580   -0.1850   40.9820 C.3    95  LEU95       0.0001
     70  N          2.5040    7.4980   41.9500 N.3    98  LEU98      -0.1245
     71  CA         3.6250    7.6160   41.0200 C.3    98  LEU98       0.1561
     72  C          3.1220    7.6070   39.5840 C.2    98  LEU98       0.2260
     73  O          3.5440    8.4120   38.7550 O.2    98  LEU98      -0.2867
     74  CB         4.6490    6.4910   41.2520 C.3    98  LEU98       0.0270
     75  CG         5.8130    6.4210   40.2610 C.3    98  LEU98       0.0019
     76  CD1        6.6790    7.6720   40.3290 C.3    98  LEU98       0.0001
     77  CD2        6.6450    5.1810   40.4920 C.3    98  LEU98       0.0001
@<TRIPOS>BOND
     1    40    39    2
     2    39    38    1
     3    38    37    1
     4    38    41    1
     5     8     6    1
     6     7     6    1
     7     6     5    1
     8    42    41    1
     9    41    43    1
    10    31    30    2
    11     5     2    1
    12    30    29    1
    13    27    26    1
    14     1     2    1
    15     2     3    1
    16    73    72    2
    17    25    24    2
    18    21    18    1
    19    18    17    1
    20    18    19    1
    21    72    71    1
    22    29    28    1
    23    29    32    1
    24    24    28   am
    25    24    23    1
    26    26    23    1
    27     3     4    2
    28     3     9   am
    29    22    23    1
    30    75    76    1
    31    75    77    1
    32    75    74    1
    33    32    33    1
    34    19    20    2
    35    68    67    1
    36     9    10    1
    37    69    67    1
    38    71    74    1
    39    71    70    1
    40    65    64    2
    41    67    66    1
    42    33    34    1
    43    64    63    1
    44    10    11    1
    45    10    13    1
    46    11    12    2
    47    34    35    1
    48    66    63    1
    49    63    62    1
    50    13    14    1
    51    14    15    1
    52    14    16    1
    53    35    36    1
    54    57    56    2
    55    62    56   am
    56    47    46    2
    57    56    55    1
    58    44    45    1
    59    48    45    1
    60    48    49    1
    61    46    45    1
    62    50    49   ar
    63    50    52   ar
    64    49    51   ar
    65    55    54    1
    66    55    58    1
    67    52    53   ar
    68    58    59    1
    69    51    53   ar
    70    59    60    2
    71    59    61   am
