@<TRIPOS>MOLECULE
tmp/4oeeA00.pdb
 80 75 0 0 0
SMALL
GASTEIGER

@<TRIPOS>ATOM
      1  N        -11.2580   -7.8840    5.7020 N.3    16  ASN16      -0.1240
      2  CA       -11.6380   -7.1080    4.5270 C.3    16  ASN16       0.1653
      3  C        -12.3440   -5.8050    4.8990 C.2    16  ASN16       0.2266
      4  O        -13.5560   -5.6930    4.7540 O.2    16  ASN16      -0.2867
      5  CB       -12.5640   -7.9590    3.6600 C.3    16  ASN16       0.1155
      6  CG       -12.5620   -7.5410    2.2130 C.2    16  ASN16       0.2627
      7  OD1      -11.5480   -7.0590    1.6950 O.2    16  ASN16      -0.2716
      8  ND2      -13.6830   -7.7620    1.5340 N.am   16  ASN16      -0.0877
      9  N        -17.9540   -7.8670    2.3800 N.3   108  LYS108     -0.1231
     10  CA       -17.3290   -7.0020    1.3850 C.3   108  LYS108      0.1693
     11  C        -16.7480   -5.7530    2.0420 C.2   108  LYS108      0.2592
     12  O        -17.0990   -5.4070    3.1760 O.2   108  LYS108     -0.2718
     13  CB       -18.3630   -6.5840    0.3440 C.3   108  LYS108      0.0285
     14  CG       -18.9760   -7.7650   -0.3640 C.3   108  LYS108      0.0035
     15  CD       -19.8000   -7.3680   -1.5780 C.3   108  LYS108      0.0206
     16  CE       -21.0810   -6.6820   -1.2100 C.3   108  LYS108      0.1093
     17  NZ       -21.8420   -6.3420   -2.4560 N.3   108  LYS108     -0.1314
     18  N        -15.8760   -5.0670    1.3120 N.am  109  ARG109     -0.1966
     19  CA       -15.3060   -3.7930    1.7630 C.3   109  ARG109      0.1729
     20  C        -16.3570   -2.6950    1.9440 C.2   109  ARG109      0.2616
     21  O        -16.0800   -1.6590    2.5560 O.2   109  ARG109     -0.2715
     22  CB       -14.2280   -3.3110    0.7810 C.3   109  ARG109      0.0348
     23  CG       -12.9500   -4.1410    0.7930 C.3   109  ARG109      0.0492
     24  CD       -12.0210   -3.7150    1.9200 C.3   109  ARG109      0.2205
     25  NE       -11.5290   -2.3560    1.7090 N.pl3 109  ARG109     -0.0865
     26  CZ       -10.4740   -2.0500    0.9580 C.cat 109  ARG109      0.5346
     27  NH1       -9.7920   -3.0060    0.3420 N.pl3 109  ARG109      0.1354
     28  NH2      -10.1010   -0.7850    0.8190 N.pl3 109  ARG109      0.1354
     29  N        -17.5550   -2.9250    1.4140 N.am  110  THR110     -0.1951
     30  CA       -18.6590   -1.9800    1.5610 C.3   110  THR110      0.1897
     31  C        -19.3490   -2.1340    2.9090 C.2   110  THR110      0.2313
     32  O        -20.1290   -1.2690    3.3030 O.2   110  THR110     -0.2863
     33  CB       -19.7270   -2.1900    0.4860 C.3   110  THR110      0.1794
     34  OG1      -20.2710   -3.5090    0.6270 O.3   110  THR110     -0.2208
     35  CG2      -19.1460   -2.0230   -0.9110 C.3   110  THR110      0.0378
     36  N        -20.9070  -10.6120    1.4550 N.3   114  LYS114     -0.1245
     37  CA       -20.6180  -11.0390    0.0900 C.3   114  LYS114      0.1561
     38  C        -21.3970  -12.3150   -0.1960 C.2   114  LYS114      0.2260
     39  O        -21.3590  -13.2550    0.5860 O.2   114  LYS114     -0.2867
     40  CB       -19.1140  -11.2850   -0.0750 C.3   114  LYS114      0.0271
     41  CG       -18.6220  -11.3470   -1.5230 C.3   114  LYS114      0.0035
     42  CD       -17.0990  -11.3110   -1.5560 C.3   114  LYS114      0.0206
     43  CE       -16.5880  -11.0710   -2.9670 C.3   114  LYS114      0.1093
     44  NZ       -15.1120  -10.9000   -2.9350 N.3   114  LYS114     -0.1314
     45  N        -19.9970  -15.9430   -4.5940 N.3   118  LYS118     -0.1245
     46  CA       -18.9120  -15.0680   -5.0380 C.3   118  LYS118      0.1561
     47  C        -17.6870  -15.1500   -4.1340 C.2   118  LYS118      0.2260
     48  O        -16.7430  -14.3720   -4.2970 O.2   118  LYS118     -0.2867
     49  CB       -19.3780  -13.6080   -5.1080 C.3   118  LYS118      0.0271
     50  CG       -20.4910  -13.3350   -6.1120 C.3   118  LYS118      0.0035
     51  CD       -20.7730  -11.8360   -6.2340 C.3   118  LYS118      0.0206
     52  CE       -21.9380  -11.5670   -7.1600 C.3   118  LYS118      0.1093
     53  NZ       -22.1330  -10.1030   -7.3690 N.3   118  LYS118     -0.1314
     54  N         -9.1750  -18.0100   -1.2050 N.3   122  GLY122     -0.1210
     55  CA        -8.0820  -17.0610   -1.1340 C.3   122  GLY122      0.1956
     56  C         -8.4970  -15.6060   -1.0030 C.2   122  GLY122      0.2612
     57  O         -7.6700  -14.7020   -1.1280 O.2   122  GLY122     -0.2717
     58  N         -9.7790  -15.3690   -0.7450 N.am  123  GLN123     -0.1965
     59  CA       -10.2670  -14.0020   -0.6010 C.3   123  GLN123      0.1733
     60  C        -10.0640  -13.4270    0.8020 C.2   123  GLN123      0.2616
     61  O        -10.1400  -14.1400    1.8110 O.2   123  GLN123     -0.2715
     62  CB       -11.7520  -13.9200   -0.9760 C.3   123  GLN123      0.0408
     63  CG       -12.0470  -14.2190   -2.4420 C.3   123  GLN123      0.0908
     64  CD       -13.5090  -14.0350   -2.7960 C.2   123  GLN123      0.2608
     65  OE1      -14.2870  -13.4740   -2.0160 O.2   123  GLN123     -0.2717
     66  NE2      -13.8920  -14.5110   -3.9750 N.am  123  GLN123     -0.0878
     67  N         -9.8400  -12.1220    0.8660 N.am  124  LYS124     -0.1963
     68  CA        -9.7350  -11.4370    2.1480 C.3   124  LYS124      0.1728
     69  C        -11.1070  -11.3980    2.8410 C.2   124  LYS124      0.2616
     70  O        -11.1980  -11.3790    4.0740 O.2   124  LYS124     -0.2715
     71  CB        -9.1740  -10.0220    1.9380 C.3   124  LYS124      0.0311
     72  CG        -8.7210   -9.3160    3.2010 C.3   124  LYS124      0.0038
     73  CD        -8.0780   -7.9600    2.9060 C.3   124  LYS124      0.0206
     74  CE        -6.6620   -8.1170    2.3730 C.3   124  LYS124      0.1093
     75  NZ        -5.9860   -6.8030    2.1680 N.3   124  LYS124     -0.1314
     76  N        -12.1700  -11.4240    2.0380 N.am  125  ALA125     -0.1977
     77  CA       -13.5360  -11.2860    2.5450 C.3   125  ALA125      0.1597
     78  C        -13.9600  -12.3850    3.5150 C.2   125  ALA125      0.2287
     79  O        -14.8750  -12.1870    4.3220 O.2   125  ALA125     -0.2864
     80  CB       -14.5210  -11.2020    1.3810 C.3   125  ALA125      0.0319
@<TRIPOS>BOND
     1    53    52    1
     2    52    51    1
     3    51    50    1
     4    50    49    1
     5    49    46    1
     6    46    45    1
     7    46    47    1
     8    48    47    2
     9    66    64   am
    10    43    44    1
    11    43    42    1
    12    64    63    1
    13    64    65    2
    14    17    16    1
    15    63    62    1
    16    15    16    1
    17    15    14    1
    18    42    41    1
    19    41    40    1
    20    54    55    1
    21    55    56    1
    22    57    56    2
    23    56    58   am
    24    62    59    1
    25    35    33    1
    26    58    59    1
    27    59    60    1
    28    14    13    1
    29    38    37    1
    30    38    39    2
    31    40    37    1
    32    37    36    1
    33    27    26    1
    34    13    10    1
    35    33    34    1
    36    33    30    1
    37    22    23    1
    38    22    19    1
    39    23    24    1
    40    60    67   am
    41    60    61    2
    42    28    26    1
    43    67    68    1
    44    26    25    2
    45    18    19    1
    46    18    11   am
    47    80    77    1
    48    10    11    1
    49    10     9    1
    50    29    30    1
    51    29    20   am
    52     8     6   am
    53    30    31    1
    54     7     6    2
    55    25    24    1
    56    19    20    1
    57    71    68    1
    58    71    72    1
    59    20    21    2
    60    76    77    1
    61    76    69   am
    62    11    12    2
    63    68    69    1
    64    75    74    1
    65     6     5    1
    66    74    73    1
    67    77    78    1
    68    69    70    2
    69    73    72    1
    70    31    32    2
    71    78    79    2
    72     5     2    1
    73     2     3    1
    74     2     1    1
    75     4     3    2
