@<TRIPOS>MOLECULE
tmp/4oehB00.pdb
 111 106 0 0 0
SMALL
GASTEIGER

@<TRIPOS>ATOM
      1  N        -25.5700   17.6090    3.6970 N.3    92  THR92      -0.1203
      2  CA       -26.5260   16.5150    3.6300 C.3    92  THR92       0.1994
      3  C        -25.7630   15.1960    3.6520 C.2    92  THR92       0.2619
      4  O        -24.5740   15.1430    3.3110 O.2    92  THR92      -0.2717
      5  CB       -27.3730   16.5860    2.3440 C.3    92  THR92       0.1784
      6  OG1      -26.5010   16.5970    1.2070 O.3    92  THR92      -0.2211
      7  CG2      -28.2430   17.8410    2.3360 C.3    92  THR92       0.0376
      8  N        -26.4530   14.1320    4.0440 N.am   93  THR93      -0.1938
      9  CA       -25.8300   12.8390    4.1970 C.3    93  THR93       0.2028
     10  C        -26.8710   11.7370    3.9540 C.2    93  THR93       0.2642
     11  O        -28.0750   11.9800    4.0740 O.2    93  THR93      -0.2714
     12  CB       -25.1940   12.7030    5.6000 C.3    93  THR93       0.1808
     13  OG1      -24.3810   11.5310    5.6430 O.3    93  THR93      -0.2208
     14  CG2      -26.2590   12.6230    6.7130 C.3    93  THR93       0.0379
     15  N        -26.3920   10.5480    3.5940 N.am   94  GLY94      -0.1954
     16  CA       -27.2260    9.3450    3.5300 C.3    94  GLY94       0.1869
     17  C        -26.9350    8.4000    4.6880 C.2    94  GLY94       0.2309
     18  O        -25.7890    8.0110    4.8940 O.2    94  GLY94      -0.2863
     19  N        -20.0120    9.8700   -5.2700 N.3   160  PHE160     -0.1241
     20  CA       -21.3750    9.7600   -4.7950 C.3   160  PHE160      0.1605
     21  C        -21.8980    8.3670   -5.0920 C.2   160  PHE160      0.2264
     22  O        -22.7260    7.8480   -4.3440 O.2   160  PHE160     -0.2867
     23  CB       -22.2700   10.8150   -5.4580 C.3   160  PHE160      0.0534
     24  CG       -23.6840   10.8340   -4.9320 C.ar  160  PHE160     -0.0203
     25  CD1      -24.0100   11.5540   -3.7830 C.ar  160  PHE160     -0.0042
     26  CD2      -24.6920   10.1440   -5.6000 C.ar  160  PHE160     -0.0042
     27  CE1      -25.3190   11.5850   -3.3110 C.ar  160  PHE160     -0.0003
     28  CE2      -26.0040   10.1670   -5.1290 C.ar  160  PHE160     -0.0003
     29  CZ       -26.3180   10.8830   -3.9840 C.ar  160  PHE160     -0.0000
     30  N        -20.0190    4.8370   -2.5450 N.3   164  GLN164     -0.1245
     31  CA       -21.1340    4.6860   -1.6180 C.3   164  GLN164      0.1566
     32  C        -21.9360    3.4390   -1.9960 C.2   164  GLN164      0.2260
     33  O        -23.0850    3.2680   -1.5810 O.2   164  GLN164     -0.2867
     34  CB       -21.9900    5.9480   -1.6200 C.3   164  GLN164      0.0367
     35  CG       -21.1740    7.1670   -1.2090 C.3   164  GLN164      0.0905
     36  CD       -21.9980    8.4180   -1.0000 C.2   164  GLN164      0.2608
     37  OE1      -23.1940    8.3590   -0.7150 O.2   164  GLN164     -0.2717
     38  NE2      -21.3420    9.5680   -1.1130 N.am  164  GLN164     -0.0878
     39  N        -23.4310    2.4500   -4.6960 N.3   166  ARG166     -0.1245
     40  CA       -24.6840    2.6010   -5.4320 C.3   166  ARG166      0.1563
     41  C        -24.6050    1.7500   -6.6940 C.2   166  ARG166      0.2260
     42  O        -23.5820    1.7640   -7.3750 O.2   166  ARG166     -0.2867
     43  CB       -24.9490    4.0690   -5.8010 C.3   166  ARG166      0.0307
     44  CG       -25.3360    4.9520   -4.6200 C.3   166  ARG166      0.0489
     45  CD       -25.8010    6.3280   -5.0690 C.3   166  ARG166      0.2205
     46  NE       -26.7380    6.9020   -4.1030 N.pl3 166  ARG166     -0.0865
     47  CZ       -26.3780    7.5620   -3.0080 C.cat 166  ARG166      0.5346
     48  NH1      -25.0940    7.7840   -2.7570 N.pl3 166  ARG166      0.1354
     49  NH2      -27.3100    8.0400   -2.1830 N.pl3 166  ARG166      0.1354
     50  N        -22.9550    8.1710    4.9740 N.3   193  PHE193     -0.1227
     51  CA       -22.0650    8.5120    3.8810 C.3   193  PHE193      0.1736
     52  C        -22.1430    9.9970    3.5740 C.2   193  PHE193      0.2595
     53  O        -23.2440   10.5640    3.4830 O.2   193  PHE193     -0.2718
     54  CB       -22.5070    7.8070    2.6050 C.3   193  PHE193      0.0547
     55  CG       -21.9950    6.4160    2.4490 C.ar  193  PHE193     -0.0202
     56  CD1      -20.6270    6.1480    2.4350 C.ar  193  PHE193     -0.0042
     57  CD2      -22.8850    5.3730    2.2180 C.ar  193  PHE193     -0.0042
     58  CE1      -20.1610    4.8580    2.2450 C.ar  193  PHE193     -0.0003
     59  CE2      -22.4220    4.0780    2.0290 C.ar  193  PHE193     -0.0003
     60  CZ       -21.0600    3.8170    2.0410 C.ar  193  PHE193     -0.0000
     61  N        -20.9880   10.6300    3.3980 N.am  194  GLU194     -0.1965
     62  CA       -20.9370   11.9130    2.6800 C.3   194  GLU194      0.1733
     63  C        -19.5910   12.0380    1.9630 C.2   194  GLU194      0.2616
     64  O        -18.9010   11.0380    1.7860 O.2   194  GLU194     -0.2715
     65  CB       -21.2810   13.1230    3.5790 C.3   194  GLU194      0.0429
     66  CG       -20.5010   13.2230    4.8790 C.3   194  GLU194      0.1163
     67  CD       -19.0670   13.6550    4.6650 C.2   194  GLU194      0.3649
     68  OE1      -18.1820   12.7700    4.6970 O.co2 194  GLU194     -0.2457
     69  OE2      -18.8280   14.8660    4.4400 O.co2 194  GLU194     -0.2457
     70  N        -19.2190   13.2430    1.5420 N.am  195  MET195     -0.1977
     71  CA       -18.1180   13.3810    0.5880 C.3   195  MET195      0.1605
     72  C        -16.9880   14.3540    0.9200 C.2   195  MET195      0.2287
     73  O        -16.0350   14.4580    0.1460 O.2   195  MET195     -0.2864
     74  CB       -18.6840   13.7130   -0.7970 C.3   195  MET195      0.0413
     75  CG       -19.5700   12.6210   -1.3820 C.3   195  MET195      0.0598
     76  SD       -20.2040   13.0420   -3.0130 S.3   195  MET195     -0.1393
     77  CE       -18.7480   12.9230   -4.0480 C.3   195  MET195      0.0692
     78  N        -30.8860   12.9620    4.5360 N.3   218  ILE218     -0.1231
     79  CA       -31.8700   13.1890    3.4770 C.3   218  ILE218      0.1692
     80  C        -32.3190   11.8850    2.8320 C.2   218  ILE218      0.2591
     81  O        -33.2180   11.8650    1.9880 O.2   218  ILE218     -0.2718
     82  CB       -31.3590   14.1950    2.4170 C.3   218  ILE218      0.0266
     83  CG1      -30.1290   13.6460    1.6640 C.3   218  ILE218      0.0019
     84  CG2      -31.0730   15.5450    3.0690 C.3   218  ILE218      0.0020
     85  CD1      -29.8580   14.3550    0.3480 C.3   218  ILE218      0.0001
     86  N        -31.6980   10.7940    3.2530 N.am  219  ILE219     -0.1980
     87  CA       -31.9980    9.4810    2.7130 C.3   219  ILE219      0.1595
     88  C        -31.4680    8.4010    3.6570 C.2   219  ILE219      0.2287
     89  O        -30.4460    8.5900    4.3230 O.2   219  ILE219     -0.2864
     90  CB       -31.4250    9.3080    1.2780 C.3   219  ILE219      0.0276
     91  CG1      -31.9220    8.0040    0.6340 C.3   219  ILE219      0.0022
     92  CG2      -29.9000    9.3920    1.2670 C.3   219  ILE219      0.0022
     93  CD1      -31.4120    7.8000   -0.7770 C.3   219  ILE219      0.0001
     94  N        -30.3360    4.4900    3.2340 N.3   221  ARG221     -0.1245
     95  CA       -29.9380    3.5680    2.1760 C.3   221  ARG221      0.1563
     96  C        -30.4820    2.1530    2.3410 C.2   221  ARG221      0.2260
     97  O        -30.3390    1.3240    1.4380 O.2   221  ARG221     -0.2867
     98  CB       -28.4080    3.5460    2.0380 C.3   221  ARG221      0.0307
     99  CG       -27.8200    4.8210    1.4380 C.3   221  ARG221      0.0489
    100  CD       -28.1110    4.9460   -0.0590 C.3   221  ARG221      0.2205
    101  NE       -27.6030    3.8010   -0.8150 N.pl3 221  ARG221     -0.0865
    102  CZ       -26.3200    3.6100   -1.1160 C.cat 221  ARG221      0.5346
    103  NH1      -25.9530    2.5250   -1.7900 N.pl3 221  ARG221      0.1354
    104  NH2      -25.3980    4.4930   -0.7270 N.pl3 221  ARG221      0.1354
    105  N        -32.1690   10.2020   -3.2450 N.3   227  PRO227     -0.2116
    106  CA       -32.9640   10.9730   -2.2730 C.3   227  PRO227      0.1372
    107  C        -34.1490   11.7020   -2.8970 C.2   227  PRO227      0.2244
    108  O        -34.0390   12.2160   -4.0140 O.2   227  PRO227     -0.2868
    109  CB       -31.9610   12.0020   -1.7160 C.3   227  PRO227      0.0268
    110  CG       -30.6110   11.5040   -2.1040 C.3   227  PRO227      0.0207
    111  CD       -30.8020   10.7380   -3.3790 C.3   227  PRO227      0.0892
@<TRIPOS>BOND
     1    42    41    2
     2    41    40    1
     3    43    40    1
     4    43    44    1
     5    26    28   ar
     6    26    24   ar
     7    23    24    1
     8    23    20    1
     9    40    39    1
    10    19    20    1
    11    28    29   ar
    12    21    20    1
    13    21    22    2
    14    45    44    1
    15    45    46    1
    16    24    25   ar
    17    46    47    2
    18    77    76    1
    19   108   107    2
    20    29    27   ar
    21    25    27   ar
    22   111   105    1
    23   111   110    1
    24   105   106    1
    25    76    75    1
    26    47    48    1
    27    47    49    1
    28   107   106    1
    29    30    31    1
    30   106   109    1
    31   110   109    1
    32    32    31    1
    33    32    33    2
    34   103   102    1
    35    34    31    1
    36    34    35    1
    37    75    74    1
    38    35    36    1
    39   102   101    2
    40   102   104    1
    41    38    36   am
    42    36    37    2
    43   101   100    1
    44    74    71    1
    45    93    91    1
    46   100    99    1
    47    73    72    2
    48    85    83    1
    49    71    72    1
    50    71    70    1
    51    91    90    1
    52     6     5    1
    53    92    90    1
    54    90    87    1
    55    97    96    2
    56    99    98    1
    57    70    63   am
    58    83    82    1
    59    64    63    2
    60    63    62    1
    61    81    80    2
    62    59    60   ar
    63    59    57   ar
    64    98    95    1
    65    60    58   ar
    66    95    96    1
    67    95    94    1
    68    57    55   ar
    69    58    56   ar
    70     7     5    1
    71     5     2    1
    72    82    84    1
    73    82    79    1
    74    56    55   ar
    75    55    54    1
    76    54    51    1
    77    62    61    1
    78    62    65    1
    79    87    86    1
    80    87    88    1
    81    80    86   am
    82    80    79    1
    83     4     3    2
    84    61    52   am
    85    79    78    1
    86    53    52    2
    87    16    15    1
    88    16    17    1
    89    52    51    1
    90    65    66    1
    91    15    10   am
    92     2     3    1
    93     2     1    1
    94     3     8   am
    95    88    89    2
    96    51    50    1
    97    10    11    2
    98    10     9    1
    99     8     9    1
   100     9    12    1
   101    69    67   ar
   102    67    68   ar
   103    67    66    1
   104    17    18    2
   105    12    13    1
   106    12    14    1
