@<TRIPOS>MOLECULE
tmp/4oekA03.pdb
 106 104 0 0 0
SMALL
GASTEIGER

@<TRIPOS>ATOM
      1  N          9.9860    1.8830   18.7050 N.3   105  GLN105     -0.1245
      2  CA         9.0600    2.0180   19.8420 C.3   105  GLN105      0.1566
      3  C          7.6700    1.5500   19.4100 C.2   105  GLN105      0.2260
      4  O          6.9860    0.8040   20.1210 O.2   105  GLN105     -0.2867
      5  CB         9.0360    3.4450   20.4080 C.3   105  GLN105      0.0367
      6  CG         8.3490    3.5220   21.7660 C.3   105  GLN105      0.0905
      7  CD         8.1470    4.9210   22.2670 C.2   105  GLN105      0.2608
      8  OE1        8.2270    5.9010   21.5240 O.2   105  GLN105     -0.2717
      9  NE2        7.8780    5.0270   23.5390 N.am  105  GLN105     -0.0878
     10  N          5.6270   -1.6430   20.6360 N.3   109  HIS109     -0.1241
     11  CA         4.2970   -1.5010   21.2480 C.3   109  HIS109      0.1621
     12  C          3.2610   -2.3680   20.6310 C.2   109  HIS109      0.2264
     13  O          2.3300   -2.7460   21.2820 O.2   109  HIS109     -0.2867
     14  CB         3.9010   -0.0520   21.3110 C.3   109  HIS109      0.0745
     15  CG         4.7050    0.7180   22.3360 C.ar  109  HIS109      0.0817
     16  ND1        4.3880    1.9590   22.7270 N.ar  109  HIS109     -0.2268
     17  CD2        5.8170    0.3360   23.0950 C.ar  109  HIS109      0.1154
     18  CE1        5.2550    2.3680   23.6740 C.ar  109  HIS109      0.1986
     19  NE2        6.1330    1.3730   23.8980 N.ar  109  HIS109     -0.2212
     20  N          3.3880   -5.7780   25.9280 N.3   113  PHE113     -0.1241
     21  CA         3.0500   -4.8980   27.0580 C.3   113  PHE113      0.1605
     22  C          2.7750   -5.7590   28.2890 C.2   113  PHE113      0.2264
     23  O          1.8390   -6.5290   28.3210 O.2   113  PHE113     -0.2867
     24  CB         1.8370   -4.0080   26.7520 C.3   113  PHE113      0.0534
     25  CG         1.5720   -2.9320   27.7890 C.ar  113  PHE113     -0.0203
     26  CD1        2.5790   -2.0910   28.2380 C.ar  113  PHE113     -0.0042
     27  CD2        0.2970   -2.7490   28.3050 C.ar  113  PHE113     -0.0042
     28  CE1        2.3260   -1.1050   29.1860 C.ar  113  PHE113     -0.0003
     29  CE2        0.0340   -1.7580   29.2460 C.ar  113  PHE113     -0.0003
     30  CZ         1.0510   -0.9310   29.6850 C.ar  113  PHE113     -0.0000
     31  N         -0.1860    3.3330   25.6470 N.3   254  ARG254     -0.1245
     32  CA         1.0380    4.1150   25.8800 C.3   254  ARG254      0.1563
     33  C          1.2610    5.1740   24.7960 C.2   254  ARG254      0.2260
     34  O          2.2450    5.8730   24.8170 O.2   254  ARG254     -0.2867
     35  CB         2.2620    3.1980   25.9290 C.3   254  ARG254      0.0307
     36  CG         2.2150    2.0920   26.9850 C.3   254  ARG254      0.0489
     37  CD         3.1890    0.9480   26.6680 C.3   254  ARG254      0.2205
     38  NE         2.7050    0.0640   25.6040 N.pl3 254  ARG254     -0.0865
     39  CZ         3.3170   -1.0370   25.1820 C.cat 254  ARG254      0.5346
     40  NH1        4.4600   -1.4590   25.7240 N.pl3 254  ARG254      0.1354
     41  NH2        2.7690   -1.7420   24.2200 N.pl3 254  ARG254      0.1354
     42  N          2.7330    8.5010   25.3730 N.3   257  GLU257     -0.1245
     43  CA         3.9040    8.4790   26.2570 C.3   257  GLU257      0.1567
     44  C          4.9600    9.5280   25.9060 C.2   257  GLU257      0.2260
     45  O          5.5160   10.1700   26.7700 O.2   257  GLU257     -0.2867
     46  CB         4.5480    7.1170   26.2490 C.3   257  GLU257      0.0388
     47  CG         5.6620    7.0170   27.2760 C.3   257  GLU257      0.1160
     48  CD         7.0360    7.3460   26.7740 C.2   257  GLU257      0.3649
     49  OE1        7.2960    7.3370   25.5690 O.co2 257  GLU257     -0.2457
     50  OE2        7.9080    7.5630   27.6210 O.co2 257  GLU257     -0.2457
     51  N         15.9270    2.2870   24.1900 N.3   350  HIS350     -0.1241
     52  CA        16.0970    3.3450   25.2230 C.3   350  HIS350      0.1621
     53  C         17.3850    4.1400   25.0700 C.2   350  HIS350      0.2264
     54  O         17.4860    5.2970   25.4700 O.2   350  HIS350     -0.2867
     55  CB        15.9830    2.7730   26.6330 C.3   350  HIS350      0.0745
     56  CG        14.6400    2.2180   26.9300 C.ar  350  HIS350      0.0817
     57  ND1       14.3880    1.4770   28.0220 N.ar  350  HIS350     -0.2268
     58  CD2       13.4390    2.3100   26.2220 C.ar  350  HIS350      0.1154
     59  CE1       13.0900    1.1350   28.0220 C.ar  350  HIS350      0.1986
     60  NE2       12.5190    1.6340   26.9120 N.ar  350  HIS350     -0.2212
     61  N          3.9300   12.5230   27.8240 N.3   380  PHE380     -0.1241
     62  CA         2.4890   12.7640   27.9420 C.3   380  PHE380      0.1605
     63  C          2.1000   14.2090   27.6010 C.2   380  PHE380      0.2264
     64  O          1.2940   14.8480   28.2580 O.2   380  PHE380     -0.2867
     65  CB         2.0720   12.3540   29.3260 C.3   380  PHE380      0.0534
     66  CG         2.3810   10.9230   29.6010 C.ar  380  PHE380     -0.0203
     67  CD1        3.4880   10.5770   30.3320 C.ar  380  PHE380     -0.0042
     68  CD2        1.5960    9.9190   29.0440 C.ar  380  PHE380     -0.0042
     69  CE1        3.7760    9.2490   30.5660 C.ar  380  PHE380     -0.0003
     70  CE2        1.8750    8.5900   29.2700 C.ar  380  PHE380     -0.0003
     71  CZ         2.9640    8.2560   30.0410 C.ar  380  PHE380     -0.0000
     72  N         12.2410   11.1760   33.7420 N.3   420  LEU420     -0.1231
     73  CA        11.0530   10.4140   33.3190 C.3   420  LEU420      0.1693
     74  C          9.8520   10.8170   34.1740 C.2   420  LEU420      0.2592
     75  O          9.9270   10.9140   35.3920 O.2   420  LEU420     -0.2718
     76  CB        11.2670    8.8940   33.4080 C.3   420  LEU420      0.0284
     77  CG        10.1130    8.0110   32.9050 C.3   420  LEU420      0.0019
     78  CD1        9.8680    8.1910   31.4100 C.3   420  LEU420      0.0001
     79  CD2       10.3930    6.5470   33.2160 C.3   420  LEU420      0.0001
     80  N          8.7600   11.0870   33.5040 N.am  421  PHE421     -0.1962
     81  CA         7.5050   11.3320   34.1980 C.3   421  PHE421      0.1771
     82  C          6.7230   10.0580   34.0650 C.2   421  PHE421      0.2619
     83  O          6.5860    9.5490   32.9600 O.2   421  PHE421     -0.2715
     84  CB         6.7020   12.4670   33.5640 C.3   421  PHE421      0.0574
     85  CG         5.3520   12.6910   34.2010 C.ar  421  PHE421     -0.0200
     86  CD1        5.1900   13.6020   35.2440 C.ar  421  PHE421     -0.0042
     87  CD2        4.2360   12.0070   33.7390 C.ar  421  PHE421     -0.0042
     88  CE1        3.9420   13.8090   35.8170 C.ar  421  PHE421     -0.0003
     89  CE2        2.9890   12.1930   34.3110 C.ar  421  PHE421     -0.0003
     90  CZ         2.8410   13.0960   35.3500 C.ar  421  PHE421     -0.0000
     91  N          6.2230    9.5630   35.1810 N.am  422  GLN422     -0.1964
     92  CA         5.2340    8.4700   35.1580 C.3   422  GLN422      0.1718
     93  C          3.8600    8.9400   35.6120 C.2   422  GLN422      0.2458
     94  O          3.7500    9.7270   36.5590 O.2   422  GLN422     -0.2730
     95  CB         5.7040    7.2940   35.9890 C.3   422  GLN422      0.0407
     96  CG         7.0620    6.7980   35.5180 C.3   422  GLN422      0.0908
     97  CD         7.1350    5.2930   35.3520 C.2   422  GLN422      0.2608
     98  OE1        7.3900    4.5600   36.3120 O.2   422  GLN422     -0.2717
     99  NE2        6.9420    4.8270   34.1210 N.am  422  GLN422     -0.0878
    100  N          2.8000    8.4780   34.9300 N.am  423  PRO423     -0.2727
    101  CA         1.4440    8.8030   35.3650 C.3   423  PRO423      0.1402
    102  C          1.1410    8.3380   36.7970 C.2   423  PRO423      0.2269
    103  O          1.8090    7.4660   37.3300 O.2   423  PRO423     -0.2865
    104  CB         0.5690    8.0660   34.3530 C.3   423  PRO423      0.0296
    105  CG         1.4420    7.8590   33.1600 C.3   423  PRO423      0.0237
    106  CD         2.7950    7.6180   33.7380 C.3   423  PRO423      0.0939
@<TRIPOS>BOND
     1     1     2    1
     2     3     2    1
     3     3     4    2
     4     2     5    1
     5     5     6    1
     6    12    11    1
     7    12    13    2
     8    10    11    1
     9    11    14    1
    10    14    15    1
    11     8     7    2
    12     6     7    1
    13     7     9   am
    14    15    16   ar
    15    15    17   ar
    16    16    18   ar
    17    17    19   ar
    18    18    19   ar
    19    51    52    1
    20    41    39    1
    21    33    34    2
    22    33    32    1
    23    53    52    1
    24    53    54    2
    25    39    38    2
    26    39    40    1
    27    52    55    1
    28    42    43    1
    29    49    48   ar
    30    38    37    1
    31    31    32    1
    32    32    35    1
    33    44    43    1
    34    44    45    2
    35    20    21    1
    36    35    36    1
    37    58    60   ar
    38    58    56   ar
    39    46    43    1
    40    46    47    1
    41    55    56    1
    42    37    36    1
    43    24    21    1
    44    24    25    1
    45    48    47    1
    46    48    50   ar
    47    60    59   ar
    48    56    57   ar
    49    21    22    1
    50    63    62    1
    51    63    64    2
    52    25    26   ar
    53    25    27   ar
    54    61    62    1
    55    62    65    1
    56    57    59   ar
    57    26    28   ar
    58    22    23    2
    59    27    29   ar
    60    68    70   ar
    61    68    66   ar
    62    28    30   ar
    63    29    30   ar
    64    70    71   ar
    65    65    66    1
    66    66    67   ar
    67    71    69   ar
    68    67    69   ar
    69    78    77    1
    70    77    79    1
    71    77    76    1
    72    83    82    2
    73   105   106    1
    74   105   104    1
    75    73    76    1
    76    73    72    1
    77    73    74    1
    78    80    74   am
    79    80    81    1
    80    84    81    1
    81    84    85    1
    82   106   100    1
    83    87    85   ar
    84    87    89   ar
    85    82    81    1
    86    82    91   am
    87    99    97   am
    88    74    75    2
    89    85    86   ar
    90    89    90   ar
    91   104   101    1
    92   100   101    1
    93   100    93   am
    94    92    91    1
    95    92    93    1
    96    92    95    1
    97    86    88   ar
    98    90    88   ar
    99    97    96    1
   100    97    98    2
   101   101   102    1
   102    96    95    1
   103    93    94    2
   104   102   103    2
