@<TRIPOS>MOLECULE
tmp/4oeoA00.pdb
 89 85 0 0 0
SMALL
GASTEIGER

@<TRIPOS>ATOM
      1  N        -23.4420   15.4030    1.4400 N.3     3  TRP3       -0.1241
      2  CA       -23.0940   16.4530    2.3800 C.3     3  TRP3        0.1605
      3  C        -24.3070   17.3030    2.5360 C.2     3  TRP3        0.2264
      4  O        -24.8010   17.8280    1.5570 O.2     3  TRP3       -0.2867
      5  CB       -21.9680   17.3410    1.8600 C.3     3  TRP3        0.0550
      6  CG       -20.6740   16.6520    1.6680 C.ar    3  TRP3        0.0003
      7  CD1      -20.1990   16.0810    0.5180 C.ar    3  TRP3        0.0946
      8  CD2      -19.6620   16.4840    2.6520 C.ar    3  TRP3        0.0152
      9  NE1      -18.9460   15.5620    0.7360 N.ar    3  TRP3       -0.2442
     10  CE2      -18.5970   15.7950    2.0430 C.ar    3  TRP3        0.0810
     11  CE3      -19.5500   16.8550    3.9970 C.ar    3  TRP3        0.0012
     12  CZ2      -17.4440   15.4720    2.7300 C.ar    3  TRP3        0.0191
     13  CZ3      -18.3940   16.5330    4.6780 C.ar    3  TRP3        0.0001
     14  CH2      -17.3590   15.8500    4.0490 C.ar    3  TRP3        0.0015
     15  N         -6.4510   12.0510    6.6580 N.3    33  SER33      -0.1202
     16  CA        -6.3670   12.3190    5.2160 C.3    33  SER33       0.2020
     17  C         -5.6730   13.6260    4.8230 C.2    33  SER33       0.2619
     18  O         -5.4990   13.8600    3.6380 O.2    33  SER33      -0.2717
     19  CB        -7.7530   12.3750    4.5980 C.3    33  SER33       0.2103
     20  OG        -8.3860   13.6130    4.9190 O.3    33  SER33      -0.2182
     21  N         -5.3590   14.4990    5.7870 N.am   34  GLY34      -0.1942
     22  CA        -4.7850   15.8370    5.5010 C.3    34  GLY34       0.2014
     23  C         -5.7860   16.9080    5.0660 C.2    34  GLY34       0.2638
     24  O         -5.4110   18.0460    4.8320 O.2    34  GLY34      -0.2714
     25  N         -7.0640   16.5570    4.9470 N.am   35  GLU35      -0.1977
     26  CA        -8.1150   17.5610    4.7210 C.3    35  GLU35       0.1602
     27  C         -7.8940   18.7180    5.7090 C.2    35  GLU35       0.2287
     28  O         -7.7240   18.4850    6.8960 O.2    35  GLU35      -0.2864
     29  CB        -9.5230   16.9580    4.9140 C.3    35  GLU35       0.0415
     30  CG       -10.6470   17.9930    4.9640 C.3    35  GLU35       0.1163
     31  CD       -12.0220   17.4170    5.2910 C.2    35  GLU35       0.3649
     32  OE1      -12.1230   16.1880    5.4720 O.co2  35  GLU35      -0.2457
     33  OE2      -13.0070   18.1980    5.3560 O.co2  35  GLU35      -0.2457
     34  N        -10.0210   21.3830    6.4140 N.3    37  SER37      -0.1217
     35  CA       -11.2760   22.0370    6.7230 C.3    37  SER37       0.1889
     36  C        -11.2750   22.4250    8.1930 C.2    37  SER37       0.2288
     37  O        -10.8000   21.6690    9.0270 O.2    37  SER37      -0.2866
     38  CB       -12.4720   21.0520    6.5130 C.3    37  SER37       0.2089
     39  OG       -12.5480   20.5260    5.1920 O.3    37  SER37      -0.2183
     40  N        -18.2480   20.3120    9.3650 N.3    58  ARG58      -0.1231
     41  CA       -17.2500   21.0960    8.6540 C.3    58  ARG58       0.1694
     42  C        -17.7210   22.4980    8.4980 C.2    58  ARG58       0.2592
     43  O        -18.8440   22.7150    8.0720 O.2    58  ARG58      -0.2718
     44  CB       -16.9790   20.5160    7.2600 C.3    58  ARG58       0.0321
     45  CG       -15.8120   19.5540    7.2140 C.3    58  ARG58       0.0489
     46  CD       -16.1200   18.2030    7.7750 C.3    58  ARG58       0.2205
     47  NE       -15.2920   17.1660    7.1400 N.pl3  58  ARG58      -0.0865
     48  CZ       -15.2300   15.9050    7.5540 C.cat  58  ARG58       0.5346
     49  NH1      -15.9360   15.5050    8.6100 N.pl3  58  ARG58       0.1354
     50  NH2      -14.4460   15.0430    6.9300 N.pl3  58  ARG58       0.1354
     51  N        -16.8620   23.4660    8.8160 N.am   59  VAL59      -0.1966
     52  CA       -17.2620   24.8810    8.7370 C.3    59  VAL59       0.1727
     53  C        -16.8340   25.4890    7.4220 C.2    59  VAL59       0.2616
     54  O        -15.6350   25.6130    7.1300 O.2    59  VAL59      -0.2715
     55  CB       -16.6820   25.7010    9.9100 C.3    59  VAL59       0.0290
     56  CG1      -17.1980   27.1220    9.8480 C.3    59  VAL59       0.0023
     57  CG2      -17.0320   25.0400   11.2270 C.3    59  VAL59       0.0023
     58  N        -17.8150   25.8650    6.6140 N.am   60  ALA60      -0.1977
     59  CA       -17.5670   26.4140    5.2820 C.3    60  ALA60       0.1597
     60  C        -17.4170   27.9270    5.3270 C.2    60  ALA60       0.2287
     61  O        -16.6600   28.5050    4.5540 O.2    60  ALA60      -0.2864
     62  CB       -18.7250   26.0230    4.3670 C.3    60  ALA60       0.0319
     63  N        -14.1310   29.7390    4.8810 N.3    67  MET67      -0.1230
     64  CA       -13.1070   29.0640    5.6710 C.3    67  MET67       0.1702
     65  C        -12.3600   28.0460    4.8160 C.2    67  MET67       0.2592
     66  O        -11.7970   27.0680    5.3520 O.2    67  MET67      -0.2718
     67  CB       -13.7530   28.3800    6.8850 C.3    67  MET67       0.0401
     68  CG       -14.4220   29.3780    7.8260 C.3    67  MET67       0.0596
     69  SD       -13.2310   30.4370    8.6590 S.3    67  MET67      -0.1393
     70  CE       -13.7730   32.0630    8.1380 C.3    67  MET67       0.0692
     71  N        -12.3560   28.2650    3.4920 N.am   68  ASP68      -0.1974
     72  CA       -11.7320   27.3140    2.5860 C.3    68  ASP68       0.1709
     73  C        -10.2180   27.4250    2.7300 C.2    68  ASP68       0.2293
     74  O         -9.6360   28.4710    2.4280 O.2    68  ASP68      -0.2864
     75  CB       -12.1480   27.5450    1.1120 C.3    68  ASP68       0.1436
     76  CG       -11.7070   26.4080    0.1710 C.2    68  ASP68       0.3671
     77  OD1      -11.1180   25.4110    0.6440 O.co2  68  ASP68      -0.2456
     78  OD2      -11.9610   26.5000   -1.0540 O.co2  68  ASP68      -0.2456
     79  N        -21.2410   21.8190    6.9650 N.3    91  ARG91      -0.1245
     80  CA       -21.5410   20.7040    6.1170 C.3    91  ARG91       0.1563
     81  C        -21.2930   19.4350    6.8730 C.2    91  ARG91       0.2260
     82  O        -20.2560   19.2520    7.5390 O.2    91  ARG91      -0.2867
     83  CB       -20.7480   20.7440    4.8260 C.3    91  ARG91       0.0307
     84  CG       -20.8730   22.0730    4.1090 C.3    91  ARG91       0.0489
     85  CD       -20.0430   22.0600    2.8470 C.3    91  ARG91       0.2205
     86  NE       -20.2230   23.2560    2.0400 N.pl3  91  ARG91      -0.0865
     87  CZ       -19.2690   23.8700    1.3490 C.cat  91  ARG91       0.5346
     88  NH1      -18.0260   23.4300    1.3670 N.pl3  91  ARG91       0.1354
     89  NH2      -19.5670   24.9400    0.6400 N.pl3  91  ARG91       0.1354
@<TRIPOS>BOND
     1    78    76   ar
     2    76    77   ar
     3    76    75    1
     4     7     9   ar
     5     7     6   ar
     6    89    87    1
     7     9    10   ar
     8    75    72    1
     9    87    88    1
    10    87    86    2
    11     1     2    1
    12     4     3    2
    13     6     5    1
    14     6     8   ar
    15     5     2    1
    16    86    85    1
    17    10     8   ar
    18    10    12   ar
    19     2     3    1
    20    74    73    2
    21    72    73    1
    22    72    71    1
    23     8    11   ar
    24    12    14   ar
    25    85    84    1
    26    71    65   am
    27    18    17    2
    28    11    13   ar
    29    14    13   ar
    30    84    83    1
    31    62    59    1
    32    61    60    2
    33    19    20    1
    34    19    16    1
    35    26    29    1
    36    26    25    1
    37    26    27    1
    38    65    66    2
    39    65    64    1
    40    17    16    1
    41    17    21   am
    42    83    80    1
    43    24    23    2
    44    63    64    1
    45    29    30    1
    46    25    23   am
    47    30    31    1
    48    23    22    1
    49    39    38    1
    50    16    15    1
    51    59    60    1
    52    59    58    1
    53    31    33   ar
    54    31    32   ar
    55    22    21    1
    56    64    67    1
    57    27    28    2
    58    80    81    1
    59    80    79    1
    60    34    35    1
    61    38    35    1
    62    58    53   am
    63    35    36    1
    64    81    82    2
    65    67    68    1
    66    50    48    1
    67    54    53    2
    68    47    48    2
    69    47    46    1
    70    45    44    1
    71    45    46    1
    72    44    41    1
    73    53    52    1
    74    48    49    1
    75    68    69    1
    76    43    42    2
    77    70    69    1
    78    36    37    2
    79    42    41    1
    80    42    51   am
    81    41    40    1
    82    52    51    1
    83    52    55    1
    84    56    55    1
    85    55    57    1
