@<TRIPOS>MOLECULE
tmp/4oeoC00.pdb
 97 93 0 0 0
SMALL
GASTEIGER

@<TRIPOS>ATOM
      1  N          1.5670   58.5860   -1.4420 N.3     3  TRP3       -0.1241
      2  CA         0.8190   57.7440   -2.3640 C.3     3  TRP3        0.1605
      3  C         -0.5180   58.3940   -2.5290 C.2     3  TRP3        0.2264
      4  O         -1.1880   58.6610   -1.5460 O.2     3  TRP3       -0.2867
      5  CB         0.6020   56.3350   -1.8150 C.3     3  TRP3        0.0550
      6  CG         1.8500   55.5710   -1.5840 C.ar    3  TRP3        0.0003
      7  CD1        2.5430   55.4680   -0.4160 C.ar    3  TRP3        0.0946
      8  CD2        2.5570   54.7850   -2.5420 C.ar    3  TRP3        0.0152
      9  NE1        3.6440   54.6670   -0.5880 N.ar    3  TRP3       -0.2442
     10  CE2        3.6740   54.2350   -1.8870 C.ar    3  TRP3        0.0810
     11  CE3        2.3500   54.4860   -3.8880 C.ar    3  TRP3        0.0012
     12  CZ2        4.5810   53.4200   -2.5330 C.ar    3  TRP3        0.0191
     13  CZ3        3.2550   53.6610   -4.5310 C.ar    3  TRP3        0.0001
     14  CH2        4.3530   53.1380   -3.8550 C.ar    3  TRP3        0.0015
     15  N         12.9200   45.6190   -6.4850 N.3    33  SER33      -0.1202
     16  CA        12.7370   45.4060   -5.0500 C.3    33  SER33       0.2020
     17  C         12.0400   44.0670   -4.7290 C.2    33  SER33       0.2619
     18  O         12.0310   43.6530   -3.5690 O.2    33  SER33      -0.2717
     19  CB        11.8900   46.5120   -4.4700 C.3    33  SER33       0.2103
     20  OG        10.5950   46.3940   -5.0270 O.3    33  SER33      -0.2182
     21  N         11.4160   43.4340   -5.7300 N.am   34  GLY34      -0.1942
     22  CA        10.5410   42.2580   -5.5170 C.3    34  GLY34       0.2014
     23  C          9.1080   42.5990   -5.0980 C.2    34  GLY34       0.2638
     24  O          8.3180   41.7020   -4.8530 O.2    34  GLY34      -0.2714
     25  N          8.7560   43.8850   -5.0270 N.am   35  GLU35      -0.1977
     26  CA         7.3540   44.2880   -4.7910 C.3    35  GLU35       0.1602
     27  C          6.4170   43.5030   -5.7560 C.2    35  GLU35       0.2287
     28  O          6.6650   43.4460   -6.9600 O.2    35  GLU35      -0.2864
     29  CB         7.1620   45.8080   -5.0140 C.3    35  GLU35       0.0415
     30  CG         5.7430   46.3150   -4.6940 C.3    35  GLU35       0.1163
     31  CD         5.4630   47.7150   -5.2240 C.2    35  GLU35       0.3649
     32  OE1        6.4360   48.3980   -5.5870 O.co2  35  GLU35      -0.2457
     33  OE2        4.2820   48.1300   -5.2820 O.co2  35  GLU35      -0.2457
     34  N          3.0900   44.0120   -6.3570 N.3    37  SER37      -0.1217
     35  CA         1.9090   44.7780   -6.7010 C.3    37  SER37       0.1889
     36  C          1.5630   44.5610   -8.1680 C.2    37  SER37       0.2288
     37  O          2.4470   44.4960   -9.0280 O.2    37  SER37      -0.2866
     38  CB         2.2290   46.2730   -6.4960 C.3    37  SER37       0.2089
     39  OG         2.4840   46.5900   -5.1320 O.3    37  SER37      -0.2183
     40  N         -0.0520   51.5780   -9.3950 N.3    58  ARG58      -0.1231
     41  CA        -0.2490   50.3390   -8.6710 C.3    58  ARG58       0.1694
     42  C         -1.7210   50.0680   -8.5370 C.2    58  ARG58       0.2592
     43  O         -2.4760   50.9480   -8.1320 O.2    58  ARG58      -0.2718
     44  CB         0.3630   50.4180   -7.2760 C.3    58  ARG58       0.0321
     45  CG         1.7730   49.9020   -7.1780 C.3    58  ARG58       0.0489
     46  CD         2.7440   50.8720   -7.7340 C.3    58  ARG58       0.2205
     47  NE         4.0960   50.6120   -7.2210 N.pl3  58  ARG58      -0.0865
     48  CZ         5.1820   51.2420   -7.6600 C.cat  58  ARG58       0.5346
     49  NH1        5.0880   52.1710   -8.6100 N.pl3  58  ARG58       0.1354
     50  NH2        6.3700   50.9270   -7.1700 N.pl3  58  ARG58       0.1354
     51  N         -2.1370   48.8490   -8.8580 N.am   59  VAL59      -0.1966
     52  CA        -3.5650   48.5040   -8.8000 C.3    59  VAL59       0.1727
     53  C         -3.9090   47.8400   -7.4690 C.2    59  VAL59       0.2616
     54  O         -3.3970   46.7760   -7.1580 O.2    59  VAL59      -0.2715
     55  CB        -3.9750   47.6130   -9.9830 C.3    59  VAL59       0.0290
     56  CG1       -5.4590   47.2930   -9.8820 C.3    59  VAL59       0.0023
     57  CG2       -3.6300   48.2840  -11.3100 C.3    59  VAL59       0.0023
     58  N         -4.7670   48.4760   -6.6760 N.am   60  ALA60      -0.1977
     59  CA        -5.1090   47.9800   -5.3420 C.3    60  ALA60       0.1597
     60  C         -6.3450   47.0890   -5.3490 C.2    60  ALA60       0.2287
     61  O         -6.4440   46.1180   -4.5830 O.2    60  ALA60      -0.2864
     62  CB        -5.3030   49.1600   -4.3960 C.3    60  ALA60       0.0319
     63  N         -6.2750   43.3040   -4.8760 N.3    67  MET67      -0.1230
     64  CA        -5.1670   42.7700   -5.6810 C.3    67  MET67       0.1702
     65  C         -3.8880   42.6890   -4.8330 C.2    67  MET67       0.2592
     66  O         -2.7680   42.7730   -5.3650 O.2    67  MET67      -0.2718
     67  CB        -4.9450   43.6840   -6.9040 C.3    67  MET67       0.0401
     68  CG        -6.1420   43.7490   -7.8350 C.3    67  MET67       0.0596
     69  SD        -6.4400   42.1620   -8.6470 S.3    67  MET67      -0.1393
     70  CE        -8.1100   41.7780   -8.2080 C.3    67  MET67       0.0692
     71  N         -4.0600   42.5290   -3.5150 N.am   68  ASP68      -0.1960
     72  CA        -2.9290   42.5080   -2.6030 C.3    68  ASP68       0.1840
     73  C         -2.2580   41.1420   -2.7370 C.2    68  ASP68       0.2622
     74  O         -2.8580   40.1270   -2.4060 O.2    68  ASP68      -0.2715
     75  CB        -3.3700   42.7550   -1.1540 C.3    68  ASP68       0.1450
     76  CG        -2.1950   42.8620   -0.1870 C.2    68  ASP68       0.3671
     77  OD1       -1.0130   42.8360   -0.6150 O.co2  68  ASP68      -0.2456
     78  OD2       -2.4490   42.9980    1.0180 O.co2  68  ASP68      -0.2456
     79  N         -1.0500   41.1490   -3.2870 N.am   69  ASN69      -0.1972
     80  CA        -0.1860   39.9780   -3.3820 C.3    69  ASN69       0.1688
     81  C         -0.9160   38.7730   -4.0330 C.2    69  ASN69       0.2292
     82  O         -0.9170   37.6770   -3.5450 O.2    69  ASN69      -0.2864
     83  CB         0.3580   39.6570   -2.0020 C.3    69  ASN69       0.1181
     84  CG         1.5940   38.7700   -2.0410 C.2    69  ASN69       0.2629
     85  OD1        2.6510   39.1490   -2.5490 O.2    69  ASN69      -0.2716
     86  ND2        1.4600   37.5950   -1.5050 N.am   69  ASN69      -0.0877
     87  N         -2.9610   53.4140   -6.9190 N.3    91  ARG91      -0.1245
     88  CA        -2.1460   54.2540   -6.0740 C.3    91  ARG91       0.1563
     89  C         -0.9290   54.6930   -6.8540 C.2    91  ARG91       0.2260
     90  O         -0.2810   53.8900   -7.5570 O.2    91  ARG91      -0.2867
     91  CB        -1.7510   53.5260   -4.7890 C.3    91  ARG91       0.0307
     92  CG        -2.9590   53.1170   -3.9640 C.3    91  ARG91       0.0489
     93  CD        -2.5660   52.1780   -2.8540 C.3    91  ARG91       0.2205
     94  NE        -3.7150   51.7880   -2.0520 N.pl3  91  ARG91      -0.0865
     95  CZ        -3.8270   50.6780   -1.3310 C.cat  91  ARG91       0.5346
     96  NH1       -2.8580   49.7920   -1.2960 N.pl3  91  ARG91       0.1354
     97  NH2       -4.9340   50.4530   -0.6360 N.pl3  91  ARG91       0.1354
@<TRIPOS>BOND
     1    57    55    1
     2    55    56    1
     3    55    52    1
     4    40    41    1
     5    37    36    2
     6    51    52    1
     7    51    42   am
     8    52    53    1
     9    41    42    1
    10    41    44    1
    11    69    70    1
    12    69    68    1
    13    49    48    1
    14    42    43    2
    15    36    35    1
    16    68    67    1
    17    46    47    1
    18    46    45    1
    19    48    47    2
    20    48    50    1
    21    90    89    2
    22    53    54    2
    23    53    58   am
    24    44    45    1
    25    28    27    2
    26    87    88    1
    27    67    64    1
    28    89    88    1
    29    35    38    1
    30    35    34    1
    31    58    59    1
    32    38    39    1
    33    15    16    1
    34    88    91    1
    35    27    26    1
    36    21    22    1
    37    21    17   am
    38    64    63    1
    39    64    65    1
    40    32    31   ar
    41    22    23    1
    42    66    65    2
    43    60    59    1
    44    60    61    2
    45    59    62    1
    46    33    31   ar
    47    31    30    1
    48    23    25   am
    49    23    24    2
    50    16    17    1
    51    16    19    1
    52    25    26    1
    53    20    19    1
    54    29    26    1
    55    29    30    1
    56    65    71   am
    57    91    92    1
    58    17    18    2
    59    13    11   ar
    60    13    14   ar
    61    81    82    2
    62    81    80    1
    63    92    93    1
    64    11     8   ar
    65    14    12   ar
    66    71    72    1
    67    80    79    1
    68    80    83    1
    69    79    73   am
    70    93    94    1
    71    73    72    1
    72    73    74    2
    73    72    75    1
    74    85    84    2
    75     8    10   ar
    76     8     6   ar
    77    12    10   ar
    78     3     2    1
    79     3     4    2
    80     2     5    1
    81     2     1    1
    82    94    95    2
    83    84    83    1
    84    84    86   am
    85    10     9   ar
    86     5     6    1
    87     6     7   ar
    88    95    96    1
    89    95    97    1
    90    75    76    1
    91    77    76   ar
    92     9     7   ar
    93    76    78   ar
