@<TRIPOS>MOLECULE
tmp/4oepB00.pdb
 102 97 0 0 0
SMALL
GASTEIGER

@<TRIPOS>ATOM
      1  N         39.4500  -20.6860    9.6080 N.3     4  TRP4       -0.1241
      2  CA        39.1110  -21.7770    8.7050 C.3     4  TRP4        0.1605
      3  C         40.3670  -22.3720    8.1150 C.2     4  TRP4        0.2264
      4  O         41.1200  -21.6630    7.4520 O.2     4  TRP4       -0.2867
      5  CB        38.2800  -21.2670    7.5110 C.3     4  TRP4        0.0550
      6  CG        36.8650  -20.8130    7.8270 C.ar    4  TRP4        0.0003
      7  CD1       36.4400  -19.5320    8.1680 C.ar    4  TRP4        0.0946
      8  CD2       35.6960  -21.6390    7.8210 C.ar    4  TRP4        0.0152
      9  NE1       35.0570  -19.5380    8.3890 N.ar    4  TRP4       -0.2442
     10  CE2       34.5840  -20.8110    8.1790 C.ar    4  TRP4        0.0810
     11  CE3       35.4720  -23.0070    7.5460 C.ar    4  TRP4        0.0012
     12  CZ2       33.2700  -21.3080    8.2480 C.ar    4  TRP4        0.0191
     13  CZ3       34.1580  -23.5050    7.6220 C.ar    4  TRP4        0.0001
     14  CH2       33.0720  -22.6510    7.9720 C.ar    4  TRP4        0.0015
     15  N         42.1940  -24.7740    5.3590 N.3     6  GLN6       -0.1245
     16  CA        41.8560  -25.2390    4.0280 C.3     6  GLN6        0.1566
     17  C         42.8360  -26.3020    3.5700 C.2     6  GLN6        0.2260
     18  O         43.9760  -25.9910    3.3300 O.2     6  GLN6       -0.2867
     19  CB        41.7790  -24.0460    3.0500 C.3     6  GLN6        0.0367
     20  CG        41.8150  -24.4130    1.5800 C.3     6  GLN6        0.0905
     21  CD        41.2060  -23.3500    0.6650 C.2     6  GLN6        0.2608
     22  OE1       40.3580  -22.5420    1.0500 O.2     6  GLN6       -0.2717
     23  NE2       41.6460  -23.3550   -0.5750 N.am    6  GLN6       -0.0878
     24  N         22.8600  -21.6940    5.2830 N.3    36  GLU36      -0.1245
     25  CA        24.1220  -21.9530    4.6110 C.3    36  GLU36       0.1567
     26  C         24.0090  -23.1340    3.6400 C.2    36  GLU36       0.2260
     27  O         23.6550  -24.2470    4.0370 O.2    36  GLU36      -0.2867
     28  CB        25.2450  -22.2110    5.6080 C.3    36  GLU36       0.0388
     29  CG        26.5090  -22.7160    4.9250 C.3    36  GLU36       0.1160
     30  CD        27.5770  -23.1440    5.8970 C.2    36  GLU36       0.3649
     31  OE1       27.2820  -23.1320    7.1100 O.co2  36  GLU36      -0.2457
     32  OE2       28.7030  -23.5100    5.4650 O.co2  36  GLU36      -0.2457
     33  N         26.4290  -24.5790    1.5850 N.3    38  SER38      -0.1217
     34  CA        27.6110  -25.3930    1.2030 C.3    38  SER38       0.1889
     35  C         27.4220  -26.9150    1.2730 C.2    38  SER38       0.2288
     36  O         26.6070  -27.4300    2.0740 O.2    38  SER38      -0.2866
     37  CB        28.8610  -24.9800    1.9910 C.3    38  SER38       0.2089
     38  OG        28.5660  -23.9230    2.8920 O.3    38  SER38      -0.2183
     39  N         33.6070  -28.4260    5.0400 N.3    59  ARG59      -0.1231
     40  CA        32.9240  -27.8710    3.8590 C.3    59  ARG59       0.1694
     41  C         33.6710  -28.2710    2.5770 C.2    59  ARG59       0.2592
     42  O         34.8880  -28.1630    2.4930 O.2    59  ARG59      -0.2718
     43  CB        32.7940  -26.3460    3.9200 C.3    59  ARG59       0.0321
     44  CG        32.4160  -25.7490    5.2540 C.3    59  ARG59       0.0489
     45  CD        31.1900  -26.4300    5.8170 C.3    59  ARG59       0.2205
     46  NE        30.3870  -25.5090    6.5980 N.pl3  59  ARG59      -0.0865
     47  CZ        30.3450  -25.4840    7.9280 C.cat  59  ARG59       0.5346
     48  NH1       31.0770  -26.3460    8.6210 N.pl3  59  ARG59       0.1354
     49  NH2       29.5370  -24.6070    8.5640 N.pl3  59  ARG59       0.1354
     50  N         32.9480  -28.7610    1.5860 N.am   60  VAL60      -0.1966
     51  CA        33.5780  -29.1610    0.3250 C.3    60  VAL60       0.1727
     52  C         33.6320  -27.9400   -0.6010 C.2    60  VAL60       0.2616
     53  O         32.6060  -27.4530   -1.1140 O.2    60  VAL60      -0.2715
     54  CB        32.8490  -30.3530   -0.3150 C.3    60  VAL60       0.0290
     55  CG1       33.3700  -30.5920   -1.7310 C.3    60  VAL60       0.0023
     56  CG2       33.0170  -31.5970    0.5730 C.3    60  VAL60       0.0023
     57  N         34.8320  -27.3930   -0.7330 N.am   61  ALA61      -0.1963
     58  CA        35.0070  -26.1520   -1.4780 C.3    61  ALA61       0.1728
     59  C         35.1020  -26.4810   -2.9480 C.2    61  ALA61       0.2616
     60  O         34.4760  -25.8190   -3.7720 O.2    61  ALA61      -0.2715
     61  CB        36.2530  -25.4250   -1.0180 C.3    61  ALA61       0.0334
     62  N         35.8500  -27.5440   -3.2540 N.am   62  MET62      -0.1977
     63  CA        36.1630  -27.8910   -4.6050 C.3    62  MET62       0.1605
     64  C         36.4360  -29.3940   -4.7700 C.2    62  MET62       0.2287
     65  O         36.9530  -30.0660   -3.8380 O.2    62  MET62      -0.2864
     66  CB        37.3690  -27.0460   -5.0250 C.3    62  MET62       0.0413
     67  CG        37.9390  -27.3280   -6.3970 C.3    62  MET62       0.0598
     68  SD        38.8430  -25.8720   -6.9820 S.3    62  MET62      -0.1393
     69  CE        37.6850  -24.5700   -6.5420 C.3    62  MET62       0.0692
     70  N         34.3160  -25.8530   -8.6810 N.3    67  SER67      -0.1202
     71  CA        33.8170  -25.1650   -7.5030 C.3    67  SER67       0.2020
     72  C         32.4650  -25.7660   -7.0590 C.2    67  SER67       0.2619
     73  O         31.5780  -26.0740   -7.8800 O.2    67  SER67      -0.2717
     74  CB        33.6750  -23.6480   -7.7780 C.3    67  SER67       0.2103
     75  OG        32.7640  -22.9980   -6.8580 O.3    67  SER67      -0.2182
     76  N         32.3040  -25.8820   -5.7460 N.am   68  MET68      -0.1965
     77  CA        31.0790  -26.3990   -5.1720 C.3    68  MET68       0.1736
     78  C         30.3480  -25.2760   -4.4830 C.2    68  MET68       0.2616
     79  O         29.5190  -25.5280   -3.6080 O.2    68  MET68      -0.2715
     80  CB        31.3860  -27.5150   -4.1800 C.3    68  MET68       0.0427
     81  CG        32.0260  -28.7320   -4.8330 C.3    68  MET68       0.0599
     82  SD        30.8310  -29.5160   -5.9620 S.3    68  MET68      -0.1393
     83  CE        31.8440  -29.8590   -7.4010 C.3    68  MET68       0.0692
     84  N         30.6520  -24.0350   -4.8720 N.am   69  ASP69      -0.1971
     85  CA        29.9560  -22.8620   -4.3070 C.3    69  ASP69       0.1709
     86  C         28.5000  -22.8280   -4.7160 C.2    69  ASP69       0.2293
     87  O         28.1700  -22.7510   -5.8950 O.2    69  ASP69      -0.2864
     88  CB        30.6380  -21.5670   -4.7560 C.3    69  ASP69       0.1436
     89  CG        30.1080  -20.3200   -4.0350 C.2    69  ASP69       0.3671
     90  OD1       29.4280  -20.3790   -2.9890 O.co2  69  ASP69      -0.2456
     91  OD2       30.3960  -19.2320   -4.5320 O.co2  69  ASP69      -0.2456
     92  N         37.3150  -26.9520    3.6050 N.3    92  ARG92      -0.1245
     93  CA        37.5220  -25.9230    4.6110 C.3    92  ARG92       0.1563
     94  C         36.9800  -26.4180    5.9170 C.2    92  ARG92       0.2260
     95  O         35.8500  -26.9230    5.9860 O.2    92  ARG92      -0.2867
     96  CB        36.8680  -24.6030    4.2120 C.3    92  ARG92       0.0307
     97  CG        37.7300  -23.9040    3.1940 C.3    92  ARG92       0.0489
     98  CD        36.8990  -22.9070    2.4380 C.3    92  ARG92       0.2205
     99  NE        37.5980  -22.5130    1.2350 N.pl3  92  ARG92      -0.0865
    100  CZ        37.0260  -21.8760    0.2310 C.cat  92  ARG92       0.5346
    101  NH1       35.7510  -21.5300    0.3130 N.pl3  92  ARG92       0.1354
    102  NH2       37.7360  -21.5790   -0.8440 N.pl3  92  ARG92       0.1354
@<TRIPOS>BOND
     1    70    71    1
     2    73    72    2
     3    74    71    1
     4    74    75    1
     5    71    72    1
     6    83    82    1
     7    72    76   am
     8    68    69    1
     9    68    67    1
    10    67    66    1
    11    82    81    1
    12    87    86    2
    13    76    77    1
    14    77    78    1
    15    77    80    1
    16    66    63    1
    17    84    78   am
    18    84    85    1
    19    81    80    1
    20    64    63    1
    21    64    65    2
    22    88    85    1
    23    88    89    1
    24    86    85    1
    25    63    62    1
    26    91    89   ar
    27    78    79    2
    28    89    90   ar
    29    60    59    2
    30    62    59   am
    31    59    58    1
    32    55    54    1
    33    58    61    1
    34    58    57    1
    35    53    52    2
    36   102   100    1
    37    57    52   am
    38    52    51    1
    39    23    21   am
    40    54    51    1
    41    54    56    1
    42   100   101    1
    43   100    99    2
    44    51    50    1
    45    21    22    2
    46    21    20    1
    47    34    35    1
    48    34    33    1
    49    34    37    1
    50    99    98    1
    51    35    36    2
    52    20    19    1
    53    50    41   am
    54    37    38    1
    55    98    97    1
    56    42    41    2
    57    41    40    1
    58    19    16    1
    59    97    96    1
    60    18    17    2
    61    17    16    1
    62    92    93    1
    63    26    27    2
    64    26    25    1
    65    40    43    1
    66    40    39    1
    67    43    44    1
    68    16    15    1
    69    96    93    1
    70    25    24    1
    71    25    28    1
    72    93    94    1
    73    29    28    1
    74    29    30    1
    75    44    45    1
    76    32    30   ar
    77    45    46    1
    78    30    31   ar
    79    94    95    2
    80    46    47    2
    81     4     3    2
    82     5     6    1
    83     5     2    1
    84    11    13   ar
    85    11     8   ar
    86    13    14   ar
    87     8     6   ar
    88     8    10   ar
    89     6     7   ar
    90    47    49    1
    91    47    48    1
    92    14    12   ar
    93     3     2    1
    94     7     9   ar
    95    10    12   ar
    96    10     9   ar
    97     2     1    1
