@<TRIPOS>MOLECULE
tmp/4oeuA00.pdb
 126 124 0 0 0
SMALL
GASTEIGER

@<TRIPOS>ATOM
      1  N        -77.0090  -14.8250   49.2100 N.3    12  ASN12      -0.1240
      2  CA       -78.0180  -15.1330   48.2000 C.3    12  ASN12       0.1653
      3  C        -78.4780  -16.5820   48.2610 C.2    12  ASN12       0.2266
      4  O        -77.6730  -17.5000   48.4230 O.2    12  ASN12      -0.2867
      5  CB       -77.5000  -14.8200   46.7940 C.3    12  ASN12       0.1155
      6  CG       -77.5840  -13.3480   46.4530 C.2    12  ASN12       0.2627
      7  OD1      -76.6270  -12.5990   46.6550 O.2    12  ASN12      -0.2716
      8  ND2      -78.7370  -12.9210   45.9460 N.am   12  ASN12      -0.0877
      9  N        -75.5450  -16.7680   41.3570 N.3    25  HIS25      -0.1241
     10  CA       -75.9050  -16.0660   42.5830 C.3    25  HIS25       0.1621
     11  C        -76.0520  -17.0250   43.7540 C.2    25  HIS25       0.2264
     12  O        -76.8420  -16.7730   44.6540 O.2    25  HIS25      -0.2867
     13  CB       -77.2110  -15.2910   42.4040 C.3    25  HIS25       0.0745
     14  CG       -77.0370  -13.9230   41.8170 C.ar   25  HIS25       0.0817
     15  ND1      -76.7840  -13.7110   40.4790 N.ar   25  HIS25      -0.2268
     16  CD2      -77.0980  -12.6960   42.3890 C.ar   25  HIS25       0.1154
     17  CE1      -76.6910  -12.4110   40.2520 C.ar   25  HIS25       0.1986
     18  NE2      -76.8740  -11.7740   41.3960 N.ar   25  HIS25      -0.2212
     19  N        -80.5480   -1.8240   47.4530 N.3   337  MET337     -0.1245
     20  CA       -80.8980   -2.8790   48.3850 C.3   337  MET337      0.1570
     21  C        -80.4490   -2.4640   49.7810 C.2   337  MET337      0.2261
     22  O        -79.2530   -2.3090   50.0470 O.2   337  MET337     -0.2867
     23  CB       -80.2680   -4.2100   47.9580 C.3   337  MET337      0.0387
     24  CG       -80.7260   -4.6620   46.5670 C.3   337  MET337      0.0595
     25  SD       -79.9620   -6.1900   45.9670 S.3   337  MET337     -0.1393
     26  CE       -78.3130   -6.0090   46.6370 C.3   337  MET337      0.0692
     27  N        -74.1800   -0.4160   48.8410 N.3   343  ARG343     -0.1245
     28  CA       -75.0900    0.0890   47.8230 C.3   343  ARG343      0.1563
     29  C        -75.8830    1.3070   48.2880 C.2   343  ARG343      0.2260
     30  O        -76.0510    2.2630   47.5300 O.2   343  ARG343     -0.2867
     31  CB       -76.0300   -1.0130   47.3440 C.3   343  ARG343      0.0307
     32  CG       -75.3000   -2.2680   46.8950 C.3   343  ARG343      0.0489
     33  CD       -76.0560   -2.9730   45.7880 C.3   343  ARG343      0.2205
     34  NE       -75.5320   -4.3110   45.5420 N.pl3 343  ARG343     -0.0865
     35  CZ       -75.8150   -5.0440   44.4690 C.cat 343  ARG343      0.5346
     36  NH1      -75.2920   -6.2590   44.3380 N.pl3 343  ARG343      0.1354
     37  NH2      -76.6130   -4.5610   43.5280 N.pl3 343  ARG343      0.1354
     38  N        -83.5540   -6.4800   49.4260 N.3   368  ALA368     -0.1231
     39  CA       -83.4660   -7.2810   48.2080 C.3   368  ALA368      0.1694
     40  C        -84.6290   -8.2680   48.1590 C.2   368  ALA368      0.2592
     41  O        -84.9700   -8.8860   49.1710 O.2   368  ALA368     -0.2718
     42  CB       -82.1330   -8.0190   48.1360 C.3   368  ALA368      0.0304
     43  N        -85.2650   -8.3730   46.9960 N.am  369  GLY369     -0.1957
     44  CA       -86.4090   -9.2530   46.8260 C.3   369  GLY369      0.1869
     45  C        -87.7550   -8.6020   47.0930 C.2   369  GLY369      0.2309
     46  O        -88.7900   -9.1920   46.7900 O.2   369  GLY369     -0.2863
     47  N        -86.5100   -4.5280   40.3400 N.3   373  TYR373     -0.1241
     48  CA       -85.5150   -3.5260   39.9550 C.3   373  TYR373      0.1605
     49  C        -85.4950   -3.2550   38.4470 C.2   373  TYR373      0.2264
     50  O        -84.8450   -2.3110   38.0000 O.2   373  TYR373     -0.2867
     51  CB       -84.1210   -3.9280   40.4430 C.3   373  TYR373      0.0534
     52  CG       -83.8220   -5.3940   40.3400 C.ar  373  TYR373     -0.0201
     53  CD1      -83.3310   -5.9330   39.1650 C.ar  373  TYR373     -0.0009
     54  CD2      -84.0170   -6.2420   41.4250 C.ar  373  TYR373     -0.0009
     55  CE1      -83.0460   -7.2770   39.0620 C.ar  373  TYR373      0.0417
     56  CE2      -83.7390   -7.5940   41.3320 C.ar  373  TYR373      0.0417
     57  CZ       -83.2490   -8.1010   40.1440 C.ar  373  TYR373      0.1957
     58  OH       -82.9610   -9.4400   40.0190 O.3   373  TYR373     -0.2866
     59  N        -81.0620    1.8910   39.3350 N.3   379  PHE379     -0.1241
     60  CA       -80.8210    0.8390   40.3190 C.3   379  PHE379      0.1605
     61  C        -79.3400    0.6420   40.5480 C.2   379  PHE379      0.2264
     62  O        -78.5510    0.5780   39.6000 O.2   379  PHE379     -0.2867
     63  CB       -81.4770   -0.4670   39.8410 C.3   379  PHE379      0.0534
     64  CG       -81.2070   -1.6710   40.7100 C.ar  379  PHE379     -0.0203
     65  CD1      -81.7610   -1.7780   41.9810 C.ar  379  PHE379     -0.0042
     66  CD2      -80.4610   -2.7360   40.2200 C.ar  379  PHE379     -0.0042
     67  CE1      -81.5360   -2.9080   42.7660 C.ar  379  PHE379     -0.0003
     68  CE2      -80.2350   -3.8690   40.9970 C.ar  379  PHE379     -0.0003
     69  CZ       -80.7710   -3.9520   42.2710 C.ar  379  PHE379     -0.0000
     70  N        -76.7140   -1.4860   40.7580 N.3   381  ILE381     -0.1231
     71  CA       -76.6090   -2.8490   40.2890 C.3   381  ILE381      0.1692
     72  C        -75.1860   -3.3660   40.4540 C.2   381  ILE381      0.2593
     73  O        -74.2660   -2.5960   40.7740 O.2   381  ILE381     -0.2718
     74  CB       -77.0280   -2.9440   38.8080 C.3   381  ILE381      0.0266
     75  CG1      -77.4850   -4.3620   38.4440 C.3   381  ILE381      0.0019
     76  CG2      -75.9020   -2.4700   37.9070 C.3   381  ILE381      0.0020
     77  CD1      -78.3300   -4.4140   37.1930 C.3   381  ILE381      0.0001
     78  N        -75.0250   -4.6760   40.2740 N.am  382  GLY382     -0.1942
     79  CA       -73.7250   -5.3160   40.2610 C.3   382  GLY382      0.2014
     80  C        -73.6960   -6.5440   39.3630 C.2   382  GLY382      0.2638
     81  O        -74.7050   -7.2460   39.2150 O.2   382  GLY382     -0.2714
     82  N        -72.5370   -6.7880   38.7540 N.am  383  TRP383     -0.1973
     83  CA       -72.2840   -7.9780   37.9360 C.3   383  TRP383      0.1640
     84  C        -70.7910   -8.2760   37.9250 C.2   383  TRP383      0.2290
     85  O        -69.9880   -7.4920   38.4330 O.2   383  TRP383     -0.2864
     86  CB       -72.7530   -7.7850   36.4920 C.3   383  TRP383      0.0576
     87  CG       -74.2300   -7.6340   36.2910 C.ar  383  TRP383      0.0006
     88  CD1      -74.8890   -6.5000   35.9220 C.ar  383  TRP383      0.0946
     89  CD2      -75.2240   -8.6550   36.4130 C.ar  383  TRP383      0.0152
     90  NE1      -76.2350   -6.7510   35.8130 N.ar  383  TRP383     -0.2442
     91  CE2      -76.4690   -8.0640   36.1140 C.ar  383  TRP383      0.0810
     92  CE3      -75.1840  -10.0080   36.7510 C.ar  383  TRP383      0.0012
     93  CZ2      -77.6670   -8.7800   36.1490 C.ar  383  TRP383      0.0191
     94  CZ3      -76.3750  -10.7220   36.7780 C.ar  383  TRP383      0.0001
     95  CH2      -77.6000  -10.1050   36.4810 C.ar  383  TRP383      0.0015
     96  N        -81.8500   -5.7710   32.6850 N.3   412  PHE412     -0.1241
     97  CA       -82.9140   -5.2370   33.5370 C.3   412  PHE412      0.1605
     98  C        -83.2350   -3.7720   33.2170 C.2   412  PHE412      0.2264
     99  O        -84.3220   -3.2800   33.5500 O.2   412  PHE412     -0.2867
    100  CB       -82.5360   -5.4070   35.0210 C.3   412  PHE412      0.0534
    101  CG       -82.4310   -6.8540   35.4690 C.ar  412  PHE412     -0.0203
    102  CD1      -83.4260   -7.7720   35.1470 C.ar  412  PHE412     -0.0042
    103  CD2      -81.3270   -7.3000   36.1770 C.ar  412  PHE412     -0.0042
    104  CE1      -83.3430   -9.1100   35.5580 C.ar  412  PHE412     -0.0003
    105  CE2      -81.2260   -8.6330   36.5790 C.ar  412  PHE412     -0.0003
    106  CZ       -82.2380   -9.5400   36.2660 C.ar  412  PHE412     -0.0000
    107  N        -69.2990  -12.2650   40.9560 N.3   479  HIS479     -0.1226
    108  CA       -70.3330  -11.3790   41.4810 C.3   479  HIS479      0.1752
    109  C        -70.8690  -11.8660   42.8390 C.2   479  HIS479      0.2596
    110  O        -71.1270  -13.0600   43.0160 O.2   479  HIS479     -0.2718
    111  CB       -71.4490  -11.2720   40.4290 C.3   479  HIS479      0.0759
    112  CG       -72.6150  -10.4380   40.8450 C.ar  479  HIS479      0.0818
    113  ND1      -72.4780   -9.1800   41.3870 N.ar  479  HIS479     -0.2268
    114  CD2      -73.9470  -10.6630   40.7480 C.ar  479  HIS479      0.1154
    115  CE1      -73.6730   -8.6790   41.6440 C.ar  479  HIS479      0.1986
    116  NE2      -74.5840   -9.5540   41.2530 N.ar  479  HIS479     -0.2212
    117  N        -71.0030  -10.9370   43.7900 N.am  480  HIS480     -0.1975
    118  CA       -71.3890  -11.2220   45.1880 C.3   480  HIS480      0.1656
    119  C        -70.3500  -12.0590   45.9350 C.2   480  HIS480      0.2291
    120  O        -70.6100  -12.5330   47.0420 O.2   480  HIS480     -0.2864
    121  CB       -72.7400  -11.9500   45.2800 C.3   480  HIS480      0.0771
    122  CG       -73.9120  -11.1370   44.8350 C.ar  480  HIS480      0.0820
    123  ND1      -74.4120  -10.0750   45.5620 N.ar  480  HIS480     -0.2267
    124  CD2      -74.7020  -11.2510   43.7420 C.ar  480  HIS480      0.1154
    125  CE1      -75.4560   -9.5660   44.9300 C.ar  480  HIS480      0.1986
    126  NE2      -75.6510  -10.2600   43.8210 N.ar  480  HIS480     -0.2212
@<TRIPOS>BOND
     1    96    97    1
     2    98    97    1
     3    98    99    2
     4    97   100    1
     5   100   101    1
     6   102   101   ar
     7   102   104   ar
     8   101   103   ar
     9   104   106   ar
    10    90    88   ar
    11    90    91   ar
    12    88    87   ar
    13    91    93   ar
    14    91    89   ar
    15    93    95   ar
    16   103   105   ar
    17   106   105   ar
    18    87    89   ar
    19    87    86    1
    20    89    92   ar
    21    95    94   ar
    22    86    83    1
    23    92    94   ar
    24    77    75    1
    25    76    74    1
    26    84    83    1
    27    84    85    2
    28    83    82    1
    29    50    49    2
    30    75    74    1
    31    49    48    1
    32    82    80   am
    33    74    71    1
    34    55    53   ar
    35    55    57   ar
    36    53    52   ar
    37    81    80    2
    38    59    60    1
    39    80    79    1
    40    62    61    2
    41    63    60    1
    42    63    64    1
    43    48    47    1
    44    48    51    1
    45    58    57    1
    46    57    56   ar
    47    66    64   ar
    48    66    68   ar
    49    17    15   ar
    50    17    18   ar
    51    79    78    1
    52    78    72   am
    53    71    72    1
    54    71    70    1
    55    60    61    1
    56    52    51    1
    57    52    54   ar
    58   111   112    1
    59   111   108    1
    60    72    73    2
    61    15    14   ar
    62    64    65   ar
    63   114   112   ar
    64   114   116   ar
    65   112   113   ar
    66   107   108    1
    67    68    69   ar
    68   116   115   ar
    69    56    54   ar
    70     9    10    1
    71   113   115   ar
    72    18    16   ar
    73   108   109    1
    74    14    16   ar
    75    14    13    1
    76    65    67   ar
    77    69    67   ar
    78    13    10    1
    79    10    11    1
    80   109   110    2
    81   109   117   am
    82    37    35    1
    83   124   126   ar
    84   124   122   ar
    85    11    12    2
    86   117   118    1
    87   126   125   ar
    88    36    35    1
    89    35    34    2
    90   122   121    1
    91   122   123   ar
    92   125   123   ar
    93   118   121    1
    94   118   119    1
    95    34    33    1
    96    33    32    1
    97   119   120    2
    98     8     6   am
    99    25    24    1
   100    25    26    1
   101     6     7    2
   102     6     5    1
   103    24    23    1
   104    46    45    2
   105     5     2    1
   106    44    43    1
   107    44    45    1
   108    32    31    1
   109    43    40   am
   110    31    28    1
   111    19    20    1
   112    30    29    2
   113    28    29    1
   114    28    27    1
   115    23    20    1
   116    42    39    1
   117    40    39    1
   118    40    41    2
   119     2     3    1
   120     2     1    1
   121    39    38    1
   122     3     4    2
   123    20    21    1
   124    21    22    2
