@<TRIPOS>MOLECULE
tmp/4oezA00.pdb
 137 129 0 0 0
SMALL
GASTEIGER

@<TRIPOS>ATOM
      1  N         31.1200    9.5470    9.6560 N.3    43  LEU43      -0.1231
      2  CA        31.3020    9.2820   11.0620 C.3    43  LEU43       0.1693
      3  C         31.9060   10.5110   11.8020 C.2    43  LEU43       0.2591
      4  O         31.4780   10.8420   12.8930 O.2    43  LEU43      -0.2718
      5  CB        32.2130    8.0920   11.2490 C.3    43  LEU43       0.0284
      6  CG        32.3320    7.5320   12.6440 C.3    43  LEU43       0.0019
      7  CD1       30.9610    7.0580   13.1410 C.3    43  LEU43       0.0001
      8  CD2       33.2360    6.3200   12.4930 C.3    43  LEU43       0.0001
      9  N         32.8420   11.1860   11.1290 N.am   44  VAL44      -0.1980
     10  CA        33.3670   12.4700   11.6620 C.3    44  VAL44       0.1595
     11  C         32.2260   13.4410   11.9560 C.2    44  VAL44       0.2287
     12  O         32.1570   14.0460   13.0620 O.2    44  VAL44      -0.2864
     13  CB        34.4380   13.0470   10.6900 C.3    44  VAL44       0.0276
     14  CG1       34.8390   14.4750   11.1450 C.3    44  VAL44       0.0022
     15  CG2       35.6990   12.1680   10.6400 C.3    44  VAL44       0.0022
     16  N         29.9800   12.2260   14.9580 N.3    47  VAL47      -0.1231
     17  CA        30.5730   12.5100   16.2630 C.3    47  VAL47       0.1692
     18  C         30.3180   13.9800   16.6710 C.2    47  VAL47       0.2591
     19  O         30.0330   14.2700   17.8270 O.2    47  VAL47      -0.2718
     20  CB        32.1050   12.2190   16.2160 C.3    47  VAL47       0.0266
     21  CG1       32.8180   12.7330   17.4770 C.3    47  VAL47       0.0020
     22  CG2       32.3360   10.7130   16.1900 C.3    47  VAL47       0.0020
     23  N         30.5510   14.8950   15.7530 N.am   48  LYS48      -0.1980
     24  CA        30.4890   16.3390   16.1190 C.3    48  LYS48       0.1596
     25  C         29.0360   16.7130   16.4050 C.2    48  LYS48       0.2287
     26  O         28.7150   17.4370   17.3720 O.2    48  LYS48      -0.2864
     27  CB        31.0580   17.1560   14.9620 C.3    48  LYS48       0.0298
     28  CG        32.5930   17.0220   14.8900 C.3    48  LYS48       0.0038
     29  CD        33.1520   17.5910   13.5910 C.3    48  LYS48       0.0206
     30  CE        32.9640   19.1060   13.4680 C.3    48  LYS48       0.1093
     31  NZ        33.3090   19.6170   12.1100 N.3    48  LYS48      -0.1314
     32  N         27.9920   15.0010   20.0180 N.3    51  LYS51      -0.1245
     33  CA        28.5920   15.7790   21.1220 C.3    51  LYS51       0.1561
     34  C         27.8330   17.1040   21.3510 C.2    51  LYS51       0.2260
     35  O         27.7660   17.5890   22.4660 O.2    51  LYS51      -0.2867
     36  CB        30.0560   16.0850   20.8010 C.3    51  LYS51       0.0271
     37  CG        30.9770   14.9300   21.2080 C.3    51  LYS51       0.0035
     38  CD        32.2420   15.2050   20.4010 C.3    51  LYS51       0.0206
     39  CE        33.4800   15.1060   21.2440 C.3    51  LYS51       0.1093
     40  NZ        34.6830   15.5780   20.4690 N.3    51  LYS51      -0.1314
     41  N         23.7310   15.4070   25.9540 N.3    56  PHE56      -0.1227
     42  CA        24.6040   14.2900   25.5540 C.3    56  PHE56       0.1736
     43  C         25.8110   14.1670   26.4630 C.2    56  PHE56       0.2595
     44  O         26.2710   13.0330   26.7600 O.2    56  PHE56      -0.2718
     45  CB        25.0430   14.3990   24.1040 C.3    56  PHE56       0.0547
     46  CG        25.7760   13.1800   23.6100 C.ar   56  PHE56      -0.0202
     47  CD1       25.0760   11.9880   23.3560 C.ar   56  PHE56      -0.0042
     48  CD2       27.1400   13.2120   23.4140 C.ar   56  PHE56      -0.0042
     49  CE1       25.7470   10.8740   22.8880 C.ar   56  PHE56      -0.0003
     50  CE2       27.8270   12.0990   22.9270 C.ar   56  PHE56      -0.0003
     51  CZ        27.1190   10.9250   22.6600 C.ar   56  PHE56      -0.0000
     52  N         26.3050   15.3390   26.9260 N.am   57  ARG57      -0.1980
     53  CA        27.4440   15.4130   27.8820 C.3    57  ARG57       0.1597
     54  C         27.1000   14.8300   29.2420 C.2    57  ARG57       0.2287
     55  O         27.9810   14.6220   30.0440 O.2    57  ARG57      -0.2864
     56  CB        27.9520   16.8680   28.0510 C.3    57  ARG57       0.0334
     57  CG        28.7560   17.4210   26.8620 C.3    57  ARG57       0.0492
     58  CD        29.8420   16.4470   26.4280 C.3    57  ARG57       0.2205
     59  NE        30.6060   16.8600   25.2440 N.pl3  57  ARG57      -0.0865
     60  CZ        31.7790   17.4960   25.2620 C.cat  57  ARG57       0.5346
     61  NH1       32.3700   17.8050   24.1110 N.pl3  57  ARG57       0.1354
     62  NH2       32.3610   17.8270   26.4150 N.pl3  57  ARG57       0.1354
     63  N         31.8460    9.4160   29.5210 N.3    61  VAL61      -0.1245
     64  CA        32.6150    9.4840   28.2880 C.3    61  VAL61       0.1561
     65  C         32.6840    8.1900   27.5170 C.2    61  VAL61       0.2260
     66  O         32.5910    8.1760   26.2590 O.2    61  VAL61      -0.2867
     67  CB        34.0510    9.9650   28.5790 C.3    61  VAL61       0.0252
     68  CG1       34.6500   10.6390   27.3620 C.3    61  VAL61       0.0019
     69  CG2       34.0460   10.9370   29.7530 C.3    61  VAL61       0.0019
     70  N         29.2230    7.8240   25.9730 N.3    64  GLN64      -0.1231
     71  CA        29.1660    8.6600   24.7470 C.3    64  GLN64       0.1698
     72  C         29.7730    7.9580   23.5430 C.2    64  GLN64       0.2592
     73  O         29.1580    7.9020   22.4800 O.2    64  GLN64      -0.2718
     74  CB        29.8880   10.0070   24.9410 C.3    64  GLN64       0.0381
     75  CG        29.2770   10.8490   26.0390 C.3    64  GLN64       0.0905
     76  CD        30.0650   12.1150   26.3650 C.2    64  GLN64       0.2608
     77  OE1       29.9880   12.6180   27.4860 O.2    64  GLN64      -0.2717
     78  NE2       30.7580   12.6630   25.3910 N.am   64  GLN64      -0.0878
     79  N         30.9870    7.4250   23.7030 N.am   65  MET65      -0.1979
     80  CA        31.6530    6.7610   22.6060 C.3    65  MET65       0.1605
     81  C         30.9610    5.4610   22.2080 C.2    65  MET65       0.2287
     82  O         30.8330    5.1470   21.0120 O.2    65  MET65      -0.2864
     83  CB        33.0900    6.4680   22.9680 C.3    65  MET65       0.0413
     84  CG        33.9500    7.7290   22.9170 C.3    65  MET65       0.0598
     85  SD        35.7080    7.3220   23.2550 S.3    65  MET65      -0.1393
     86  CE        35.7560    6.8210   24.9990 C.3    65  MET65       0.0692
     87  N         27.6800    6.0110   20.0870 N.3    68  ILE68      -0.1231
     88  CA        27.9660    6.3840   18.6950 C.3    68  ILE68       0.1692
     89  C         28.4300    5.1850   17.8780 C.2    68  ILE68       0.2591
     90  O         28.0830    5.0280   16.7000 O.2    68  ILE68      -0.2718
     91  CB        29.0370    7.5530   18.6100 C.3    68  ILE68       0.0266
     92  CG1       28.4220    8.7940   19.2760 C.3    68  ILE68       0.0019
     93  CG2       29.4220    7.8630   17.1710 C.3    68  ILE68       0.0020
     94  CD1       29.3870    9.9580   19.5840 C.3    68  ILE68       0.0001
     95  N         29.3120    4.3850   18.4700 N.am   69  GLN69      -0.1979
     96  CA        29.8570    3.2450   17.7660 C.3    69  GLN69       0.1601
     97  C         28.8580    2.1180   17.5580 C.2    69  GLN69       0.2287
     98  O         29.0250    1.3230   16.6720 O.2    69  GLN69      -0.2864
     99  CB        31.0460    2.7130   18.5380 C.3    69  GLN69       0.0394
    100  CG        32.2480    3.6610   18.4540 C.3    69  GLN69       0.0908
    101  CD        33.3610    3.2640   19.4150 C.2    69  GLN69       0.2608
    102  OE1       33.2490    3.4140   20.6460 O.2    69  GLN69      -0.2717
    103  NE2       34.4100    2.7390   18.8740 N.am   69  GLN69      -0.0878
    104  N         40.5720    3.4200    8.2010 N.3   217  GLU217     -0.1231
    105  CA        41.0630    3.0600    9.5320 C.3   217  GLU217      0.1699
    106  C         39.9820    2.8370   10.5830 C.2   217  GLU217      0.2592
    107  O         39.8000    1.7620   11.1340 O.2   217  GLU217     -0.2718
    108  CB        42.0030    4.1350   10.0040 C.3   217  GLU217      0.0402
    109  CG        43.2490    3.5500   10.6390 C.3   217  GLU217      0.1161
    110  CD        43.7630    4.4240   11.7520 C.2   217  GLU217      0.3649
    111  OE1       43.4290    5.6370   11.7640 O.co2 217  GLU217     -0.2457
    112  OE2       44.5020    3.8890   12.6050 O.co2 217  GLU217     -0.2457
    113  N         39.2260    3.8660   10.8310 N.am  218  MET218     -0.1979
    114  CA        38.2760    3.8290   11.8930 C.3   218  MET218      0.1605
    115  C         37.1090    2.8950   11.5560 C.2   218  MET218      0.2287
    116  O         36.5750    2.2840   12.4620 O.2   218  MET218     -0.2864
    117  CB        37.8250    5.2470   12.0990 C.3   218  MET218      0.0413
    118  CG        37.1330    5.5950   13.3760 C.3   218  MET218      0.0598
    119  SD        37.1540    7.4140   13.3860 S.3   218  MET218     -0.1393
    120  CE        36.4180    7.9600   11.8250 C.3   218  MET218      0.0692
    121  N         38.3800   -0.7460   12.3680 N.3   221  GLU221     -0.1231
    122  CA        38.4670   -0.9630   13.7950 C.3   221  GLU221      0.1699
    123  C         37.0710   -1.1390   14.3730 C.2   221  GLU221      0.2592
    124  O         36.8020   -2.1080   15.0710 O.2   221  GLU221     -0.2718
    125  CB        39.1730    0.2230   14.4140 C.3   221  GLU221      0.0402
    126  CG        39.0950    0.2850   15.9200 C.3   221  GLU221      0.1161
    127  CD        39.5510    1.6350   16.4130 C.2   221  GLU221      0.3649
    128  OE1       40.7910    1.8560   16.3540 O.co2 221  GLU221     -0.2457
    129  OE2       38.6720    2.4740   16.8020 O.co2 221  GLU221     -0.2457
    130  N         36.1630   -0.2190   14.0480 N.am  222  ILE222     -0.1980
    131  CA        34.7960   -0.2940   14.5450 C.3   222  ILE222      0.1595
    132  C         34.0950   -1.5610   14.0530 C.2   222  ILE222      0.2287
    133  O         33.3360   -2.1960   14.8060 O.2   222  ILE222     -0.2864
    134  CB        33.9320    0.9530   14.1170 C.3   222  ILE222      0.0276
    135  CG1       34.4610    2.2230   14.7830 C.3   222  ILE222      0.0022
    136  CG2       32.4610    0.7630   14.4580 C.3   222  ILE222      0.0022
    137  CD1       33.8050    3.4780   14.2190 C.3   222  ILE222      0.0001
@<TRIPOS>BOND
     1   104   105    1
     2   105   108    1
     3   105   106    1
     4     1     2    1
     5   108   109    1
     6   106   113   am
     7   106   107    2
     8   109   110    1
     9    15    13    1
    10    13    14    1
    11    13    10    1
    12   113   114    1
    13     2     5    1
    14     2     3    1
    15     9    10    1
    16     9     3   am
    17     5     6    1
    18   115   114    1
    19   115   116    2
    20    10    11    1
    21   110   111   ar
    22   110   112   ar
    23     3     4    2
    24   120   119    1
    25   114   117    1
    26    11    12    2
    27   117   118    1
    28    31    30    1
    29   121   122    1
    30     8     6    1
    31     6     7    1
    32   118   119    1
    33    30    29    1
    34    29    28    1
    35   122   123    1
    36   122   125    1
    37   130   123   am
    38   130   131    1
    39   132   131    1
    40   132   133    2
    41   134   136    1
    42   134   131    1
    43   134   135    1
    44   137   135    1
    45   123   124    2
    46   125   126    1
    47    28    27    1
    48    16    17    1
    49    27    24    1
    50    23    24    1
    51    23    18   am
    52   126   127    1
    53    24    25    1
    54    22    20    1
    55    20    17    1
    56    20    21    1
    57    17    18    1
    58   128   127   ar
    59    25    26    2
    60   127   129   ar
    61    18    19    2
    62    98    97    2
    63    90    89    2
    64    93    91    1
    65    97    96    1
    66    96    95    1
    67    96    99    1
    68    89    95   am
    69    89    88    1
    70   100    99    1
    71   100   101    1
    72    91    88    1
    73    91    92    1
    74    88    87    1
    75   103   101   am
    76    92    94    1
    77   101   102    2
    78    32    33    1
    79    38    37    1
    80    38    39    1
    81    40    39    1
    82    36    33    1
    83    36    37    1
    84    82    81    2
    85    33    34    1
    86    34    35    2
    87    81    80    1
    88    73    72    2
    89    80    83    1
    90    80    79    1
    91    51    49   ar
    92    51    50   ar
    93    49    47   ar
    94    84    83    1
    95    84    85    1
    96    50    48   ar
    97    85    86    1
    98    47    46   ar
    99    48    46   ar
   100    72    79   am
   101    72    71    1
   102    46    45    1
   103    45    42    1
   104    61    60    1
   105    71    74    1
   106    71    70    1
   107    74    75    1
   108    59    60    2
   109    59    58    1
   110    60    62    1
   111    78    76   am
   112    42    41    1
   113    42    43    1
   114    75    76    1
   115    66    65    2
   116    76    77    2
   117    58    57    1
   118    43    44    2
   119    43    52   am
   120    57    56    1
   121    52    53    1
   122    68    67    1
   123    65    64    1
   124    53    56    1
   125    53    54    1
   126    64    67    1
   127    64    63    1
   128    67    69    1
   129    54    55    2
