@<TRIPOS>MOLECULE
tmp/4ofgA01.pdb
 107 103 0 0 0
SMALL
GASTEIGER

@<TRIPOS>ATOM
      1  N         30.8230   37.0120   11.1420 N.3    17  TYR17      -0.1227
      2  CA        30.8820   38.1390   10.2310 C.3    17  TYR17       0.1736
      3  C         30.0610   39.3350   10.7160 C.2    17  TYR17       0.2595
      4  O         30.5520   40.4540   10.7270 O.2    17  TYR17      -0.2718
      5  CB        30.3980   37.6710    8.8620 C.3    17  TYR17       0.0548
      6  CG        30.3090   38.7310    7.7890 C.ar   17  TYR17      -0.0200
      7  CD1       31.4420   39.1780    7.1290 C.ar   17  TYR17      -0.0009
      8  CD2       29.0760   39.2530    7.4160 C.ar   17  TYR17      -0.0009
      9  CE1       31.3530   40.1400    6.1120 C.ar   17  TYR17       0.0417
     10  CE2       28.9730   40.2130    6.4140 C.ar   17  TYR17       0.0417
     11  CZ        30.1080   40.6490    5.7670 C.ar   17  TYR17       0.1957
     12  OH        29.9930   41.6010    4.7800 O.3    17  TYR17      -0.2866
     13  N         28.8190   39.0990   11.1240 N.am   18  ILE18      -0.1980
     14  CA        27.9310   40.2020   11.5010 C.3    18  ILE18       0.1595
     15  C         28.3470   40.9140   12.7930 C.2    18  ILE18       0.2287
     16  O         27.9160   42.0400   13.0560 O.2    18  ILE18      -0.2864
     17  CB        26.4590   39.7410   11.6160 C.3    18  ILE18       0.0276
     18  CG1       26.2990   38.7300   12.7560 C.3    18  ILE18       0.0022
     19  CG2       25.9760   39.1610   10.2800 C.3    18  ILE18       0.0022
     20  CD1       24.8760   38.2470   12.9540 C.3    18  ILE18       0.0001
     21  N         13.0020   36.0970    0.3490 N.3    73  ARG73      -0.1245
     22  CA        14.2920   35.4250    0.3220 C.3    73  ARG73       0.1563
     23  C         14.3670   34.2920    1.3310 C.2    73  ARG73       0.2260
     24  O         13.4540   34.1000    2.1300 O.2    73  ARG73      -0.2867
     25  CB        15.4320   36.4240    0.5660 C.3    73  ARG73       0.0307
     26  CG        15.5620   36.9010    1.9950 C.3    73  ARG73       0.0489
     27  CD        16.5770   38.0420    2.0970 C.3    73  ARG73       0.2205
     28  NE        15.9840   39.3160    1.6990 N.pl3  73  ARG73      -0.0865
     29  CZ        16.2590   39.9600    0.5710 C.cat  73  ARG73       0.5346
     30  NH1       17.1420   39.4640   -0.2800 N.pl3  73  ARG73       0.1354
     31  NH2       15.6560   41.1100    0.3010 N.pl3  73  ARG73       0.1354
     32  N         17.0160   32.8370    4.3260 N.3    75  LEU75      -0.1245
     33  CA        18.1930   33.1620    5.1230 C.3    75  LEU75       0.1561
     34  C         18.7650   31.9090    5.7730 C.2    75  LEU75       0.2260
     35  O         18.0300   30.9610    6.0480 O.2    75  LEU75      -0.2867
     36  CB        17.8300   34.1820    6.1920 C.3    75  LEU75       0.0270
     37  CG        17.3440   35.5410    5.6810 C.3    75  LEU75       0.0019
     38  CD1       16.9970   36.4360    6.8510 C.3    75  LEU75       0.0001
     39  CD2       18.3860   36.2110    4.7900 C.3    75  LEU75       0.0001
     40  N         24.1460   32.1090   10.3830 N.3    78  ASN78      -0.1225
     41  CA        24.9110   33.3270   10.6330 C.3    78  ASN78       0.1785
     42  C         24.3540   34.5730    9.9410 C.2    78  ASN78       0.2597
     43  O         25.0080   35.6160    9.8990 O.2    78  ASN78      -0.2718
     44  CB        26.4090   33.1230   10.3650 C.3    78  ASN78       0.1169
     45  CG        27.0630   32.2040   11.3900 C.2    78  ASN78       0.2627
     46  OD1       26.5510   32.0310   12.4930 O.2    78  ASN78      -0.2716
     47  ND2       28.1950   31.6070   11.0230 N.am   78  ASN78      -0.0877
     48  N         23.1370   34.4510    9.4170 N.am   79  ASP79      -0.1960
     49  CA        22.3470   35.5990    8.9810 C.3    79  ASP79       0.1840
     50  C         21.4940   36.0990   10.1520 C.2    79  ASP79       0.2622
     51  O         21.1390   35.3200   11.0320 O.2    79  ASP79      -0.2715
     52  CB        21.4170   35.2030    7.8310 C.3    79  ASP79       0.1450
     53  CG        22.1640   34.9260    6.5400 C.2    79  ASP79       0.3671
     54  OD1       23.3110   35.4010    6.4100 O.co2  79  ASP79      -0.2456
     55  OD2       21.6040   34.2300    5.6600 O.co2  79  ASP79      -0.2456
     56  N         21.1560   37.3880   10.1610 N.am   80  TYR80      -0.1960
     57  CA        20.2370   37.9240   11.1700 C.3    80  TYR80       0.1771
     58  C         18.8900   38.2910   10.5450 C.2    80  TYR80       0.2619
     59  O         18.7670   38.3980    9.3120 O.2    80  TYR80      -0.2715
     60  CB        20.8410   39.1610   11.8450 C.3    80  TYR80       0.0574
     61  CG        21.0850   40.3130   10.8820 C.ar   80  TYR80      -0.0198
     62  CD1       22.3510   40.5470   10.3620 C.ar   80  TYR80      -0.0009
     63  CD2       20.0500   41.1630   10.4970 C.ar   80  TYR80      -0.0009
     64  CE1       22.5810   41.5920    9.4830 C.ar   80  TYR80       0.0417
     65  CE2       20.2680   42.2100    9.6110 C.ar   80  TYR80       0.0417
     66  CZ        21.5360   42.4180    9.1090 C.ar   80  TYR80       0.1957
     67  OH        21.7640   43.4520    8.2260 O.3    80  TYR80      -0.2866
     68  N         17.8840   38.4730   11.3940 N.am   81  PHE81      -0.1974
     69  CA        16.6190   39.0870   10.9920 C.3    81  PHE81       0.1639
     70  C         15.9100   39.7150   12.1930 C.2    81  PHE81       0.2290
     71  O         16.2440   39.4460   13.3580 O.2    81  PHE81      -0.2864
     72  CB        15.6800   38.0830   10.3000 C.3    81  PHE81       0.0560
     73  CG        15.2940   36.9080   11.1600 C.ar   81  PHE81      -0.0200
     74  CD1       16.0530   35.7440   11.1420 C.ar   81  PHE81      -0.0042
     75  CD2       14.1670   36.9590   11.9810 C.ar   81  PHE81      -0.0042
     76  CE1       15.7120   34.6540   11.9400 C.ar   81  PHE81      -0.0003
     77  CE2       13.8170   35.8700   12.7700 C.ar   81  PHE81      -0.0003
     78  CZ        14.5880   34.7210   12.7550 C.ar   81  PHE81      -0.0000
     79  N         15.4390   43.0540   12.5180 N.3    83  GLU83      -0.1245
     80  CA        16.0490   44.3290   12.8940 C.3    83  GLU83       0.1567
     81  C         15.1860   45.5490   12.5640 C.2    83  GLU83       0.2260
     82  O         15.3000   46.5770   13.2180 O.2    83  GLU83      -0.2867
     83  CB        17.4430   44.4740   12.2770 C.3    83  GLU83       0.0388
     84  CG        17.4750   45.0740   10.8590 C.3    83  GLU83       0.1160
     85  CD        17.0800   44.1010    9.7430 C.2    83  GLU83       0.3649
     86  OE1       16.5600   43.0060   10.0260 O.co2  83  GLU83      -0.2457
     87  OE2       17.2990   44.4450    8.5560 O.co2  83  GLU83      -0.2457
     88  N         21.8680   47.7500    4.0590 N.3   128  ARG128     -0.1245
     89  CA        21.2550   46.5080    3.5770 C.3   128  ARG128      0.1563
     90  C         19.7460   46.6680    3.3990 C.2   128  ARG128      0.2260
     91  O         19.1730   46.2110    2.4160 O.2   128  ARG128     -0.2867
     92  CB        21.5500   45.3330    4.5250 C.3   128  ARG128      0.0307
     93  CG        20.7880   44.0600    4.1680 C.3   128  ARG128      0.0489
     94  CD        21.3090   42.8390    4.9280 C.3   128  ARG128      0.2205
     95  NE        22.6180   42.4070    4.4430 N.pl3 128  ARG128     -0.0865
     96  CZ        23.7820   42.7160    5.0140 C.cat 128  ARG128      0.5346
     97  NH1       23.8160   43.4610    6.1110 N.pl3 128  ARG128      0.1354
     98  NH2       24.9200   42.2780    4.4880 N.pl3 128  ARG128      0.1354
     99  N         17.7160   46.2780   -0.0910 N.3   132  GLN132     -0.1245
    100  CA        16.6480   45.2810   -0.1000 C.3   132  GLN132      0.1566
    101  C         15.3420   45.8780   -0.5870 C.2   132  GLN132      0.2260
    102  O         14.6580   45.2900   -1.4370 O.2   132  GLN132     -0.2867
    103  CB        16.4460   44.6750    1.2950 C.3   132  GLN132      0.0367
    104  CG        17.5110   43.6650    1.6750 C.3   132  GLN132      0.0905
    105  CD        17.2780   43.0570    3.0450 C.2   132  GLN132      0.2608
    106  OE1       16.4990   43.5750    3.8460 O.2   132  GLN132     -0.2717
    107  NE2       17.9490   41.9430    3.3150 N.am  132  GLN132     -0.0878
@<TRIPOS>BOND
     1   102   101    2
     2   101   100    1
     3    30    29    1
     4   100    99    1
     5   100   103    1
     6    31    29    1
     7    22    21    1
     8    22    25    1
     9    22    23    1
    10    25    26    1
    11    29    28    2
    12   103   104    1
    13    23    24    2
    14   104   105    1
    15    28    27    1
    16    26    27    1
    17    91    90    2
    18   105   107   am
    19   105   106    2
    20    90    89    1
    21    89    88    1
    22    89    92    1
    23    93    92    1
    24    93    94    1
    25    32    33    1
    26    95    94    1
    27    95    96    2
    28    98    96    1
    29    12    11    1
    30    39    37    1
    31    96    97    1
    32    33    34    1
    33    33    36    1
    34    55    53   ar
    35    37    36    1
    36    37    38    1
    37    11     9   ar
    38    11    10   ar
    39    34    35    2
    40     9     7   ar
    41    54    53   ar
    42    10     8   ar
    43    53    52    1
    44     7     6   ar
    45     8     6   ar
    46     6     5    1
    47    52    49    1
    48    67    66    1
    49    87    85   ar
    50     5     2    1
    51    49    48    1
    52    49    50    1
    53    66    64   ar
    54    66    65   ar
    55    59    58    2
    56    48    42   am
    57    64    62   ar
    58    65    63   ar
    59    85    86   ar
    60    85    84    1
    61    43    42    2
    62    42    41    1
    63    50    56   am
    64    50    51    2
    65    56    57    1
    66     2     3    1
    67     2     1    1
    68    19    17    1
    69    72    69    1
    70    72    73    1
    71    62    61   ar
    72    44    41    1
    73    44    45    1
    74    40    41    1
    75    63    61   ar
    76    58    57    1
    77    58    68   am
    78     3     4    2
    79     3    13   am
    80    84    83    1
    81    61    60    1
    82    69    68    1
    83    69    70    1
    84    47    45   am
    85    13    14    1
    86    74    73   ar
    87    74    76   ar
    88    73    75   ar
    89    57    60    1
    90    45    46    2
    91    14    17    1
    92    14    15    1
    93    17    18    1
    94    76    78   ar
    95    75    77   ar
    96    70    71    2
    97    83    80    1
    98    79    80    1
    99    81    80    1
   100    81    82    2
   101    78    77   ar
   102    18    20    1
   103    15    16    2
