@<TRIPOS>MOLECULE
tmp/4ofgA05.pdb
 87 82 0 0 0
SMALL
GASTEIGER

@<TRIPOS>ATOM
      1  N         12.7230   46.9600   15.3210 N.3    86  LEU86      -0.1231
      2  CA        13.4610   47.5140   16.4470 C.3    86  LEU86       0.1693
      3  C         14.1490   48.8300   16.0900 C.2    86  LEU86       0.2592
      4  O         14.2170   49.7350   16.9170 O.2    86  LEU86      -0.2718
      5  CB        14.4890   46.4970   16.9680 C.3    86  LEU86       0.0284
      6  CG        14.0330   45.0560   17.2580 C.3    86  LEU86       0.0019
      7  CD1       15.1510   44.2720   17.9400 C.3    86  LEU86       0.0001
      8  CD2       12.7630   44.9960   18.0860 C.3    86  LEU86       0.0001
      9  N         14.6610   48.9370   14.8650 N.am   87  LEU87      -0.1966
     10  CA        15.3280   50.1590   14.4320 C.3    87  LEU87       0.1728
     11  C         14.3520   51.3080   14.2660 C.2    87  LEU87       0.2616
     12  O         14.6940   52.4530   14.5330 O.2    87  LEU87      -0.2715
     13  CB        16.0530   49.9470   13.1020 C.3    87  LEU87       0.0311
     14  CG        17.3800   49.2010   13.1510 C.3    87  LEU87       0.0022
     15  CD1       17.8200   48.8210   11.7390 C.3    87  LEU87       0.0001
     16  CD2       18.4340   50.0490   13.8620 C.3    87  LEU87       0.0001
     17  N         13.1410   51.0040   13.8110 N.am   88  TYR88      -0.1960
     18  CA        12.2160   52.0460   13.3630 C.3    88  TYR88       0.1771
     19  C         10.9280   52.0980   14.1850 C.2    88  TYR88       0.2619
     20  O         10.0100   52.8490   13.8620 O.2    88  TYR88      -0.2715
     21  CB        11.9080   51.8710   11.8640 C.3    88  TYR88       0.0574
     22  CG        13.1500   51.8660   10.9880 C.ar   88  TYR88      -0.0198
     23  CD1       14.0300   52.9460   10.9860 C.ar   88  TYR88      -0.0009
     24  CD2       13.4490   50.7840   10.1720 C.ar   88  TYR88      -0.0009
     25  CE1       15.1760   52.9440   10.2050 C.ar   88  TYR88       0.0417
     26  CE2       14.5940   50.7780    9.3800 C.ar   88  TYR88       0.0417
     27  CZ        15.4490   51.8550    9.4030 C.ar   88  TYR88       0.1957
     28  OH        16.5770   51.8420    8.6130 O.3    88  TYR88      -0.2866
     29  N         10.8710   51.3010   15.2470 N.am   89  ASP89      -0.1971
     30  CA         9.7340   51.3160   16.1720 C.3    89  ASP89       0.1709
     31  C          8.4250   51.0260   15.4370 C.2    89  ASP89       0.2293
     32  O          7.3930   51.6420   15.6950 O.2    89  ASP89      -0.2864
     33  CB         9.6640   52.6510   16.9240 C.3    89  ASP89       0.1436
     34  CG         8.7030   52.6100   18.1040 C.2    89  ASP89       0.3671
     35  OD1        8.2650   53.6900   18.5480 O.co2  89  ASP89      -0.2456
     36  OD2        8.3800   51.5010   18.5800 O.co2  89  ASP89      -0.2456
     37  N         15.3710   44.3640   22.4710 N.3   110  LYS110     -0.1245
     38  CA        15.5880   45.6500   21.8050 C.3   110  LYS110      0.1561
     39  C         16.6690   46.4890   22.4850 C.2   110  LYS110      0.2260
     40  O         17.4960   47.0990   21.8170 O.2   110  LYS110     -0.2867
     41  CB        14.2700   46.4240   21.7340 C.3   110  LYS110      0.0271
     42  CG        14.3690   47.7770   21.0370 C.3   110  LYS110      0.0035
     43  CD        13.0060   48.4010   20.8210 C.3   110  LYS110      0.0206
     44  CE        13.1490   49.7640   20.1600 C.3   110  LYS110      0.1093
     45  NZ        11.8500   50.3220   19.6790 N.3   110  LYS110     -0.1314
     46  N         19.9790   47.6070   20.4000 N.3   114  LEU114     -0.1245
     47  CA        20.3530   48.9990   20.1840 C.3   114  LEU114      0.1561
     48  C         21.7530   49.2800   20.7090 C.2   114  LEU114      0.2260
     49  O         22.4840   50.0760   20.1390 O.2   114  LEU114     -0.2867
     50  CB        19.3410   49.9400   20.8360 C.3   114  LEU114      0.0270
     51  CG        17.9640   49.9060   20.1860 C.3   114  LEU114      0.0019
     52  CD1       17.0090   50.7930   20.9470 C.3   114  LEU114      0.0001
     53  CD2       18.0250   50.3090   18.6980 C.3   114  LEU114      0.0001
     54  N         24.7810   47.3470   18.3210 N.3   117  ILE117     -0.1231
     55  CA        24.9780   47.7820   16.9350 C.3   117  ILE117      0.1692
     56  C         25.6340   49.1540   16.8350 C.2   117  ILE117      0.2591
     57  O         26.1320   49.5130   15.7700 O.2   117  ILE117     -0.2718
     58  CB        23.6580   47.8160   16.1160 C.3   117  ILE117      0.0266
     59  CG1       22.6870   48.8480   16.6960 C.3   117  ILE117      0.0019
     60  CG2       23.0250   46.4370   16.0570 C.3   117  ILE117      0.0020
     61  CD1       21.4100   49.0160   15.8840 C.3   117  ILE117      0.0001
     62  N         25.6270   49.9270   17.9230 N.am  118  GLN118     -0.1979
     63  CA        26.2230   51.2630   17.8730 C.3   118  GLN118      0.1601
     64  C         27.6540   51.1710   17.3670 C.2   118  GLN118      0.2287
     65  O         28.4220   50.3230   17.8110 O.2   118  GLN118     -0.2864
     66  CB        26.1700   51.9640   19.2380 C.3   118  GLN118      0.0394
     67  CG        24.7560   52.2090   19.7600 C.3   118  GLN118      0.0908
     68  CD        23.8310   52.8240   18.7200 C.2   118  GLN118      0.2608
     69  OE1       22.7420   52.3070   18.4540 O.2   118  GLN118     -0.2717
     70  NE2       24.2590   53.9310   18.1280 N.am  118  GLN118     -0.0878
     71  N         25.5270   49.5630   12.7990 N.3   122  LEU122     -0.1245
     72  CA        24.3040   50.2960   12.4910 C.3   122  LEU122      0.1561
     73  C         24.2180   50.7230   11.0230 C.2   122  LEU122      0.2260
     74  O         23.1970   50.5050   10.3670 O.2   122  LEU122     -0.2867
     75  CB        24.1670   51.5150   13.4010 C.3   122  LEU122      0.0270
     76  CG        22.9740   52.4290   13.1080 C.3   122  LEU122      0.0019
     77  CD1       21.6660   51.6340   13.1440 C.3   122  LEU122      0.0001
     78  CD2       22.9370   53.5990   14.0840 C.3   122  LEU122      0.0001
     79  N         21.4420   49.5460    8.0140 N.3   126  GLU126     -0.1245
     80  CA        20.5930   50.4790    7.2760 C.3   126  GLU126      0.1567
     81  C         20.8490   50.4210    5.7720 C.2   126  GLU126      0.2260
     82  O         19.9200   50.5510    4.9720 O.2   126  GLU126     -0.2867
     83  CB        20.7930   51.9080    7.7890 C.3   126  GLU126      0.0388
     84  CG        20.2990   52.1200    9.2140 C.3   126  GLU126      0.1160
     85  CD        20.7000   53.4680    9.7800 C.2   126  GLU126      0.3649
     86  OE1       21.3960   54.2320    9.0750 O.co2 126  GLU126     -0.2457
     87  OE2       20.3220   53.7620   10.9350 O.co2 126  GLU126     -0.2457
@<TRIPOS>BOND
     1    82    81    2
     2    81    80    1
     3    80    83    1
     4    80    79    1
     5    83    84    1
     6    28    27    1
     7    86    85   ar
     8    84    85    1
     9    26    27   ar
    10    26    24   ar
    11    27    25   ar
    12    85    87   ar
    13    24    22   ar
    14    25    23   ar
    15    74    73    2
    16    23    22   ar
    17    22    21    1
    18    73    72    1
    19    15    14    1
    20    21    18    1
    21    72    71    1
    22    72    75    1
    23    13    14    1
    24    13    10    1
    25    76    77    1
    26    76    75    1
    27    76    78    1
    28    14    16    1
    29    18    17    1
    30    18    19    1
    31    17    11   am
    32    20    19    2
    33    19    29   am
    34    11    10    1
    35    11    12    2
    36    10     9    1
    37     9     3   am
    38    29    30    1
    39     1     2    1
    40    31    32    2
    41    31    30    1
    42    57    56    2
    43    61    59    1
    44    60    58    1
    45     3     2    1
    46     3     4    2
    47    58    59    1
    48    58    55    1
    49    30    33    1
    50     2     5    1
    51    56    55    1
    52    56    62   am
    53    33    34    1
    54    55    54    1
    55     5     6    1
    56     6     7    1
    57     6     8    1
    58    64    65    2
    59    64    63    1
    60    63    62    1
    61    63    66    1
    62    34    35   ar
    63    34    36   ar
    64    70    68   am
    65    69    68    2
    66    53    51    1
    67    68    67    1
    68    66    67    1
    69    45    44    1
    70    49    48    2
    71    44    43    1
    72    47    46    1
    73    47    48    1
    74    47    50    1
    75    51    50    1
    76    51    52    1
    77    43    42    1
    78    42    41    1
    79    41    38    1
    80    38    37    1
    81    38    39    1
    82    40    39    2
