@<TRIPOS>MOLECULE
tmp/4ofgA00.pdb
 158 150 0 0 0
SMALL
GASTEIGER

@<TRIPOS>ATOM
      1  N          8.2980   34.9830   13.3210 N.3    46  ILE46      -0.1245
      2  CA         7.8260   36.3530   13.3440 C.3    46  ILE46       0.1561
      3  C          6.6150   36.4120   12.4330 C.2    46  ILE46       0.2260
      4  O          6.6150   35.7890   11.3670 O.2    46  ILE46      -0.2867
      5  CB         8.9080   37.3050   12.7800 C.3    46  ILE46       0.0252
      6  CG1       10.0180   37.5360   13.8030 C.3    46  ILE46       0.0019
      7  CG2        8.3090   38.6350   12.3660 C.3    46  ILE46       0.0019
      8  CD1       11.1380   38.4190   13.2780 C.3    46  ILE46       0.0001
      9  N         11.4980   34.3300    4.2830 N.3    65  ILE65      -0.1245
     10  CA        10.9190   35.6500    4.4980 C.3    65  ILE65       0.1561
     11  C          9.7590   35.8060    3.5210 C.2    65  ILE65       0.2260
     12  O          9.9300   35.6310    2.3110 O.2    65  ILE65      -0.2867
     13  CB        11.9630   36.7620    4.2390 C.3    65  ILE65       0.0252
     14  CG1       13.2840   36.4310    4.9520 C.3    65  ILE65       0.0019
     15  CG2       11.4140   38.1320    4.6430 C.3    65  ILE65       0.0019
     16  CD1       13.1770   36.4400    6.4750 C.3    65  ILE65       0.0001
     17  N          6.2620   38.2980    2.6430 N.3    67  LYS67      -0.1245
     18  CA         5.5770   39.5610    2.8940 C.3    67  LYS67       0.1561
     19  C          4.4320   39.6980    1.9080 C.2    67  LYS67       0.2260
     20  O          4.6500   39.6130    0.7000 O.2    67  LYS67      -0.2867
     21  CB         6.5510   40.7380    2.7350 C.3    67  LYS67       0.0271
     22  CG         5.9200   42.1210    2.8840 C.3    67  LYS67       0.0035
     23  CD         6.9770   43.2160    2.7730 C.3    67  LYS67       0.0206
     24  CE         6.3700   44.6150    2.8100 C.3    67  LYS67       0.1093
     25  NZ         5.6830   44.8600    4.1170 N.3    67  LYS67      -0.1314
     26  N         10.2380   36.6100   -0.2380 N.3    72  LEU72      -0.1231
     27  CA        11.2830   37.5820   -0.4860 C.3    72  LEU72       0.1693
     28  C         12.6670   36.9800   -0.5750 C.2    72  LEU72       0.2591
     29  O         13.4080   37.3070   -1.4550 O.2    72  LEU72      -0.2718
     30  CB        11.2550   38.7230    0.5350 C.3    72  LEU72       0.0284
     31  CG         9.9450   39.4490    0.6200 C.3    72  LEU72       0.0019
     32  CD1       10.0810   40.5800    1.5260 C.3    72  LEU72       0.0001
     33  CD2        9.4990   39.9240   -0.7150 C.3    72  LEU72       0.0001
     34  N         13.0020   36.0970    0.3490 N.am   73  ARG73      -0.1980
     35  CA        14.2920   35.4250    0.3220 C.3    73  ARG73       0.1597
     36  C         14.3670   34.2920    1.3310 C.2    73  ARG73       0.2287
     37  O         13.4540   34.1000    2.1300 O.2    73  ARG73      -0.2864
     38  CB        15.4320   36.4240    0.5660 C.3    73  ARG73       0.0334
     39  CG        15.5620   36.9010    1.9950 C.3    73  ARG73       0.0492
     40  CD        16.5770   38.0420    2.0970 C.3    73  ARG73       0.2205
     41  NE        15.9840   39.3160    1.6990 N.pl3  73  ARG73      -0.0865
     42  CZ        16.2590   39.9600    0.5710 C.cat  73  ARG73       0.5346
     43  NH1       17.1420   39.4640   -0.2800 N.pl3  73  ARG73       0.1354
     44  NH2       15.6560   41.1100    0.3010 N.pl3  73  ARG73       0.1354
     45  N         17.0160   32.8370    4.3260 N.3    75  LEU75      -0.1245
     46  CA        18.1930   33.1620    5.1230 C.3    75  LEU75       0.1561
     47  C         18.7650   31.9090    5.7730 C.2    75  LEU75       0.2260
     48  O         18.0300   30.9610    6.0480 O.2    75  LEU75      -0.2867
     49  CB        17.8300   34.1820    6.1920 C.3    75  LEU75       0.0270
     50  CG        17.3440   35.5410    5.6810 C.3    75  LEU75       0.0019
     51  CD1       16.9970   36.4360    6.8510 C.3    75  LEU75       0.0001
     52  CD2       18.3860   36.2110    4.7900 C.3    75  LEU75       0.0001
     53  N         21.1560   37.3880   10.1610 N.3    80  TYR80      -0.1227
     54  CA        20.2370   37.9240   11.1700 C.3    80  TYR80       0.1736
     55  C         18.8900   38.2910   10.5450 C.2    80  TYR80       0.2595
     56  O         18.7670   38.3980    9.3120 O.2    80  TYR80      -0.2718
     57  CB        20.8410   39.1610   11.8450 C.3    80  TYR80       0.0548
     58  CG        21.0850   40.3130   10.8820 C.ar   80  TYR80      -0.0200
     59  CD1       22.3510   40.5470   10.3620 C.ar   80  TYR80      -0.0009
     60  CD2       20.0500   41.1630   10.4970 C.ar   80  TYR80      -0.0009
     61  CE1       22.5810   41.5920    9.4830 C.ar   80  TYR80       0.0417
     62  CE2       20.2680   42.2100    9.6110 C.ar   80  TYR80       0.0417
     63  CZ        21.5360   42.4180    9.1090 C.ar   80  TYR80       0.1957
     64  OH        21.7640   43.4520    8.2260 O.3    80  TYR80      -0.2866
     65  N         17.8840   38.4730   11.3940 N.am   81  PHE81      -0.1962
     66  CA        16.6190   39.0870   10.9920 C.3    81  PHE81       0.1771
     67  C         15.9100   39.7150   12.1930 C.2    81  PHE81       0.2620
     68  O         16.2440   39.4460   13.3580 O.2    81  PHE81      -0.2715
     69  CB        15.6800   38.0830   10.3000 C.3    81  PHE81       0.0574
     70  CG        15.2940   36.9080   11.1600 C.ar   81  PHE81      -0.0200
     71  CD1       16.0530   35.7440   11.1420 C.ar   81  PHE81      -0.0042
     72  CD2       14.1670   36.9590   11.9810 C.ar   81  PHE81      -0.0042
     73  CE1       15.7120   34.6540   11.9400 C.ar   81  PHE81      -0.0003
     74  CE2       13.8170   35.8700   12.7700 C.ar   81  PHE81      -0.0003
     75  CZ        14.5880   34.7210   12.7550 C.ar   81  PHE81      -0.0000
     76  N         14.9060   40.5280   11.9000 N.am   82  GLY82      -0.1940
     77  CA        14.0770   41.1010   12.9400 C.3    82  GLY82       0.2014
     78  C         14.5860   42.4620   13.3500 C.2    82  GLY82       0.2639
     79  O         14.2050   42.9860   14.3990 O.2    82  GLY82      -0.2714
     80  N         15.4390   43.0540   12.5180 N.am   83  GLU83      -0.1963
     81  CA        16.0490   44.3290   12.8940 C.3    83  GLU83       0.1733
     82  C         15.1860   45.5490   12.5640 C.2    83  GLU83       0.2616
     83  O         15.3000   46.5770   13.2180 O.2    83  GLU83      -0.2715
     84  CB        17.4430   44.4740   12.2770 C.3    83  GLU83       0.0429
     85  CG        17.4750   45.0740   10.8590 C.3    83  GLU83       0.1163
     86  CD        17.0800   44.1010    9.7430 C.2    83  GLU83       0.3649
     87  OE1       16.5600   43.0060   10.0260 O.co2  83  GLU83      -0.2457
     88  OE2       17.2990   44.4450    8.5560 O.co2  83  GLU83      -0.2457
     89  N         14.3230   45.4370   11.5580 N.am   84  ARG84      -0.1963
     90  CA        13.5750   46.6040   11.0900 C.3    84  ARG84       0.1729
     91  C         12.5910   47.1610   12.1100 C.2    84  ARG84       0.2616
     92  O         12.4830   48.3710   12.2640 O.2    84  ARG84      -0.2715
     93  CB        12.8380   46.2960    9.7830 C.3    84  ARG84       0.0348
     94  CG        13.7500   46.1120    8.5940 C.3    84  ARG84       0.0492
     95  CD        12.9170   45.7320    7.3780 C.3    84  ARG84       0.2205
     96  NE        13.7370   45.3920    6.2270 N.pl3  84  ARG84      -0.0865
     97  CZ        13.5990   45.9660    5.0380 C.cat  84  ARG84       0.5346
     98  NH1       12.6800   46.9190    4.8650 N.pl3  84  ARG84       0.1354
     99  NH2       14.3750   45.5930    4.0260 N.pl3  84  ARG84       0.1354
    100  N         11.8700   46.2790   12.7950 N.am   85  ALA85      -0.1977
    101  CA        10.8780   46.7090   13.7830 C.3    85  ALA85       0.1597
    102  C         11.5410   47.4390   14.9470 C.2    85  ALA85       0.2287
    103  O         10.9920   48.4010   15.5000 O.2    85  ALA85      -0.2864
    104  CB        10.1060   45.5090   14.3010 C.3    85  ALA85       0.0319
    105  N          6.3080   44.4270   12.7190 N.3    92  ARG92      -0.1231
    106  CA         7.0580   43.5400   11.8250 C.3    92  ARG92       0.1694
    107  C          6.5990   43.7430   10.3980 C.2    92  ARG92       0.2593
    108  O          5.4010   43.7930   10.1350 O.2    92  ARG92      -0.2718
    109  CB         6.8410   42.0860   12.2320 C.3    92  ARG92       0.0321
    110  CG         7.3320   41.7660   13.6390 C.3    92  ARG92       0.0489
    111  CD         8.8410   41.9480   13.7720 C.3    92  ARG92       0.2205
    112  NE         9.3530   41.3240   14.9950 N.pl3  92  ARG92      -0.0865
    113  CZ        10.6090   41.4090   15.4160 C.cat  92  ARG92       0.5346
    114  NH1       11.5030   42.1030   14.7150 N.pl3  92  ARG92       0.1354
    115  NH2       10.9750   40.7950   16.5410 N.pl3  92  ARG92       0.1354
    116  N          7.5600   43.8780    9.4850 N.am   93  THR93      -0.1939
    117  CA         7.2740   44.2210    8.0960 C.3    93  THR93       0.2028
    118  C          7.1040   42.9930    7.2160 C.2    93  THR93       0.2642
    119  O          6.7230   43.1000    6.0560 O.2    93  THR93      -0.2714
    120  CB         8.3980   45.0700    7.4950 C.3    93  THR93       0.1808
    121  OG1        9.6240   44.3360    7.5550 O.3    93  THR93      -0.2208
    122  CG2        8.5560   46.3770    8.2650 C.3    93  THR93       0.0379
    123  N          7.4000   41.8250    7.7640 N.am   94  ALA94      -0.1977
    124  CA         7.3040   40.5850    7.0110 C.3    94  ALA94       0.1597
    125  C          7.2320   39.4370    8.0000 C.2    94  ALA94       0.2287
    126  O          7.5070   39.6200    9.1900 O.2    94  ALA94      -0.2864
    127  CB         8.5120   40.4220    6.0790 C.3    94  ALA94       0.0319
    128  N          8.5560   35.6130    9.1610 N.3    96  VAL96      -0.1245
    129  CA         9.7400   34.7790    9.0930 C.3    96  VAL96       0.1561
    130  C          9.3720   33.3700    9.5070 C.2    96  VAL96       0.2260
    131  O          8.9280   33.1360   10.6430 O.2    96  VAL96      -0.2867
    132  CB        10.8640   35.3180   10.0000 C.3    96  VAL96       0.0252
    133  CG1       12.0770   34.4060    9.9390 C.3    96  VAL96       0.0019
    134  CG2       11.2270   36.7390    9.6010 C.3    96  VAL96       0.0019
    135  N         17.7160   46.2780   -0.0910 N.3   132  GLN132     -0.1231
    136  CA        16.6480   45.2810   -0.1000 C.3   132  GLN132      0.1698
    137  C         15.3420   45.8780   -0.5870 C.2   132  GLN132      0.2592
    138  O         14.6580   45.2900   -1.4370 O.2   132  GLN132     -0.2718
    139  CB        16.4460   44.6750    1.2950 C.3   132  GLN132      0.0381
    140  CG        17.5110   43.6650    1.6750 C.3   132  GLN132      0.0905
    141  CD        17.2780   43.0570    3.0450 C.2   132  GLN132      0.2608
    142  OE1       16.4990   43.5750    3.8460 O.2   132  GLN132     -0.2717
    143  NE2       17.9490   41.9430    3.3150 N.am  132  GLN132     -0.0878
    144  N         14.9960   47.0360   -0.0410 N.am  133  ASP133     -0.1974
    145  CA        13.7650   47.7200   -0.4170 C.3   133  ASP133      0.1709
    146  C         13.7830   48.1090   -1.8890 C.2   133  ASP133      0.2293
    147  O         12.7500   48.0800   -2.5610 O.2   133  ASP133     -0.2864
    148  CB        13.5530   48.9770    0.4220 C.3   133  ASP133      0.1436
    149  CG        13.2230   48.6720    1.8750 C.2   133  ASP133      0.3671
    150  OD1       12.9500   47.5000    2.2200 O.co2 133  ASP133     -0.2456
    151  OD2       13.2140   49.6220    2.6710 O.co2 133  ASP133     -0.2456
    152  N         13.2740   44.7970   -4.0150 N.3   136  VAL136     -0.1245
    153  CA        11.8870   44.3520   -3.8760 C.3   136  VAL136      0.1561
    154  C         10.9290   45.2370   -4.6750 C.2   136  VAL136      0.2260
    155  O         10.0540   44.7310   -5.3860 O.2   136  VAL136     -0.2867
    156  CB        11.4380   44.3040   -2.4020 C.3   136  VAL136      0.0252
    157  CG1        9.9310   44.2020   -2.3150 C.3   136  VAL136      0.0019
    158  CG2       12.1060   43.1350   -1.6820 C.3   136  VAL136      0.0019
@<TRIPOS>BOND
     1   155   154    2
     2   154   153    1
     3   152   153    1
     4   153   156    1
     5   147   146    2
     6   156   157    1
     7   156   158    1
     8   146   145    1
     9    29    28    2
    10   138   137    2
    11    33    31    1
    12   137   136    1
    13   137   144   am
    14    28    27    1
    15    28    34   am
    16    27    26    1
    17    27    30    1
    18   145   144    1
    19   145   148    1
    20    43    42    1
    21   136   135    1
    22   136   139    1
    23    44    42    1
    24    35    34    1
    25    35    38    1
    26    35    36    1
    27   148   149    1
    28    30    31    1
    29    38    39    1
    30    42    41    2
    31    31    32    1
    32    20    19    2
    33   139   140    1
    34    36    37    2
    35   140   141    1
    36    41    40    1
    37   149   150   ar
    38   149   151   ar
    39    19    18    1
    40    39    40    1
    41    12    11    2
    42    17    18    1
    43    21    22    1
    44    21    18    1
    45    23    24    1
    46    23    22    1
    47    24    25    1
    48   141   143   am
    49   141   142    2
    50    11    10    1
    51    99    97    1
    52    13    10    1
    53    13    15    1
    54    13    14    1
    55     9    10    1
    56    45    46    1
    57    52    50    1
    58    98    97    1
    59    14    16    1
    60    97    96    2
    61    46    47    1
    62    46    49    1
    63    50    49    1
    64    50    51    1
    65    47    48    2
    66   119   118    2
    67   127   124    1
    68    96    95    1
    69   124   123    1
    70   124   125    1
    71   118   123   am
    72   118   117    1
    73    95    94    1
    74   120   121    1
    75   120   117    1
    76   120   122    1
    77   125   126    2
    78   117   116    1
    79    64    63    1
    80    88    86   ar
    81    94    93    1
    82   129   128    1
    83   129   130    1
    84   129   132    1
    85    63    61   ar
    86    63    62   ar
    87    56    55    2
    88    61    59   ar
    89   116   107   am
    90   130   131    2
    91   134   132    1
    92    62    60   ar
    93    86    87   ar
    94    86    85    1
    95    93    90    1
    96   133   132    1
    97   108   107    2
    98    53    54    1
    99    69    66    1
   100    69    70    1
   101    59    58   ar
   102   107   106    1
   103    60    58   ar
   104    55    54    1
   105    55    65   am
   106    85    84    1
   107    58    57    1
   108    66    65    1
   109    66    67    1
   110    90    89    1
   111    90    91    1
   112    71    70   ar
   113    71    73   ar
   114    70    72   ar
   115    54    57    1
   116     4     3    2
   117    89    82   am
   118   106   109    1
   119   106   105    1
   120    76    67   am
   121    76    77    1
   122    73    75   ar
   123    72    74   ar
   124    91    92    2
   125    91   100   am
   126    67    68    2
   127   109   110    1
   128    84    81    1
   129     7     5    1
   130     3     2    1
   131    80    81    1
   132    80    78   am
   133    82    81    1
   134    82    83    2
   135    75    74   ar
   136     5     2    1
   137     5     6    1
   138   100   101    1
   139    77    78    1
   140     8     6    1
   141     1     2    1
   142    78    79    2
   143   110   111    1
   144   111   112    1
   145   101   104    1
   146   101   102    1
   147   114   113    1
   148   102   103    2
   149   112   113    2
   150   113   115    1
