@<TRIPOS>MOLECULE
tmp/4oflB01.pdb
 103 101 0 0 0
SMALL
GASTEIGER

@<TRIPOS>ATOM
      1  N         14.5420   69.0750   35.2750 N.3     9  ASP9       -0.1239
      2  CA        15.7090   69.3200   34.4340 C.3     9  ASP9        0.1674
      3  C         16.1050   70.7930   34.3690 C.2     9  ASP9        0.2266
      4  O         15.2670   71.6840   34.5070 O.2     9  ASP9       -0.2867
      5  CB        15.4500   68.7880   33.0220 C.3     9  ASP9        0.1410
      6  CG        15.1670   67.2970   33.0050 C.2     9  ASP9        0.3668
      7  OD1       13.9970   66.9130   33.2160 O.co2   9  ASP9       -0.2456
      8  OD2       16.1120   66.5100   32.7860 O.co2   9  ASP9       -0.2456
      9  N          9.6050   76.7630   25.7760 N.3    22  SER22      -0.1202
     10  CA         9.1940   75.3630   25.7970 C.3    22  SER22       0.2020
     11  C          9.4140   74.7150   27.1610 C.2    22  SER22       0.2618
     12  O          8.6260   73.8780   27.6030 O.2    22  SER22      -0.2717
     13  CB         9.9450   74.5760   24.7190 C.3    22  SER22       0.2103
     14  OG         9.4210   73.2660   24.5840 O.3    22  SER22      -0.2182
     15  N         10.5050   75.1150   27.8090 N.am   23  HIS23      -0.1975
     16  CA        11.0330   74.4440   28.9950 C.3    23  HIS23       0.1656
     17  C         10.0630   74.3880   30.1740 C.2    23  HIS23       0.2291
     18  O          9.8050   73.3120   30.7150 O.2    23  HIS23      -0.2864
     19  CB        12.3270   75.1380   29.4280 C.3    23  HIS23       0.0771
     20  CG        13.0340   74.4580   30.5570 C.ar   23  HIS23       0.0820
     21  ND1       13.1380   75.0160   31.8110 N.ar   23  HIS23      -0.2267
     22  CD2       13.6810   73.2690   30.6200 C.ar   23  HIS23       0.1154
     23  CE1       13.8150   74.2020   32.6010 C.ar   23  HIS23       0.1986
     24  NE2       14.1550   73.1340   31.9020 N.ar   23  HIS23      -0.2212
     25  N         -0.4570   64.9540   31.9860 N.3   225  GLU225     -0.1245
     26  CA         0.6550   64.2770   31.3240 C.3   225  GLU225      0.1567
     27  C          0.3230   62.8060   31.1140 C.2   225  GLU225      0.2260
     28  O         -0.2400   62.1610   31.9990 O.2   225  GLU225     -0.2867
     29  CB         1.9500   64.4100   32.1320 C.3   225  GLU225      0.0388
     30  CG         3.1500   63.7340   31.4660 C.3   225  GLU225      0.1160
     31  CD         4.3930   63.7250   32.3330 C.2   225  GLU225      0.3649
     32  OE1        4.2920   64.0680   33.5280 O.co2 225  GLU225     -0.2457
     33  OE2        5.4740   63.3840   31.8100 O.co2 225  GLU225     -0.2457
     34  N          1.0450   58.7320   28.9860 N.3   227  ARG227     -0.1245
     35  CA         1.9370   57.7110   28.4640 C.3   227  ARG227      0.1563
     36  C          1.1240   56.8690   27.4980 C.2   227  ARG227      0.2260
     37  O          0.0040   56.4440   27.8350 O.2   227  ARG227     -0.2867
     38  CB         2.5120   56.8300   29.5780 C.3   227  ARG227      0.0307
     39  CG         3.5150   57.5090   30.4910 C.3   227  ARG227      0.0489
     40  CD         4.8040   57.8380   29.7590 C.3   227  ARG227      0.2205
     41  NE         5.8080   58.3750   30.6700 N.pl3 227  ARG227     -0.0865
     42  CZ         5.8550   59.6440   31.0610 C.cat 227  ARG227      0.5346
     43  NH1        6.8040   60.0510   31.8920 N.pl3 227  ARG227      0.1354
     44  NH2        4.9510   60.5080   30.6230 N.pl3 227  ARG227      0.1354
     45  N          9.6950   54.0020   32.2640 N.3   342  ARG342     -0.1245
     46  CA         9.3930   53.6510   30.8830 C.3   342  ARG342      0.1563
     47  C          9.8230   52.2190   30.5880 C.2   342  ARG342      0.2260
     48  O          9.1350   51.4930   29.8730 O.2   342  ARG342     -0.2867
     49  CB        10.0600   54.6330   29.9190 C.3   342  ARG342      0.0307
     50  CG         9.5160   56.0450   30.0440 C.3   342  ARG342      0.0489
     51  CD         9.6460   56.8310   28.7530 C.3   342  ARG342      0.2205
     52  NE         9.2080   58.2140   28.9300 N.pl3 342  ARG342     -0.0865
     53  CZ         9.1540   59.1140   27.9550 C.cat 342  ARG342      0.5346
     54  NH1        9.5110   58.7860   26.7220 N.pl3 342  ARG342      0.1354
     55  NH2        8.7430   60.3470   28.2150 N.pl3 342  ARG342      0.1354
     56  N         17.1260   59.3180   22.6920 N.3   367  TRP367     -0.1241
     57  CA        16.2140   59.9560   21.7510 C.3   367  TRP367      0.1605
     58  C         16.8350   60.0420   20.3560 C.2   367  TRP367      0.2264
     59  O         16.1340   59.9230   19.3410 O.2   367  TRP367     -0.2867
     60  CB        15.8220   61.3480   22.2470 C.3   367  TRP367      0.0550
     61  CG        14.7190   61.3520   23.2780 C.ar  367  TRP367      0.0003
     62  CD1       14.7980   61.8060   24.5640 C.ar  367  TRP367      0.0946
     63  CD2       13.3710   60.8870   23.1000 C.ar  367  TRP367      0.0152
     64  NE1       13.5860   61.6530   25.1960 N.ar  367  TRP367     -0.2442
     65  CE2       12.6960   61.0920   24.3210 C.ar  367  TRP367      0.0810
     66  CE3       12.6760   60.3190   22.0310 C.ar  367  TRP367      0.0012
     67  CZ2       11.3550   60.7450   24.4970 C.ar  367  TRP367      0.0191
     68  CZ3       11.3470   59.9750   22.2090 C.ar  367  TRP367      0.0001
     69  CH2       10.7000   60.1890   23.4320 C.ar  367  TRP367      0.0015
     70  N          3.2200   62.5750   26.7070 N.3   383  TRP383     -0.1241
     71  CA         2.7530   63.8530   26.1920 C.3   383  TRP383      0.1605
     72  C          1.7670   64.4460   27.1910 C.2   383  TRP383      0.2264
     73  O          1.7920   64.1020   28.3740 O.2   383  TRP383     -0.2867
     74  CB         2.0830   63.6870   24.8220 C.3   383  TRP383      0.0550
     75  CG         2.9920   63.2700   23.6970 C.ar  383  TRP383      0.0003
     76  CD1        3.0320   62.0520   23.0890 C.ar  383  TRP383      0.0946
     77  CD2        3.9620   64.0840   23.0240 C.ar  383  TRP383      0.0152
     78  NE1        3.9760   62.0490   22.0900 N.ar  383  TRP383     -0.2442
     79  CE2        4.5610   63.2860   22.0290 C.ar  383  TRP383      0.0810
     80  CE3        4.3870   65.4070   23.1710 C.ar  383  TRP383      0.0012
     81  CZ2        5.5620   63.7680   21.1870 C.ar  383  TRP383      0.0191
     82  CZ3        5.3800   65.8830   22.3350 C.ar  383  TRP383      0.0001
     83  CH2        5.9570   65.0670   21.3570 C.ar  383  TRP383      0.0015
     84  N          2.8210   67.7590   30.6340 N.3   480  HIS480     -0.1226
     85  CA         4.0500   67.0350   30.3360 C.3   480  HIS480      0.1752
     86  C          5.2430   67.9640   30.4410 C.2   480  HIS480      0.2597
     87  O          5.2270   69.0880   29.9350 O.2   480  HIS480     -0.2718
     88  CB         4.0020   66.4110   28.9390 C.3   480  HIS480      0.0759
     89  CG         5.2870   65.7630   28.5210 C.ar  480  HIS480      0.0818
     90  ND1        5.8090   64.6590   29.1620 N.ar  480  HIS480     -0.2268
     91  CD2        6.1570   66.0660   27.5290 C.ar  480  HIS480      0.1154
     92  CE1        6.9440   64.3110   28.5820 C.ar  480  HIS480      0.1986
     93  NE2        7.1780   65.1480   27.5870 N.ar  480  HIS480     -0.2212
     94  N          6.2770   67.4820   31.1150 N.am  481  GLY481     -0.1942
     95  CA         7.4690   68.2670   31.3250 C.3   481  GLY481      0.2014
     96  C          7.7650   68.4050   32.7990 C.2   481  GLY481      0.2639
     97  O          7.0690   67.8430   33.6470 O.2   481  GLY481     -0.2714
     98  N          8.8040   69.1680   33.1010 N.am  482  SER482     -0.1949
     99  CA         9.1810   69.4490   34.4730 C.3   482  SER482      0.1924
    100  C          8.8710   70.9130   34.7530 C.2   482  SER482      0.2314
    101  O          8.5700   71.6730   33.8290 O.2   482  SER482     -0.2863
    102  CB        10.6540   69.1240   34.7240 C.3   482  SER482      0.2116
    103  OG        10.9590   67.7960   34.3300 O.3   482  SER482     -0.2180
@<TRIPOS>BOND
     1    59    58    2
     2    58    57    1
     3    81    83   ar
     4    81    79   ar
     5    83    82   ar
     6    57    60    1
     7    57    56    1
     8    79    78   ar
     9    79    77   ar
    10    66    68   ar
    11    66    63   ar
    12    78    76   ar
    13    68    69   ar
    14    60    61    1
    15    82    80   ar
    16    77    80   ar
    17    77    75   ar
    18    76    75   ar
    19    63    61   ar
    20    63    65   ar
    21    61    62   ar
    22    69    67   ar
    23    75    74    1
    24    65    67   ar
    25    65    64   ar
    26    62    64   ar
    27    14    13    1
    28    13    10    1
    29    74    71    1
    30     9    10    1
    31    10    11    1
    32    71    70    1
    33    71    72    1
    34    54    53    1
    35    11    12    2
    36    11    15   am
    37    72    73    2
    38    36    37    2
    39    36    35    1
    40    91    93   ar
    41    91    89   ar
    42    93    92   ar
    43    15    16    1
    44    53    55    1
    45    53    52    2
    46    35    34    1
    47    35    38    1
    48    89    88    1
    49    89    90   ar
    50    92    90   ar
    51    51    52    1
    52    51    50    1
    53    88    85    1
    54    16    19    1
    55    16    17    1
    56    19    20    1
    57    38    39    1
    58    40    39    1
    59    40    41    1
    60    48    47    2
    61    49    50    1
    62    49    46    1
    63    87    86    2
    64    17    18    2
    65    85    86    1
    66    85    84    1
    67    86    94   am
    68    20    22   ar
    69    20    21   ar
    70    47    46    1
    71    22    24   ar
    72    44    42    1
    73    41    42    2
    74    46    45    1
    75    42    43    1
    76    27    26    1
    77    27    28    2
    78    94    95    1
    79    26    25    1
    80    26    29    1
    81    95    96    1
    82    30    29    1
    83    30    31    1
    84    33    31   ar
    85    21    23   ar
    86    24    23   ar
    87    31    32   ar
    88     8     6   ar
    89    96    98   am
    90    96    97    2
    91     6     5    1
    92     6     7   ar
    93     5     2    1
    94    98    99    1
    95   101   100    2
    96   103   102    1
    97     3     2    1
    98     3     4    2
    99     2     1    1
   100    99   102    1
   101    99   100    1
