@<TRIPOS>MOLECULE
tmp/4ofrA00.pdb
 148 139 0 0 0
SMALL
GASTEIGER

@<TRIPOS>ATOM
      1  N         30.8260    9.4860    9.7440 N.3    42  LEU42      -0.1231
      2  CA        31.0600    9.2160   11.1850 C.3    42  LEU42       0.1693
      3  C         31.6650   10.4280   11.9030 C.2    42  LEU42       0.2591
      4  O         31.3870   10.6890   13.0840 O.2    42  LEU42      -0.2718
      5  CB        31.9740    7.9900   11.3320 C.3    42  LEU42       0.0284
      6  CG        32.3060    7.4440   12.7260 C.3    42  LEU42       0.0019
      7  CD1       31.0640    6.8670   13.3990 C.3    42  LEU42       0.0001
      8  CD2       33.3880    6.3770   12.6380 C.3    42  LEU42       0.0001
      9  N         32.5220   11.1570   11.1890 N.am   43  VAL43      -0.1980
     10  CA        33.0700   12.4070   11.7180 C.3    43  VAL43       0.1595
     11  C         31.9390   13.3360   12.1160 C.2    43  VAL43       0.2287
     12  O         31.8420   13.7860   13.2700 O.2    43  VAL43      -0.2864
     13  CB        34.0470   13.0510   10.7090 C.3    43  VAL43       0.0276
     14  CG1       34.2830   14.5210   11.0130 C.3    43  VAL43       0.0022
     15  CG2       35.3730   12.2680   10.7300 C.3    43  VAL43       0.0022
     16  N         29.7910   12.0740   15.0780 N.3    46  VAL46      -0.1231
     17  CA        30.4730   12.3410   16.3350 C.3    46  VAL46       0.1692
     18  C         30.3080   13.8060   16.7650 C.2    46  VAL46       0.2591
     19  O         29.9650   14.1240   17.9150 O.2    46  VAL46      -0.2718
     20  CB        31.9740   11.9460   16.2520 C.3    46  VAL46       0.0266
     21  CG1       32.7870   12.5920   17.3670 C.3    46  VAL46       0.0020
     22  CG2       32.1180   10.4310   16.3310 C.3    46  VAL46       0.0020
     23  N         30.5400   14.7130   15.8490 N.am   47  LYS47      -0.1980
     24  CA        30.4390   16.1090   16.2270 C.3    47  LYS47       0.1596
     25  C         29.0150   16.4520   16.6490 C.2    47  LYS47       0.2287
     26  O         28.7850   17.1000   17.6830 O.2    47  LYS47      -0.2864
     27  CB        30.8850   16.9680   15.0770 C.3    47  LYS47       0.0298
     28  CG        32.3780   16.9020   14.8360 C.3    47  LYS47       0.0038
     29  CD        32.6670   17.4600   13.4550 C.3    47  LYS47       0.0206
     30  CE        34.1440   17.7190   13.2350 C.3    47  LYS47       0.1093
     31  NZ        34.3280   18.5470   12.0100 N.3    47  LYS47      -0.1314
     32  N         28.0580   14.7730   20.2720 N.3    50  LYS50      -0.1245
     33  CA        28.6550   15.6010   21.3420 C.3    50  LYS50       0.1561
     34  C         27.8250   16.8800   21.6490 C.2    50  LYS50       0.2260
     35  O         27.7210   17.3210   22.8100 O.2    50  LYS50      -0.2867
     36  CB        30.0980   16.0070   20.9590 C.3    50  LYS50       0.0271
     37  CG        31.1860   14.9220   21.1230 C.3    50  LYS50       0.0035
     38  CD        32.5570   15.5430   20.8470 C.3    50  LYS50       0.0206
     39  CE        33.7640   14.6560   21.1700 C.3    50  LYS50       0.1093
     40  NZ        34.8550   14.8680   20.1760 N.3    50  LYS50      -0.1314
     41  N         23.8620   14.9440   26.1990 N.3    55  PHE55      -0.1241
     42  CA        24.6880   13.8230   25.7980 C.3    55  PHE55       0.1605
     43  C         25.9670   13.7230   26.6100 C.2    55  PHE55       0.2264
     44  O         26.3900   12.6080   26.9740 O.2    55  PHE55      -0.2867
     45  CB        25.0160   13.8800   24.3160 C.3    55  PHE55       0.0534
     46  CG        25.7610   12.6670   23.8170 C.ar   55  PHE55      -0.0203
     47  CD1       25.0910   11.4880   23.5410 C.ar   55  PHE55      -0.0042
     48  CD2       27.1450   12.7020   23.6350 C.ar   55  PHE55      -0.0042
     49  CE1       25.7860   10.3700   23.0790 C.ar   55  PHE55      -0.0003
     50  CE2       27.8330   11.6070   23.1840 C.ar   55  PHE55      -0.0003
     51  CZ        27.1580   10.4310   22.9080 C.ar   55  PHE55      -0.0000
     52  N         31.8530    9.0640   29.4770 N.3    60  VAL60      -0.1231
     53  CA        32.5280    9.1550   28.1920 C.3    60  VAL60       0.1692
     54  C         32.6810    7.8490   27.4460 C.2    60  VAL60       0.2592
     55  O         32.7040    7.8520   26.2120 O.2    60  VAL60      -0.2718
     56  CB        33.9100    9.8620   28.3460 C.3    60  VAL60       0.0266
     57  CG1       34.7280    9.2160   29.4510 C.3    60  VAL60       0.0020
     58  CG2       34.6970    9.8980   27.0460 C.3    60  VAL60       0.0020
     59  N         32.8240    6.7360   28.1560 N.am   61  ASP61      -0.1974
     60  CA        32.9300    5.4200   27.4960 C.3    61  ASP61       0.1709
     61  C         31.5800    5.0380   26.9490 C.2    61  ASP61       0.2293
     62  O         31.4890    4.4610   25.8840 O.2    61  ASP61      -0.2864
     63  CB        33.4300    4.3250   28.4570 C.3    61  ASP61       0.1436
     64  CG        34.9440    4.4460   28.7860 C.2    61  ASP61       0.3671
     65  OD1       35.7440    4.7120   27.8620 O.co2  61  ASP61      -0.2456
     66  OD2       35.3350    4.2260   29.9690 O.co2  61  ASP61      -0.2456
     67  N         29.4960    7.2160   25.9960 N.3    63  GLN63      -0.1231
     68  CA        29.3230    8.0910   24.8490 C.3    63  GLN63       0.1698
     69  C         29.8460    7.4270   23.6110 C.2    63  GLN63       0.2592
     70  O         29.1410    7.3290   22.6050 O.2    63  GLN63      -0.2718
     71  CB        30.0600    9.4020   25.0190 C.3    63  GLN63       0.0381
     72  CG        29.4910   10.2920   26.0650 C.3    63  GLN63       0.0905
     73  CD        30.2910   11.5820   26.2050 C.2    63  GLN63       0.2608
     74  OE1       30.8790   12.0500   25.2470 O.2    63  GLN63      -0.2717
     75  NE2       30.3110   12.1580   27.4130 N.am   63  GLN63      -0.0878
     76  N         31.0910    6.9540   23.6980 N.am   64  MET64      -0.1965
     77  CA        31.7670    6.3340   22.5610 C.3    64  MET64       0.1736
     78  C         31.0740    5.0330   22.1770 C.2    64  MET64       0.2616
     79  O         30.9170    4.7290   21.0000 O.2    64  MET64      -0.2715
     80  CB        33.2140    6.0230   22.9150 C.3    64  MET64       0.0427
     81  CG        33.8730    7.1220   23.7170 C.3    64  MET64       0.0599
     82  SD        35.6270    6.8390   23.9190 S.3    64  MET64      -0.1393
     83  CE        36.0600    7.2290   22.2440 C.3    64  MET64       0.0692
     84  N         30.7010    4.2700   23.1990 N.am   65  ALA65      -0.1977
     85  CA        30.0050    3.0120   23.0160 C.3    65  ALA65       0.1597
     86  C         28.7390    3.1840   22.1570 C.2    65  ALA65       0.2287
     87  O         28.6150    2.4990   21.1630 O.2    65  ALA65      -0.2864
     88  CB        29.6470    2.4010   24.3790 C.3    65  ALA65       0.0319
     89  N         27.6760    5.5470   20.1810 N.3    67  ILE67      -0.1231
     90  CA        28.0170    6.0110   18.8260 C.3    67  ILE67       0.1692
     91  C         28.4770    4.8630   17.9550 C.2    67  ILE67       0.2591
     92  O         28.0470    4.7150   16.8170 O.2    67  ILE67      -0.2718
     93  CB        29.0960    7.1270   18.8510 C.3    67  ILE67       0.0266
     94  CG1       28.4660    8.4100   19.3780 C.3    67  ILE67       0.0019
     95  CG2       29.6670    7.3880   17.4550 C.3    67  ILE67       0.0020
     96  CD1       29.4260    9.5500   19.6350 C.3    67  ILE67       0.0001
     97  N         29.3750    4.0610   18.5010 N.am   68  GLN68      -0.1979
     98  CA        29.9230    2.9100   17.7950 C.3    68  GLN68       0.1601
     99  C         28.8660    1.8040   17.5430 C.2    68  GLN68       0.2287
    100  O         28.9200    1.1040   16.5540 O.2    68  GLN68      -0.2864
    101  CB        31.1050    2.3500   18.5990 C.3    68  GLN68       0.0394
    102  CG        32.3460    3.2430   18.5820 C.3    68  GLN68       0.0908
    103  CD        33.4970    2.7310   19.4340 C.2    68  GLN68       0.2608
    104  OE1       34.5590    2.3900   18.9190 O.2    68  GLN68      -0.2717
    105  NE2       33.3090    2.7150   20.7320 N.am   68  GLN68      -0.0878
    106  N         40.5440    3.4300    8.2790 N.3   218  GLU218     -0.1231
    107  CA        41.0550    2.9010    9.5440 C.3   218  GLU218      0.1699
    108  C         39.9670    2.6920   10.6160 C.2   218  GLU218      0.2592
    109  O         39.8240    1.6130   11.1670 O.2   218  GLU218     -0.2718
    110  CB        42.2120    3.7560   10.0930 C.3   218  GLU218      0.0402
    111  CG        41.9470    5.2630   10.1690 C.3   218  GLU218      0.1161
    112  CD        42.7670    5.9690   11.2520 C.2   218  GLU218      0.3649
    113  OE1       43.2670    5.2850   12.1780 O.co2 218  GLU218     -0.2457
    114  OE2       42.9040    7.2170   11.1780 O.co2 218  GLU218     -0.2457
    115  N         39.2080    3.7220   10.9220 N.am  219  MET219     -0.1979
    116  CA        38.2770    3.6120   12.0270 C.3   219  MET219      0.1605
    117  C         37.0910    2.7300   11.7040 C.2   219  MET219      0.2287
    118  O         36.5400    2.1180   12.5930 O.2   219  MET219     -0.2864
    119  CB        37.8040    4.9820   12.4830 C.3   219  MET219      0.0413
    120  CG        38.6840    5.5300   13.5850 C.3   219  MET219      0.0598
    121  SD        38.1110    7.1440   14.0690 S.3   219  MET219     -0.1393
    122  CE        38.0920    8.0240   12.5050 C.3   219  MET219      0.0692
    123  N         38.1600   -0.7730   12.5030 N.3   222  GLU222     -0.1231
    124  CA        38.2660   -1.0100   13.9250 C.3   222  GLU222      0.1699
    125  C         36.8730   -1.2720   14.4630 C.2   222  GLU222      0.2592
    126  O         36.6220   -2.2590   15.1520 O.2   222  GLU222     -0.2718
    127  CB        38.8960    0.1820   14.6280 C.3   222  GLU222      0.0402
    128  CG        38.8830    0.0650   16.1640 C.3   222  GLU222      0.1161
    129  CD        39.5060    1.2700   16.8820 C.2   222  GLU222      0.3649
    130  OE1       40.7080    1.5710   16.6390 O.co2 222  GLU222     -0.2457
    131  OE2       38.7990    1.9070   17.7080 O.co2 222  GLU222     -0.2457
    132  N         35.9630   -0.3750   14.1380 N.am  223  ILE223     -0.1980
    133  CA        34.6080   -0.4900   14.6160 C.3   223  ILE223      0.1595
    134  C         33.9390   -1.7840   14.0980 C.2   223  ILE223      0.2287
    135  O         33.2640   -2.4750   14.8640 O.2   223  ILE223     -0.2864
    136  CB        33.8210    0.7770   14.2350 C.3   223  ILE223      0.0276
    137  CG1       34.2880    1.9540   15.0820 C.3   223  ILE223      0.0022
    138  CG2       32.3210    0.5760   14.4120 C.3   223  ILE223      0.0022
    139  CD1       33.9030    3.2970   14.4920 C.3   223  ILE223      0.0001
    140  N         33.4690   -3.7540   17.4990 N.3   227  GLN227     -0.1245
    141  CA        32.2000   -3.3560   18.0590 C.3   227  GLN227      0.1566
    142  C         31.0680   -4.1410   17.4300 C.2   227  GLN227      0.2260
    143  O         30.3020   -4.7660   18.1460 O.2   227  GLN227     -0.2867
    144  CB        31.9700   -1.8470   17.8810 C.3   227  GLN227      0.0367
    145  CG        33.1050   -0.9900   18.3990 C.3   227  GLN227      0.0905
    146  CD        33.3000   -1.1660   19.8640 C.2   227  GLN227      0.2608
    147  OE1       32.4050   -1.6500   20.5590 O.2   227  GLN227     -0.2717
    148  NE2       34.4790   -0.7970   20.3550 N.am  227  GLN227     -0.0878
@<TRIPOS>BOND
     1   106   107    1
     2   107   110    1
     3   107   108    1
     4     1     2    1
     5   110   111    1
     6   111   112    1
     7   108   115   am
     8   108   109    2
     9    13    15    1
    10    13    14    1
    11    13    10    1
    12   115   116    1
    13   114   112   ar
    14     2     5    1
    15     2     3    1
    16     9    10    1
    17     9     3   am
    18   112   113   ar
    19     5     6    1
    20   117   116    1
    21   117   118    2
    22    10    11    1
    23     3     4    2
    24    31    30    1
    25   116   119    1
    26    11    12    2
    27   119   120    1
    28   123   124    1
    29   122   121    1
    30     8     6    1
    31     6     7    1
    32    30    29    1
    33    29    28    1
    34   120   121    1
    35   124   125    1
    36   124   127    1
    37   134   133    1
    38   134   135    2
    39   132   125   am
    40   132   133    1
    41   136   138    1
    42   136   133    1
    43   136   137    1
    44   125   126    2
    45   139   137    1
    46   127   128    1
    47    28    27    1
    48    27    24    1
    49    16    17    1
    50    23    24    1
    51    23    18   am
    52   128   129    1
    53    24    25    1
    54    20    22    1
    55    20    17    1
    56    20    21    1
    57    17    18    1
    58   100    99    2
    59   130   129   ar
    60    25    26    2
    61    18    19    2
    62    92    91    2
    63   129   131   ar
    64   142   141    1
    65   142   143    2
    66    95    93    1
    67   140   141    1
    68    99    98    1
    69    98    97    1
    70    98   101    1
    71   144   141    1
    72   144   145    1
    73    91    97   am
    74    91    90    1
    75   145   146    1
    76   102   101    1
    77   102   103    1
    78    90    93    1
    79    90    89    1
    80    93    94    1
    81   104   103    2
    82    94    96    1
    83   103   105   am
    84   146   148   am
    85   146   147    2
    86    40    39    1
    87    32    33    1
    88    38    37    1
    89    38    39    1
    90    36    37    1
    91    36    33    1
    92    79    78    2
    93    87    86    2
    94    33    34    1
    95    34    35    2
    96    86    85    1
    97    78    77    1
    98    78    84   am
    99    83    82    1
   100    77    80    1
   101    77    76    1
   102    70    69    2
   103    51    49   ar
   104    51    50   ar
   105    80    81    1
   106    85    84    1
   107    85    88    1
   108    49    47   ar
   109    50    48   ar
   110    47    46   ar
   111    69    76   am
   112    69    68    1
   113    48    46   ar
   114    81    82    1
   115    46    45    1
   116    45    42    1
   117    68    71    1
   118    68    67    1
   119    71    72    1
   120    74    73    2
   121    42    41    1
   122    42    43    1
   123    62    61    2
   124    72    73    1
   125    73    75   am
   126    55    54    2
   127    43    44    2
   128    61    60    1
   129    58    56    1
   130    54    59   am
   131    54    53    1
   132    60    59    1
   133    60    63    1
   134    65    64   ar
   135    53    56    1
   136    53    52    1
   137    56    57    1
   138    63    64    1
   139    64    66   ar
