@<TRIPOS>MOLECULE
tmp/4ofuA00.pdb
 135 126 0 0 0
SMALL
GASTEIGER

@<TRIPOS>ATOM
      1  N        -31.2030    9.1190   -9.7170 N.3    42  LEU42      -0.1231
      2  CA       -31.4480    8.8470  -11.1400 C.3    42  LEU42       0.1693
      3  C        -31.9470   10.1260  -11.8800 C.2    42  LEU42       0.2591
      4  O        -31.5260   10.4240  -12.9840 O.2    42  LEU42      -0.2718
      5  CB       -32.4560    7.7210  -11.2990 C.3    42  LEU42       0.0284
      6  CG       -32.4500    6.8480  -12.5460 C.3    42  LEU42       0.0019
      7  CD1      -31.0730    6.2660  -12.8500 C.3    42  LEU42       0.0001
      8  CD2      -33.4460    5.7130  -12.3580 C.3    42  LEU42       0.0001
      9  N        -32.7910   10.9070  -11.2200 N.am   43  VAL43      -0.1980
     10  CA       -33.3400   12.1370  -11.8530 C.3    43  VAL43       0.1595
     11  C        -32.1970   13.1120  -12.2100 C.2    43  VAL43       0.2287
     12  O        -32.1850   13.6960  -13.2770 O.2    43  VAL43      -0.2864
     13  CB       -34.3870   12.7540  -10.9040 C.3    43  VAL43       0.0276
     14  CG1      -34.6400   14.2370  -11.1580 C.3    43  VAL43       0.0022
     15  CG2      -35.6760   11.9010  -10.8980 C.3    43  VAL43       0.0022
     16  N        -30.0820   11.9710  -14.9840 N.3    46  VAL46      -0.1231
     17  CA       -30.6980   12.2220  -16.2820 C.3    46  VAL46       0.1692
     18  C        -30.4330   13.6920  -16.7510 C.2    46  VAL46       0.2591
     19  O        -30.0940   13.9810  -17.9280 O.2    46  VAL46      -0.2718
     20  CB       -32.2640   11.9290  -16.1980 C.3    46  VAL46       0.0266
     21  CG1      -33.0490   12.7090  -17.2420 C.3    46  VAL46       0.0020
     22  CG2      -32.5570   10.4500  -16.3180 C.3    46  VAL46       0.0020
     23  N        -30.6200   14.6220  -15.8410 N.am   47  LYS47      -0.1980
     24  CA       -30.5780   16.0340  -16.2480 C.3    47  LYS47       0.1596
     25  C        -29.1110   16.4120  -16.5390 C.2    47  LYS47       0.2287
     26  O        -28.8150   17.1050  -17.5120 O.2    47  LYS47      -0.2864
     27  CB       -31.1430   16.8960  -15.1140 C.3    47  LYS47       0.0298
     28  CG       -32.6890   16.8040  -14.9940 C.3    47  LYS47       0.0038
     29  CD       -33.0890   16.9110  -13.5360 C.3    47  LYS47       0.0206
     30  CE       -33.4990   18.3020  -13.1550 C.3    47  LYS47       0.1093
     31  NZ       -34.6970   18.1920  -12.2890 N.3    47  LYS47      -0.1314
     32  N        -28.1500   14.8640  -20.1410 N.3    50  LYS50      -0.1245
     33  CA       -28.7130   15.6100  -21.2480 C.3    50  LYS50       0.1561
     34  C        -27.9140   16.8960  -21.4840 C.2    50  LYS50       0.2260
     35  O        -27.8290   17.3510  -22.5870 O.2    50  LYS50      -0.2867
     36  CB       -30.1960   15.9820  -20.9620 C.3    50  LYS50       0.0271
     37  CG       -31.1820   14.8280  -21.2330 C.3    50  LYS50       0.0035
     38  CD       -32.5120   15.1130  -20.5370 C.3    50  LYS50       0.0206
     39  CE       -33.6610   14.2330  -21.0140 C.3    50  LYS50       0.1093
     40  NZ       -34.9260   14.8800  -20.5770 N.3    50  LYS50      -0.1314
     41  N        -23.7560   14.9530  -26.0760 N.3    55  PHE55      -0.1241
     42  CA       -24.6840   13.8530  -25.7090 C.3    55  PHE55       0.1605
     43  C        -25.9600   13.7340  -26.5850 C.2    55  PHE55       0.2264
     44  O        -26.3520   12.6150  -26.9820 O.2    55  PHE55      -0.2867
     45  CB       -24.9820   13.8840  -24.2180 C.3    55  PHE55       0.0534
     46  CG       -25.7560   12.6860  -23.7340 C.ar   55  PHE55      -0.0203
     47  CD1      -25.1250   11.4350  -23.5980 C.ar   55  PHE55      -0.0042
     48  CD2      -27.1270   12.7890  -23.4560 C.ar   55  PHE55      -0.0042
     49  CE1      -25.8280   10.3190  -23.1550 C.ar   55  PHE55      -0.0003
     50  CE2      -27.8430   11.6800  -23.0190 C.ar   55  PHE55      -0.0003
     51  CZ       -27.1910   10.4410  -22.8560 C.ar   55  PHE55      -0.0000
     52  N        -31.8030    9.0810  -29.5650 N.3    60  VAL60      -0.1245
     53  CA       -32.5290    9.0870  -28.3020 C.3    60  VAL60       0.1561
     54  C        -32.5510    7.7660  -27.5360 C.2    60  VAL60       0.2260
     55  O        -32.4980    7.7640  -26.3070 O.2    60  VAL60      -0.2867
     56  CB       -34.0150    9.6090  -28.4230 C.3    60  VAL60       0.0252
     57  CG1      -34.5730    9.9400  -27.0520 C.3    60  VAL60       0.0019
     58  CG2      -34.0850   10.8790  -29.2370 C.3    60  VAL60       0.0019
     59  N        -29.2250    7.2770  -25.9610 N.3    63  GLN63      -0.1231
     60  CA       -29.1760    8.1830  -24.8330 C.3    63  GLN63       0.1698
     61  C        -29.7990    7.5430  -23.6430 C.2    63  GLN63       0.2592
     62  O        -29.2720    7.5980  -22.5860 O.2    63  GLN63      -0.2718
     63  CB       -29.9530    9.4470  -25.1000 C.3    63  GLN63       0.0381
     64  CG       -29.3740   10.3680  -26.1220 C.3    63  GLN63       0.0905
     65  CD       -30.1650   11.6460  -26.2120 C.2    63  GLN63       0.2608
     66  OE1      -30.1630   12.3110  -27.2130 O.2    63  GLN63      -0.2717
     67  NE2      -30.8420   11.9730  -25.1620 N.am   63  GLN63      -0.0878
     68  N        -30.9390    6.9270  -23.8240 N.am   64  MET64      -0.1979
     69  CA       -31.5860    6.3370  -22.7010 C.3    64  MET64       0.1605
     70  C        -30.9200    5.0190  -22.3340 C.2    64  MET64       0.2287
     71  O        -30.7920    4.6920  -21.1690 O.2    64  MET64      -0.2864
     72  CB       -33.0380    6.0560  -23.0260 C.3    64  MET64       0.0413
     73  CG       -33.8420    7.3140  -23.3500 C.3    64  MET64       0.0598
     74  SD       -35.6410    6.9750  -23.2670 S.3    64  MET64      -0.1393
     75  CE       -35.9560    6.1650  -24.8380 C.3    64  MET64       0.0692
     76  N        -27.7270    5.5890  -20.2370 N.3    67  ILE67      -0.1231
     77  CA       -28.0690    5.9780  -18.8750 C.3    67  ILE67       0.1692
     78  C        -28.5220    4.7810  -18.0170 C.2    67  ILE67       0.2591
     79  O        -28.0680    4.6040  -16.8650 O.2    67  ILE67      -0.2718
     80  CB       -29.1070    7.1620  -18.8510 C.3    67  ILE67       0.0266
     81  CG1      -28.4240    8.4380  -19.3200 C.3    67  ILE67       0.0019
     82  CG2      -29.5750    7.4350  -17.4570 C.3    67  ILE67       0.0020
     83  CD1      -29.3550    9.5320  -19.8290 C.3    67  ILE67       0.0001
     84  N        -29.4090    3.9650  -18.5690 N.am   68  GLN68      -0.1979
     85  CA       -29.9890    2.8680  -17.8180 C.3    68  GLN68       0.1601
     86  C        -29.0040    1.7250  -17.5400 C.2    68  GLN68       0.2287
     87  O        -29.2650    0.8720  -16.6930 O.2    68  GLN68      -0.2864
     88  CB       -31.2080    2.3380  -18.5760 C.3    68  GLN68       0.0394
     89  CG       -32.4320    3.2480  -18.4710 C.3    68  GLN68       0.0908
     90  CD       -33.5040    2.8020  -19.4490 C.2    68  GLN68       0.2608
     91  OE1      -33.3410    2.9260  -20.6510 O.2    68  GLN68      -0.2717
     92  NE2      -34.5480    2.2160  -18.9420 N.am   68  GLN68      -0.0878
     93  N        -40.3150    3.2950   -8.3660 N.3   216  GLU216     -0.1231
     94  CA       -40.9360    2.7470   -9.5760 C.3   216  GLU216      0.1699
     95  C        -39.9910    2.5570  -10.7310 C.2   216  GLU216      0.2592
     96  O        -39.9900    1.5340  -11.4000 O.2   216  GLU216     -0.2718
     97  CB       -42.1730    3.5910   -9.9460 C.3   216  GLU216      0.0402
     98  CG       -42.6150    3.5550  -11.3970 C.3   216  GLU216      0.1161
     99  CD       -43.3420    4.8390  -11.7830 C.2   216  GLU216      0.3649
    100  OE1      -44.5050    4.7550  -12.2230 O.co2 216  GLU216     -0.2457
    101  OE2      -42.7670    5.9430  -11.6180 O.co2 216  GLU216     -0.2457
    102  N        -39.1670    3.5540  -10.9460 N.am  217  MET217     -0.1979
    103  CA       -38.2100    3.5660  -12.0070 C.3   217  MET217      0.1605
    104  C        -37.0570    2.5670  -11.7300 C.2   217  MET217      0.2287
    105  O        -36.6340    1.8540  -12.6450 O.2   217  MET217     -0.2864
    106  CB       -37.6770    4.9810  -12.1170 C.3   217  MET217      0.0413
    107  CG       -37.6860    5.5250  -13.5180 C.3   217  MET217      0.0598
    108  SD       -37.5380    7.3230  -13.4950 S.3   217  MET217     -0.1393
    109  CE       -36.6480    7.6320  -11.9530 C.3   217  MET217      0.0692
    110  N        -38.2190   -0.9880  -12.4260 N.3   220  GLU220     -0.1231
    111  CA       -38.3730   -1.3360  -13.8020 C.3   220  GLU220      0.1699
    112  C        -37.0270   -1.4860  -14.4610 C.2   220  GLU220      0.2592
    113  O        -36.8180   -2.4060  -15.2200 O.2   220  GLU220     -0.2718
    114  CB       -39.1260   -0.2240  -14.4730 C.3   220  GLU220      0.0402
    115  CG       -39.0740   -0.2800  -15.9910 C.3   220  GLU220      0.1161
    116  CD       -39.7310    0.9600  -16.5510 C.2   220  GLU220      0.3649
    117  OE1      -40.9950    0.9270  -16.6540 O.co2 220  GLU220     -0.2457
    118  OE2      -38.9860    1.9650  -16.8140 O.co2 220  GLU220     -0.2457
    119  N        -36.1410   -0.5250  -14.2140 N.am  221  ILE221     -0.1980
    120  CA       -34.7350   -0.6700  -14.6320 C.3   221  ILE221      0.1595
    121  C        -34.0810   -1.9690  -14.1700 C.2   221  ILE221      0.2287
    122  O        -33.4660   -2.6840  -14.9740 O.2   221  ILE221     -0.2864
    123  CB       -33.8900    0.5370  -14.1610 C.3   221  ILE221      0.0276
    124  CG1      -34.1800    1.6910  -15.1050 C.3   221  ILE221      0.0022
    125  CG2      -32.3820    0.2680  -14.3440 C.3   221  ILE221      0.0022
    126  CD1      -34.0960    3.0300  -14.4460 C.3   221  ILE221      0.0001
    127  N        -33.4470   -3.8640  -17.4360 N.3   225  GLN225     -0.1245
    128  CA       -32.2060   -3.4610  -18.0610 C.3   225  GLN225      0.1566
    129  C        -31.0780   -4.2050  -17.4320 C.2   225  GLN225      0.2260
    130  O        -30.2850   -4.7600  -18.1530 O.2   225  GLN225     -0.2867
    131  CB       -31.9540   -1.9440  -17.8670 C.3   225  GLN225      0.0367
    132  CG       -33.1520   -1.0790  -18.2410 C.3   225  GLN225      0.0905
    133  CD       -33.5040   -1.1860  -19.7030 C.2   225  GLN225      0.2608
    134  OE1      -32.7080   -1.6590  -20.5170 O.2   225  GLN225     -0.2717
    135  NE2      -34.7000   -0.7400  -20.0490 N.am  225  GLN225     -0.0878
@<TRIPOS>BOND
     1    52    53    1
     2    58    56    1
     3    56    53    1
     4    56    57    1
     5    53    54    1
     6    54    55    2
     7    66    65    2
     8    44    43    2
     9    43    42    1
    10    65    64    1
    11    65    67   am
    12    64    63    1
    13    41    42    1
    14    59    60    1
    15    42    45    1
    16    63    60    1
    17    75    74    1
    18    60    61    1
    19    45    46    1
    20    68    61   am
    21    68    69    1
    22    46    47   ar
    23    46    48   ar
    24    61    62    2
    25    47    49   ar
    26    48    50   ar
    27    73    74    1
    28    73    72    1
    29    49    51   ar
    30    72    69    1
    31    50    51   ar
    32    69    70    1
    33    35    34    2
    34    70    71    2
    35    34    33    1
    36    33    36    1
    37    33    32    1
    38    37    36    1
    39    37    38    1
    40    39    40    1
    41    39    38    1
    42    91    90    2
    43   134   133    2
    44    76    77    1
    45   135   133   am
    46    83    81    1
    47   133   132    1
    48    90    92   am
    49    90    89    1
    50    81    80    1
    51    77    80    1
    52    77    78    1
    53    80    82    1
    54    88    89    1
    55    88    85    1
    56    84    78   am
    57    84    85    1
    58   132   131    1
    59   130   129    2
    60   128   131    1
    61   128   127    1
    62   128   129    1
    63    78    79    2
    64    19    18    2
    65    85    86    1
    66    86    87    2
    67    26    25    2
    68    21    20    1
    69   118   116   ar
    70    18    17    1
    71    18    23   am
    72   117   116   ar
    73   116   115    1
    74    25    24    1
    75    22    20    1
    76    17    20    1
    77    17    16    1
    78    24    23    1
    79    24    27    1
    80   115   114    1
    81   113   112    2
    82    27    28    1
    83   124   126    1
    84   124   123    1
    85    28    29    1
    86   122   121    2
    87   120   119    1
    88   120   121    1
    89   120   123    1
    90   114   111    1
    91   112   119   am
    92   112   111    1
    93   125   123    1
    94   111   110    1
    95    29    30    1
    96   107   108    1
    97   107   106    1
    98   108   109    1
    99    12    11    2
   100    30    31    1
   101     4     3    2
   102     7     6    1
   103   105   104    2
   104     6     8    1
   105     6     5    1
   106   100    99   ar
   107    11    10    1
   108   106   103    1
   109   103   104    1
   110   103   102    1
   111     3     9   am
   112     3     2    1
   113    10     9    1
   114    10    13    1
   115    99   101   ar
   116    99    98    1
   117    96    95    2
   118    98    97    1
   119     5     2    1
   120    14    13    1
   121     2     1    1
   122   102    95   am
   123    13    15    1
   124    95    94    1
   125    97    94    1
   126    94    93    1
