@<TRIPOS>MOLECULE
tmp/4og1A00.pdb
 106 102 0 0 0
SMALL
GASTEIGER

@<TRIPOS>ATOM
      1  N         21.6100   28.7070   17.7500 N.3   149  ARG149     -0.1231
      2  CA        22.3830   27.6540   18.4480 C.3   149  ARG149      0.1694
      3  C         21.5500   26.8320   19.4170 C.2   149  ARG149      0.2592
      4  O         21.8720   25.6920   19.6220 O.2   149  ARG149     -0.2718
      5  CB        23.6370   28.1640   19.1700 C.3   149  ARG149      0.0321
      6  CG        23.2880   29.2080   20.1670 C.3   149  ARG149      0.0489
      7  CD        24.5670   29.8240   20.7900 C.3   149  ARG149      0.2205
      8  NE        24.1140   30.8080   21.7930 N.pl3 149  ARG149     -0.0865
      9  CZ        24.8840   31.4310   22.6720 C.cat 149  ARG149      0.5346
     10  NH1       26.2010   31.2460   22.7140 N.pl3 149  ARG149      0.1354
     11  NH2       24.3140   32.2530   23.5250 N.pl3 149  ARG149      0.1354
     12  N         20.4330   27.3090   19.8840 N.am  150  GLY150     -0.1957
     13  CA        19.6370   26.4580   20.7130 C.3   150  GLY150      0.1869
     14  C         18.6050   25.6140   19.9140 C.2   150  GLY150      0.2309
     15  O         17.8800   24.8470   20.4830 O.2   150  GLY150     -0.2863
     16  N         19.3150   24.5230   16.2010 N.3   152  VAL152     -0.1231
     17  CA        19.9220   23.9280   14.9980 C.3   152  VAL152      0.1692
     18  C         21.2160   23.1900   15.3810 C.2   152  VAL152      0.2592
     19  O         22.0100   23.6850   16.1270 O.2   152  VAL152     -0.2718
     20  CB        20.2220   25.0070   13.9480 C.3   152  VAL152      0.0266
     21  CG1       20.7640   24.3980   12.6720 C.3   152  VAL152      0.0020
     22  CG2       19.0120   25.8750   13.6120 C.3   152  VAL152      0.0020
     23  N         21.4080   22.0060   14.8220 N.am  153  ARG153     -0.1966
     24  CA        22.6700   21.2940   15.0290 C.3   153  ARG153      0.1729
     25  C         23.8470   22.0700   14.5150 C.2   153  ARG153      0.2616
     26  O         23.8170   22.7580   13.4580 O.2   153  ARG153     -0.2715
     27  CB        22.6850   19.9430   14.3430 C.3   153  ARG153      0.0348
     28  CG        21.8540   18.9130   15.0440 C.3   153  ARG153      0.0492
     29  CD        21.3560   17.7960   14.1450 C.3   153  ARG153      0.2205
     30  NE        22.3850   17.1110   13.3810 N.pl3 153  ARG153     -0.0865
     31  CZ        22.2760   15.8900   12.8100 C.cat 153  ARG153      0.5346
     32  NH1       21.2310   15.0960   13.0520 N.pl3 153  ARG153      0.1354
     33  NH2       23.3190   15.3860   12.1480 N.pl3 153  ARG153      0.1354
     34  N         24.9310   21.9250   15.2320 N.am  154  ASP154     -0.1957
     35  CA        26.2460   22.4450   14.7370 C.3   154  ASP154      0.1840
     36  C         26.5870   22.0250   13.2720 C.2   154  ASP154      0.2622
     37  O         26.9140   22.8930   12.4290 O.2   154  ASP154     -0.2715
     38  CB        27.3130   21.9990   15.7510 C.3   154  ASP154      0.1450
     39  CG        28.7320   22.4170   15.3710 C.2   154  ASP154      0.3671
     40  OD1       29.1500   23.5360   15.6290 O.co2 154  ASP154     -0.2456
     41  OD2       29.4390   21.5850   14.7730 O.co2 154  ASP154     -0.2456
     42  N         26.5620   20.7410   12.9470 N.am  155  ASP155     -0.1957
     43  CA        26.9320   20.2900   11.6030 C.3   155  ASP155      0.1840
     44  C         26.0170   20.9150   10.5210 C.2   155  ASP155      0.2621
     45  O         26.4840   21.4360    9.5190 O.2   155  ASP155     -0.2715
     46  CB        27.0520   18.7810   11.5040 C.3   155  ASP155      0.1450
     47  CG        25.7680   17.9710   11.7980 C.2   155  ASP155      0.3671
     48  OD1       24.6720   18.5100   12.3030 O.co2 155  ASP155     -0.2456
     49  OD2       25.8550   16.6960   11.5270 O.co2 155  ASP155     -0.2456
     50  N         24.7210   20.9530   10.7930 N.am  156  VAL156     -0.1977
     51  CA        23.7400   21.4670    9.8230 C.3   156  VAL156      0.1596
     52  C         24.0220   22.9310    9.5700 C.2   156  VAL156      0.2287
     53  O         23.9910   23.4120    8.3960 O.2   156  VAL156     -0.2864
     54  CB        22.3010   21.2370   10.3580 C.3   156  VAL156      0.0276
     55  CG1       21.2680   21.9290    9.5360 C.3   156  VAL156      0.0022
     56  CG2       21.9340   19.7690   10.4090 C.3   156  VAL156      0.0022
     57  N         27.2200   23.4170    7.4390 N.3   159  GLU159     -0.1231
     58  CA        26.9290   23.1450    6.0240 C.3   159  GLU159      0.1699
     59  C         26.1500   24.2010    5.2780 C.2   159  GLU159      0.2592
     60  O         26.5130   24.6530    4.1300 O.2   159  GLU159     -0.2718
     61  CB        26.3070   21.7470    5.8270 C.3   159  GLU159      0.0402
     62  CG        25.9670   21.5700    4.3530 C.3   159  GLU159      0.1161
     63  CD        25.5510   20.1670    4.0200 C.2   159  GLU159      0.3649
     64  OE1       25.7730   19.2430    4.8260 O.co2 159  GLU159     -0.2457
     65  OE2       24.9600   19.9740    2.9640 O.co2 159  GLU159     -0.2457
     66  N         25.0400   24.6060    5.8800 N.am  160  LEU160     -0.1980
     67  CA        24.1580   25.5540    5.2000 C.3   160  LEU160      0.1596
     68  C         24.8030   26.9180    5.0500 C.2   160  LEU160      0.2287
     69  O         24.4960   27.6300    4.0950 O.2   160  LEU160     -0.2864
     70  CB        22.8290   25.6520    5.9430 C.3   160  LEU160      0.0297
     71  CG        21.9750   24.3770    5.9350 C.3   160  LEU160      0.0022
     72  CD1       20.8010   24.5660    6.8700 C.3   160  LEU160      0.0001
     73  CD2       21.5360   24.0680    4.5250 C.3   160  LEU160      0.0001
     74  N         23.1070   27.0850    0.5690 N.3   165  ARG165     -0.1245
     75  CA        22.0630   26.5050   -0.2560 C.3   165  ARG165      0.1563
     76  C         20.6580   26.7590    0.2560 C.2   165  ARG165      0.2260
     77  O         20.4080   26.9060    1.4920 O.2   165  ARG165     -0.2867
     78  CB        22.2740   25.0050   -0.4740 C.3   165  ARG165      0.0307
     79  CG        21.9450   24.0970    0.6600 C.3   165  ARG165      0.0489
     80  CD        21.4180   22.7100    0.1480 C.3   165  ARG165      0.2205
     81  NE        21.0060   21.8490    1.2630 N.pl3 165  ARG165     -0.0865
     82  CZ        19.7470   21.5220    1.6280 C.cat 165  ARG165      0.5346
     83  NH1       18.6220   21.9140    0.9530 N.pl3 165  ARG165      0.1354
     84  NH2       19.6040   20.7160    2.6670 N.pl3 165  ARG165      0.1354
     85  N         12.5820   20.4430   10.1570 N.3   174  ARG174     -0.1231
     86  CA        13.4010   19.3330   10.5700 C.3   174  ARG174      0.1694
     87  C         14.7800   19.8570   11.0450 C.2   174  ARG174      0.2592
     88  O         15.3990   19.3000   11.8730 O.2   174  ARG174     -0.2718
     89  CB        13.5750   18.3490    9.4280 C.3   174  ARG174      0.0321
     90  CG        12.4850   17.2860    9.2860 C.3   174  ARG174      0.0489
     91  CD        12.8580   16.3170    8.1620 C.3   174  ARG174      0.2205
     92  NE        14.2910   16.0240    8.3050 N.pl3 174  ARG174     -0.0865
     93  CZ        15.2510   16.2670    7.4270 C.cat 174  ARG174      0.5346
     94  NH1       14.9870   16.7960    6.2370 N.pl3 174  ARG174      0.1354
     95  NH2       16.4980   15.9650    7.7700 N.pl3 174  ARG174      0.1354
     96  N         15.3090   20.8840   10.4110 N.am  175  PHE175     -0.1976
     97  CA        16.6850   21.4130   10.7960 C.3   175  PHE175      0.1639
     98  C         16.6680   22.2860   12.0530 C.2   175  PHE175      0.2290
     99  O         17.6970   22.6230   12.6250 O.2   175  PHE175     -0.2864
    100  CB        17.2280   22.2600    9.6380 C.3   175  PHE175      0.0560
    101  CG        17.5710   21.5030    8.3880 C.ar  175  PHE175     -0.0200
    102  CD1       17.8400   20.1490    8.3830 C.ar  175  PHE175     -0.0042
    103  CD2       17.6990   22.1870    7.2120 C.ar  175  PHE175     -0.0042
    104  CE1       18.2160   19.5160    7.2010 C.ar  175  PHE175     -0.0003
    105  CE2       17.9920   21.5870    6.0530 C.ar  175  PHE175     -0.0003
    106  CZ        18.2870   20.2430    6.0360 C.ar  175  PHE175     -0.0000
@<TRIPOS>BOND
     1    78    75    1
     2    78    79    1
     3    75    76    1
     4    75    74    1
     5    80    79    1
     6    80    81    1
     7    76    77    2
     8    83    82    1
     9    81    82    2
    10    82    84    1
    11    65    63   ar
    12    63    62    1
    13    63    64   ar
    14    69    68    2
    15    60    59    2
    16    62    61    1
    17    73    71    1
    18    68    67    1
    19    67    66    1
    20    67    70    1
    21    59    66   am
    22    59    58    1
    23    61    58    1
    24    71    70    1
    25    71    72    1
    26    58    57    1
    27   106   105   ar
    28   106   104   ar
    29   105   103   ar
    30    94    93    1
    31   104   102   ar
    32   103   101   ar
    33    93    95    1
    34    93    92    2
    35    91    92    1
    36    91    90    1
    37   102   101   ar
    38   101   100    1
    39    53    52    2
    40    90    89    1
    41    89    86    1
    42    45    44    2
    43    55    54    1
    44    52    51    1
    45   100    97    1
    46    51    54    1
    47    51    50    1
    48    85    86    1
    49    54    56    1
    50    96    97    1
    51    96    87   am
    52    44    50   am
    53    44    43    1
    54    86    87    1
    55    97    98    1
    56    87    88    2
    57    46    43    1
    58    46    47    1
    59    49    47   ar
    60    43    42    1
    61    47    48   ar
    62    98    99    2
    63    33    31    1
    64    37    36    2
    65    21    20    1
    66    31    32    1
    67    31    30    2
    68    42    36   am
    69    36    35    1
    70    30    29    1
    71    26    25    2
    72    22    20    1
    73    20    17    1
    74    29    28    1
    75    27    24    1
    76    27    28    1
    77    25    24    1
    78    25    34   am
    79    35    34    1
    80    35    38    1
    81    41    39   ar
    82    23    24    1
    83    23    18   am
    84    17    18    1
    85    17    16    1
    86    39    40   ar
    87    39    38    1
    88    18    19    2
    89     1     2    1
    90     2     5    1
    91     2     3    1
    92     5     6    1
    93     3     4    2
    94     3    12   am
    95    12    13    1
    96    14    15    2
    97    14    13    1
    98     6     7    1
    99     7     8    1
   100     8     9    2
   101     9    10    1
   102     9    11    1
