@<TRIPOS>MOLECULE
tmp/4og2B00.pdb
 110 102 0 0 0
SMALL
GASTEIGER

@<TRIPOS>ATOM
      1  N         24.7250   50.5300   52.3200 N.3    18  LEU18      -0.1245
      2  CA        23.9580   49.3670   52.7540 C.3    18  LEU18       0.1561
      3  C         24.8870   48.2280   53.1940 C.2    18  LEU18       0.2260
      4  O         24.6670   47.5850   54.2240 O.2    18  LEU18      -0.2867
      5  CB        23.0230   48.9160   51.6250 C.3    18  LEU18       0.0270
      6  CG        21.9570   49.9730   51.2990 C.3    18  LEU18       0.0019
      7  CD1       21.4560   49.8540   49.8770 C.3    18  LEU18       0.0001
      8  CD2       20.8110   49.8950   52.2840 C.3    18  LEU18       0.0001
      9  N         26.0960   45.1960   56.8290 N.3    22  GLN22      -0.1245
     10  CA        26.1680   43.7600   56.6510 C.3    22  GLN22       0.1566
     11  C         27.5290   43.2410   57.1020 C.2    22  GLN22       0.2260
     12  O         27.6150   42.2070   57.7670 O.2    22  GLN22      -0.2867
     13  CB        25.9150   43.4220   55.1970 C.3    22  GLN22       0.0367
     14  CG        24.5750   43.9020   54.7080 C.3    22  GLN22       0.0905
     15  CD        24.3770   43.5470   53.2680 C.2    22  GLN22       0.2608
     16  OE1       25.1540   43.9600   52.4020 O.2    22  GLN22      -0.2717
     17  NE2       23.3540   42.7580   52.9950 N.am   22  GLN22      -0.0878
     18  N         25.2780   41.9510   48.1980 N.3    78  THR78      -0.1203
     19  CA        24.3770   42.9160   48.8110 C.3    78  THR78       0.1994
     20  C         23.0870   43.0830   48.0050 C.2    78  THR78       0.2618
     21  O         21.9870   43.0710   48.5640 O.2    78  THR78      -0.2717
     22  CB        25.0870   44.2710   48.9810 C.3    78  THR78       0.1784
     23  OG1       26.2010   44.0990   49.8730 O.3    78  THR78      -0.2211
     24  CG2       24.1350   45.3390   49.5180 C.3    78  THR78       0.0376
     25  N         23.2140   43.2550   46.6880 N.am   79  LEU79      -0.1965
     26  CA        22.0590   43.5810   45.8430 C.3    79  LEU79       0.1728
     27  C         21.5500   42.4110   45.0200 C.2    79  LEU79       0.2617
     28  O         22.3330   41.6430   44.4540 O.2    79  LEU79      -0.2715
     29  CB        22.4160   44.6970   44.8610 C.3    79  LEU79       0.0311
     30  CG        22.8420   46.0260   45.4730 C.3    79  LEU79       0.0022
     31  CD1       23.1620   46.9930   44.3380 C.3    79  LEU79       0.0001
     32  CD2       21.7690   46.5910   46.3820 C.3    79  LEU79       0.0001
     33  N         20.2300   42.3150   44.8940 N.am   80  SER80      -0.1936
     34  CA        19.6420   41.3880   43.9350 C.3    80  SER80       0.2055
     35  C         20.1690   41.6200   42.5150 C.2    80  SER80       0.2642
     36  O         20.3920   40.6540   41.7820 O.2    80  SER80      -0.2714
     37  CB        18.1220   41.4850   43.9430 C.3    80  SER80       0.2130
     38  OG        17.5730   41.0150   45.1580 O.3    80  SER80      -0.2179
     39  N         20.3580   42.8840   42.1330 N.am   81  GLN81      -0.1976
     40  CA        20.9210   43.2110   40.8270 C.3    81  GLN81       0.1601
     41  C         22.2330   42.4580   40.5860 C.2    81  GLN81       0.2287
     42  O         22.4980   41.9590   39.4930 O.2    81  GLN81      -0.2864
     43  CB        21.1600   44.7190   40.7300 C.3    81  GLN81       0.0394
     44  CG        21.7890   45.1770   39.4200 C.3    81  GLN81       0.0908
     45  CD        20.8310   45.0940   38.2540 C.2    81  GLN81       0.2608
     46  OE1       19.6280   45.2980   38.4070 O.2    81  GLN81      -0.2717
     47  NE2       21.3620   44.7950   37.0730 N.am   81  GLN81      -0.0878
     48  N         20.3360   39.6580   51.9490 N.3   101  SER101     -0.1217
     49  CA        19.5910   40.8930   51.7090 C.3   101  SER101      0.1889
     50  C         19.0230   40.9560   50.3090 C.2   101  SER101      0.2288
     51  O         18.7610   42.0440   49.8000 O.2   101  SER101     -0.2866
     52  CB        20.5220   42.0990   51.8750 C.3   101  SER101      0.2089
     53  OG        21.6680   41.9710   51.0320 O.3   101  SER101     -0.2183
     54  N         16.1060   40.4900   48.0880 N.3   103  THR103     -0.1218
     55  CA        14.6850   40.3110   48.3200 C.3   103  THR103      0.1862
     56  C         13.8390   40.3600   47.0480 C.2   103  THR103      0.2287
     57  O         12.6190   40.2670   47.1110 O.2   103  THR103     -0.2866
     58  CB        14.1720   41.3130   49.3590 C.3   103  THR103      0.1770
     59  OG1       14.3720   42.6440   48.8660 O.3   103  THR103     -0.2211
     60  CG2       14.9270   41.1410   50.6700 C.3   103  THR103      0.0375
     61  N         17.5380   49.1260   38.7230 N.3   150  ASP150     -0.1239
     62  CA        17.8660   48.2000   39.8070 C.3   150  ASP150      0.1674
     63  C         16.8300   47.0820   39.9380 C.2   150  ASP150      0.2266
     64  O         15.6320   47.3510   40.0880 O.2   150  ASP150     -0.2867
     65  CB        18.0200   48.9710   41.1200 C.3   150  ASP150      0.1410
     66  CG        18.2740   48.0540   42.2780 C.2   150  ASP150      0.3668
     67  OD1       19.4060   47.5210   42.3620 O.co2 150  ASP150     -0.2456
     68  OD2       17.3370   47.8260   43.0830 O.co2 150  ASP150     -0.2456
     69  N         16.0210   44.8210   42.2300 N.3   152  PHE152     -0.1241
     70  CA        15.2170   44.8010   43.4350 C.3   152  PHE152      0.1605
     71  C         14.1820   45.9200   43.4460 C.2   152  PHE152      0.2264
     72  O         13.0390   45.6940   43.8210 O.2   152  PHE152     -0.2867
     73  CB        16.1110   44.8580   44.6740 C.3   152  PHE152      0.0534
     74  CG        15.5270   45.6460   45.8140 C.ar  152  PHE152     -0.0203
     75  CD1       14.5920   45.0840   46.6780 C.ar  152  PHE152     -0.0042
     76  CD2       15.9240   46.9580   46.0250 C.ar  152  PHE152     -0.0042
     77  CE1       14.0550   45.8250   47.7150 C.ar  152  PHE152     -0.0003
     78  CE2       15.3890   47.7070   47.0500 C.ar  152  PHE152     -0.0003
     79  CZ        14.4550   47.1420   47.8990 C.ar  152  PHE152     -0.0000
     80  N         17.7230   52.7660   46.2460 N.3   204  LEU204     -0.1245
     81  CA        18.7310   52.4490   47.2480 C.3   204  LEU204      0.1561
     82  C         18.9000   53.6570   48.1910 C.2   204  LEU204      0.2260
     83  O         18.0090   54.5070   48.2660 O.2   204  LEU204     -0.2867
     84  CB        20.0210   51.9380   46.6000 C.3   204  LEU204      0.0270
     85  CG        19.8140   50.7180   45.6820 C.3   204  LEU204      0.0019
     86  CD1       21.1230   50.2600   45.0710 C.3   204  LEU204      0.0001
     87  CD2       19.1210   49.5540   46.4050 C.3   204  LEU204      0.0001
     88  N         13.1370   48.7740   51.1070 N.3   228  ASP228     -0.1225
     89  CA        14.2730   48.1750   51.8030 C.3   228  ASP228      0.1805
     90  C         15.5780   48.9110   51.5310 C.2   228  ASP228      0.2598
     91  O         16.4790   48.9180   52.3670 O.2   228  ASP228     -0.2718
     92  CB        14.4090   46.7120   51.3580 C.3   228  ASP228      0.1424
     93  CG        15.0890   45.8220   52.3820 C.2   228  ASP228      0.3668
     94  OD1       14.7670   45.9290   53.5890 O.co2 228  ASP228     -0.2456
     95  OD2       15.9210   44.9780   51.9610 O.co2 228  ASP228     -0.2456
     96  N         15.6850   49.5280   50.3570 N.am  229  GLY229     -0.1957
     97  CA        16.8940   50.2340   49.9930 C.3   229  GLY229      0.1869
     98  C         17.1690   51.4750   50.8130 C.2   229  GLY229      0.2309
     99  O         18.3030   51.9570   50.8290 O.2   229  GLY229     -0.2863
    100  N         19.8510   44.9480   58.3920 N.3   279  PHE279     -0.1241
    101  CA        20.8370   44.3300   57.5140 C.3   279  PHE279      0.1605
    102  C         21.9680   43.6690   58.2910 C.2   279  PHE279      0.2264
    103  O         22.5250   42.6680   57.8360 O.2   279  PHE279     -0.2867
    104  CB        21.3740   45.3340   56.4950 C.3   279  PHE279      0.0534
    105  CG        20.3480   45.7590   55.4870 C.ar  279  PHE279     -0.0203
    106  CD1       19.6130   44.8030   54.8000 C.ar  279  PHE279     -0.0042
    107  CD2       20.0840   47.0950   55.2500 C.ar  279  PHE279     -0.0042
    108  CE1       18.6420   45.1690   53.8870 C.ar  279  PHE279     -0.0003
    109  CE2       19.1040   47.4700   54.3320 C.ar  279  PHE279     -0.0003
    110  CZ        18.3880   46.5000   53.6630 C.ar  279  PHE279     -0.0000
@<TRIPOS>BOND
     1    47    45   am
     2    45    46    2
     3    45    44    1
     4    61    62    1
     5    44    43    1
     6    42    41    2
     7    62    63    1
     8    62    65    1
     9    63    64    2
    10    41    40    1
    11    43    40    1
    12    40    39    1
    13    65    66    1
    14    36    35    2
    15    39    35   am
    16    69    70    1
    17    66    67   ar
    18    66    68   ar
    19    35    34    1
    20    70    71    1
    21    70    73    1
    22    71    72    2
    23    34    37    1
    24    34    33    1
    25    37    38    1
    26    31    30    1
    27    28    27    2
    28    73    74    1
    29    29    30    1
    30    29    26    1
    31    33    27   am
    32    27    26    1
    33    86    85    1
    34    30    32    1
    35    85    87    1
    36    85    84    1
    37    74    76   ar
    38    74    75   ar
    39    26    25    1
    40    76    78   ar
    41    80    81    1
    42    84    81    1
    43    75    77   ar
    44    25    20   am
    45    56    57    2
    46    56    55    1
    47    78    79   ar
    48    81    82    1
    49    77    79   ar
    50    20    21    2
    51    20    19    1
    52    54    55    1
    53    82    83    2
    54    18    19    1
    55    55    58    1
    56    19    22    1
    57    59    58    1
    58    22    24    1
    59    22    23    1
    60    58    60    1
    61    51    50    2
    62     7     6    1
    63    97    96    1
    64    97    98    1
    65    50    49    1
    66    96    90   am
    67    98    99    2
    68    53    52    1
    69    88    89    1
    70     6     5    1
    71     6     8    1
    72    92    89    1
    73    92    93    1
    74    90    89    1
    75    90    91    2
    76     5     2    1
    77    49    52    1
    78    49    48    1
    79    95    93   ar
    80     1     2    1
    81    93    94   ar
    82    16    15    2
    83     2     3    1
    84    17    15   am
    85     3     4    2
    86    15    14    1
    87   110   108   ar
    88   110   109   ar
    89   108   106   ar
    90   109   107   ar
    91    14    13    1
    92   106   105   ar
    93    13    10    1
    94   107   105   ar
    95   105   104    1
    96   104   101    1
    97    10     9    1
    98    10    11    1
    99    11    12    2
   100   101   102    1
   101   101   100    1
   102   103   102    2
