@<TRIPOS>MOLECULE
tmp/4og4A02.pdb
 95 94 0 0 0
SMALL
GASTEIGER

@<TRIPOS>ATOM
      1  N         30.2020   -1.1330    4.7050 N.3   105  TRP105     -0.1227
      2  CA        30.9780    0.1250    4.5620 C.3   105  TRP105      0.1737
      3  C         31.9180    0.0750    3.3900 C.2   105  TRP105      0.2595
      4  O         32.0010    1.0310    2.6030 O.2   105  TRP105     -0.2718
      5  CB        31.7780    0.3550    5.8640 C.3   105  TRP105      0.0564
      6  CG        32.6900    1.6010    5.9030 C.ar  105  TRP105      0.0003
      7  CD1       33.9250    1.7430    5.3200 C.ar  105  TRP105      0.0946
      8  CD2       32.4140    2.7900    6.5590 C.ar  105  TRP105      0.0152
      9  NE1       34.4200    3.0040    5.5580 N.ar  105  TRP105     -0.2442
     10  CE2       33.4880    3.6820    6.3000 C.ar  105  TRP105      0.0810
     11  CE3       31.3380    3.2250    7.3110 C.ar  105  TRP105      0.0012
     12  CZ2       33.5430    4.9360    6.8410 C.ar  105  TRP105      0.0191
     13  CZ3       31.3920    4.4940    7.8580 C.ar  105  TRP105      0.0001
     14  CH2       32.4840    5.3350    7.6230 C.ar  105  TRP105      0.0015
     15  N         32.6880   -0.9890    3.2870 N.am  106  ASN106     -0.1974
     16  CA        33.7470   -1.0830    2.2740 C.3   106  ASN106      0.1688
     17  C         33.1560   -1.2180    0.8580 C.2   106  ASN106      0.2292
     18  O         33.8600   -1.0420   -0.1210 O.2   106  ASN106     -0.2864
     19  CB        34.7030   -2.2620    2.5460 C.3   106  ASN106      0.1181
     20  CG        35.6550   -2.0170    3.6970 C.2   106  ASN106      0.2629
     21  OD1       35.9700   -0.8780    4.0290 O.2   106  ASN106     -0.2716
     22  ND2       36.1180   -3.1110    4.3350 N.am  106  ASN106     -0.0877
     23  N         30.7430    0.7120   -0.2760 N.3   108  LEU108     -0.1231
     24  CA        30.1990    1.9990   -0.7170 C.3   108  LEU108      0.1693
     25  C         31.1690    2.7640   -1.6010 C.2   108  LEU108      0.2593
     26  O         32.3620    2.6990   -1.4150 O.2   108  LEU108     -0.2718
     27  CB        29.8120    2.8430    0.4970 C.3   108  LEU108      0.0284
     28  CG        28.8220    2.1970    1.5010 C.3   108  LEU108      0.0019
     29  CD1       28.6190    3.0820    2.7140 C.3   108  LEU108      0.0001
     30  CD2       27.5120    1.9210    0.7950 C.3   108  LEU108      0.0001
     31  N         30.6030    3.5010   -2.5410 N.am  109  SER109     -0.1938
     32  CA        31.3640    4.4460   -3.3740 C.3   109  SER109      0.2055
     33  C         32.1960    5.3740   -2.4740 C.2   109  SER109      0.2642
     34  O         31.7500    5.7980   -1.3820 O.2   109  SER109     -0.2714
     35  CB        30.3810    5.2730   -4.1460 C.3   109  SER109      0.2130
     36  OG        29.6820    4.4930   -5.1100 O.3   109  SER109     -0.2179
     37  N         33.4030    5.6680   -2.9610 N.am  110  ARG110     -0.1977
     38  CA        34.4560    6.3380   -2.2010 C.3   110  ARG110      0.1597
     39  C         34.1030    7.7970   -1.8810 C.2   110  ARG110      0.2287
     40  O         34.4820    8.3210   -0.8310 O.2   110  ARG110     -0.2864
     41  CB        35.7750    6.2610   -3.0010 C.3   110  ARG110      0.0334
     42  CG        35.7500    6.9530   -4.3690 C.3   110  ARG110      0.0492
     43  CD        36.1030    6.0420   -5.5540 C.3   110  ARG110      0.2205
     44  NE        34.9260    5.5100   -6.2720 N.pl3 110  ARG110     -0.0865
     45  CZ        34.3690    4.3100   -6.0780 C.cat 110  ARG110      0.5346
     46  NH1       34.8550    3.4660   -5.1780 N.pl3 110  ARG110      0.1354
     47  NH2       33.3120    3.9440   -6.7930 N.pl3 110  ARG110      0.1354
     48  N         30.6810   10.4520   -2.3880 N.3   112  TYR112     -0.1241
     49  CA        29.3310   10.8580   -2.8080 C.3   112  TYR112      0.1605
     50  C         28.6790   11.7250   -1.7580 C.2   112  TYR112      0.2264
     51  O         29.1340   11.7550   -0.6060 O.2   112  TYR112     -0.2867
     52  CB        28.4070    9.6630   -3.0910 C.3   112  TYR112      0.0534
     53  CG        28.1180    8.7080   -1.9300 C.ar  112  TYR112     -0.0201
     54  CD1       29.0140    7.7170   -1.6290 C.ar  112  TYR112     -0.0009
     55  CD2       26.9320    8.8060   -1.1630 C.ar  112  TYR112     -0.0009
     56  CE1       28.7760    6.8310   -0.6230 C.ar  112  TYR112      0.0417
     57  CE2       26.6550    7.8980   -0.1360 C.ar  112  TYR112      0.0417
     58  CZ        27.6060    6.9130    0.1340 C.ar  112  TYR112      0.1957
     59  OH        27.3700    5.9900    1.1050 O.3   112  TYR112     -0.2866
     60  N         26.2550   12.4080    0.9230 N.3   114  LYS114     -0.1245
     61  CA        25.6440   11.4770    1.8890 C.3   114  LYS114      0.1561
     62  C         24.2170   11.7820    2.3130 C.2   114  LYS114      0.2260
     63  O         23.5810   10.9130    2.9200 O.2   114  LYS114     -0.2867
     64  CB        26.4870   11.3980    3.1930 C.3   114  LYS114      0.0271
     65  CG        27.9560   11.0620    2.9950 C.3   114  LYS114      0.0035
     66  CD        28.0800    9.7220    2.2820 C.3   114  LYS114      0.0206
     67  CE        29.4520    9.1030    2.4470 C.3   114  LYS114      0.1093
     68  NZ        30.5050    9.8000    1.6700 N.3   114  LYS114     -0.1314
     69  N         28.2490    5.8940   10.5410 N.3   177  TRP177     -0.1241
     70  CA        28.7770    7.1670   10.9410 C.3   177  TRP177      0.1605
     71  C         27.6140    8.0180   11.4740 C.2   177  TRP177      0.2264
     72  O         26.4630    7.6470   11.2990 O.2   177  TRP177     -0.2867
     73  CB        29.5090    7.9090    9.8310 C.3   177  TRP177      0.0550
     74  CG        28.6120    8.3130    8.7100 C.ar  177  TRP177      0.0003
     75  CD1       27.9970    9.4950    8.5910 C.ar  177  TRP177      0.0946
     76  CD2       28.2360    7.5430    7.5310 C.ar  177  TRP177      0.0152
     77  NE1       27.2270    9.5330    7.4450 N.ar  177  TRP177     -0.2442
     78  CE2       27.3960    8.3770    6.7590 C.ar  177  TRP177      0.0810
     79  CE3       28.5740    6.2950    7.0330 C.ar  177  TRP177      0.0012
     80  CZ2       26.8200    7.9360    5.5610 C.ar  177  TRP177      0.0191
     81  CZ3       27.9640    5.8440    5.8250 C.ar  177  TRP177      0.0001
     82  CH2       27.1420    6.7080    5.1200 C.ar  177  TRP177      0.0015
     83  N         26.6380   12.1950   11.5100 N.3   179  GLY179     -0.1210
     84  CA        26.8680   13.5660   11.1890 C.3   179  GLY179      0.1956
     85  C         27.9620   13.6750   10.1760 C.2   179  GLY179      0.2611
     86  O         28.2040   12.7880    9.3800 O.2   179  GLY179     -0.2717
     87  N         28.6390   14.8130   10.2340 N.am  180  LYS180     -0.1979
     88  CA        29.8110   15.0730    9.3980 C.3   180  LYS180      0.1596
     89  C         30.8900   15.6610   10.2790 C.2   180  LYS180      0.2287
     90  O         30.6020   16.4740   11.1590 O.2   180  LYS180     -0.2864
     91  CB        29.5030   16.0390    8.2370 C.3   180  LYS180      0.0298
     92  CG        28.4860   17.1240    8.5110 C.3   180  LYS180      0.0038
     93  CD        28.4270   18.1160    7.3530 C.3   180  LYS180      0.0206
     94  CE        28.5000   17.4170    5.9950 C.3   180  LYS180      0.1093
     95  NZ        28.2570   18.3460    4.8620 N.3   180  LYS180     -0.1314
@<TRIPOS>BOND
     1    47    45    1
     2    44    45    2
     3    44    43    1
     4    45    46    1
     5    43    42    1
     6    36    35    1
     7    42    41    1
     8    35    32    1
     9    32    31    1
    10    32    33    1
    11    52    49    1
    12    52    53    1
    13    41    38    1
    14    37    33   am
    15    37    38    1
    16    49    48    1
    17    49    50    1
    18    31    25   am
    19    33    34    2
    20    38    39    1
    21    53    54   ar
    22    53    55   ar
    23    39    40    2
    24    50    51    2
    25    54    56   ar
    26    25    26    2
    27    25    24    1
    28    55    57   ar
    29    24    23    1
    30    24    27    1
    31    56    58   ar
    32    57    58   ar
    33    18    17    2
    34    58    59    1
    35    27    28    1
    36    30    28    1
    37    17    16    1
    38    60    61    1
    39    28    29    1
    40    68    67    1
    41    61    62    1
    42    61    64    1
    43    16    19    1
    44    16    15    1
    45    66    67    1
    46    66    65    1
    47    62    63    2
    48    19    20    1
    49     4     3    2
    50    65    64    1
    51    15     3   am
    52     3     2    1
    53    20    21    2
    54    20    22   am
    55     2     1    1
    56     2     5    1
    57    95    94    1
    58    82    80   ar
    59    82    81   ar
    60     7     9   ar
    61     7     6   ar
    62     9    10   ar
    63    80    78   ar
    64    81    79   ar
    65     5     6    1
    66     6     8   ar
    67    94    93    1
    68    10     8   ar
    69    10    12   ar
    70     8    11   ar
    71    78    77   ar
    72    78    76   ar
    73    12    14   ar
    74    79    76   ar
    75    11    13   ar
    76    93    92    1
    77    77    75   ar
    78    76    74   ar
    79    14    13   ar
    80    91    92    1
    81    91    88    1
    82    75    74   ar
    83    74    73    1
    84    86    85    2
    85    88    87    1
    86    88    89    1
    87    73    70    1
    88    85    87   am
    89    85    84    1
    90    89    90    2
    91    69    70    1
    92    70    71    1
    93    84    83    1
    94    72    71    2
