@<TRIPOS>MOLECULE
tmp/4og6A00.pdb
 207 198 0 0 0
SMALL
GASTEIGER

@<TRIPOS>ATOM
      1  N        -18.3950    5.3330   -0.7210 N.3   120  GLN120     -0.1245
      2  CA       -18.1070    4.6230   -1.9820 C.3   120  GLN120      0.1566
      3  C        -17.9540    3.1250   -1.9250 C.2   120  GLN120      0.2260
      4  O        -18.0640    2.4350   -2.9350 O.2   120  GLN120     -0.2867
      5  CB       -16.8710    5.2310   -2.6110 C.3   120  GLN120      0.0367
      6  CG       -15.5400    4.8350   -1.9960 C.3   120  GLN120      0.0905
      7  CD       -15.1890    5.5100   -0.6490 C.2   120  GLN120      0.2608
      8  OE1      -15.9130    5.4130    0.3440 O.2   120  GLN120     -0.2717
      9  NE2      -13.9860    6.1040   -0.6290 N.am  120  GLN120     -0.0878
     10  N        -23.2620    7.4770   -6.1870 N.3   133  SER133     -0.1202
     11  CA       -23.7660    6.9980   -7.4490 C.3   133  SER133      0.2020
     12  C        -22.9540    5.8830   -8.0620 C.2   133  SER133      0.2619
     13  O        -23.4290    4.7820   -8.3660 O.2   133  SER133     -0.2717
     14  CB       -23.7870    8.1390   -8.4630 C.3   133  SER133      0.2103
     15  OG       -24.2070    7.6110   -9.6940 O.3   133  SER133     -0.2182
     16  N        -21.6560    6.1590   -8.2510 N.am  134  SER134     -0.1951
     17  CA       -20.7990    5.1410   -8.8390 C.3   134  SER134      0.1924
     18  C        -20.5610    3.9690   -7.9220 C.2   134  SER134      0.2314
     19  O        -20.3930    2.8460   -8.3660 O.2   134  SER134     -0.2863
     20  CB       -19.5190    5.7210   -9.4300 C.3   134  SER134      0.2116
     21  OG       -18.7520    6.2990   -8.4360 O.3   134  SER134     -0.2180
     22  N        -17.3770    2.6960  -17.3150 N.3   156  LEU156     -0.1231
     23  CA       -17.1080    4.0180  -16.7340 C.3   156  LEU156      0.1693
     24  C        -16.9400    5.0260  -17.8430 C.2   156  LEU156      0.2593
     25  O        -16.1140    4.8180  -18.7590 O.2   156  LEU156     -0.2718
     26  CB       -15.8160    4.0390  -15.9240 C.3   156  LEU156      0.0284
     27  CG       -15.7780    3.1420  -14.6810 C.3   156  LEU156      0.0019
     28  CD1      -14.3400    3.1380  -14.1930 C.3   156  LEU156      0.0001
     29  CD2      -16.7500    3.6030  -13.6410 C.3   156  LEU156      0.0001
     30  N        -17.7070    6.1000  -17.7630 N.am  157  SER157     -0.1938
     31  CA       -17.3310    7.2850  -18.5190 C.3   157  SER157      0.2055
     32  C        -16.6720    8.2510  -17.5750 C.2   157  SER157      0.2643
     33  O        -16.4210    7.8830  -16.4330 O.2   157  SER157     -0.2714
     34  CB       -18.5410    8.0320  -19.1290 C.3   157  SER157      0.2130
     35  OG       -19.3800    8.5890  -18.1230 O.3   157  SER157     -0.2179
     36  N        -16.3360    9.4790  -18.0050 N.am  158  GLU158     -0.1963
     37  CA       -15.7620   10.4490  -17.1090 C.3   158  GLU158      0.1733
     38  C        -16.6650   11.0300  -16.0210 C.2   158  GLU158      0.2616
     39  O        -16.1920   11.7590  -15.1630 O.2   158  GLU158     -0.2715
     40  CB       -15.1350   11.5330  -17.9570 C.3   158  GLU158      0.0429
     41  CG       -14.0020   11.0080  -18.8340 C.3   158  GLU158      0.1163
     42  CD       -13.2400   12.1070  -19.5160 C.2   158  GLU158      0.3649
     43  OE1      -13.8280   12.8960  -20.2910 O.co2 158  GLU158     -0.2457
     44  OE2      -11.9970   12.1530  -19.3260 O.co2 158  GLU158     -0.2457
     45  N        -17.9480   10.6930  -16.0030 N.am  159  ASP159     -0.1957
     46  CA       -18.8620   11.2290  -14.9960 C.3   159  ASP159      0.1840
     47  C        -19.9730   10.2730  -14.6510 C.2   159  ASP159      0.2622
     48  O        -20.9380   10.7260  -14.0090 O.2   159  ASP159     -0.2715
     49  CB       -19.4690   12.5450  -15.4580 C.3   159  ASP159      0.1450
     50  CG       -20.2170   13.3150  -14.3510 C.2   159  ASP159      0.3671
     51  OD1      -19.6100   13.4850  -13.3340 O.co2 159  ASP159     -0.2456
     52  OD2      -21.4010   13.7300  -14.6220 O.co2 159  ASP159     -0.2456
     53  N        -19.9540    9.0180  -15.1130 N.am  160  HIS160     -0.1959
     54  CA       -21.0120    8.0990  -14.7930 C.3   160  HIS160      0.1787
     55  C        -20.5020    6.6520  -14.8970 C.2   160  HIS160      0.2620
     56  O        -19.4670    6.3900  -15.4680 O.2   160  HIS160     -0.2715
     57  CB       -22.1370    8.3390  -15.7950 C.3   160  HIS160      0.0785
     58  CG       -23.3700    7.5430  -15.5700 C.ar  160  HIS160      0.0821
     59  ND1      -23.9020    7.3570  -14.3160 N.ar  160  HIS160     -0.2267
     60  CD2      -24.1970    6.9080  -16.4440 C.ar  160  HIS160      0.1154
     61  CE1      -25.0260    6.6900  -14.4460 C.ar  160  HIS160      0.1986
     62  NE2      -25.2130    6.3620  -15.7090 N.ar  160  HIS160     -0.2212
     63  N        -21.2460    5.7150  -14.3450 N.am  161  ALA161     -0.1977
     64  CA       -20.9090    4.3240  -14.2690 C.3   161  ALA161      0.1597
     65  C        -22.1510    3.4880  -14.5440 C.2   161  ALA161      0.2287
     66  O        -23.2380    3.8510  -14.1600 O.2   161  ALA161     -0.2864
     67  CB       -20.4180    3.9860  -12.8430 C.3   161  ALA161      0.0319
     68  N        -10.3870    0.8330  -10.1420 N.3   217  PHE217     -0.1241
     69  CA       -11.4610    1.7980   -9.8060 C.3   217  PHE217      0.1605
     70  C        -11.6130    1.9800   -8.2630 C.2   217  PHE217      0.2264
     71  O        -11.6890    3.0820   -7.7740 O.2   217  PHE217     -0.2867
     72  CB       -12.7740    1.4140  -10.4410 C.3   217  PHE217      0.0534
     73  CG       -13.9140    2.2710  -10.0050 C.ar  217  PHE217     -0.0203
     74  CD1      -14.1330    3.5160  -10.6260 C.ar  217  PHE217     -0.0042
     75  CD2      -14.7790    1.8700   -9.0510 C.ar  217  PHE217     -0.0042
     76  CE1      -15.1670    4.3290  -10.2350 C.ar  217  PHE217     -0.0003
     77  CE2      -15.7880    2.7150   -8.6250 C.ar  217  PHE217     -0.0003
     78  CZ       -15.9910    3.9170   -9.2190 C.ar  217  PHE217     -0.0000
     79  N         -8.7810    4.0880   -7.0310 N.3   220  CYS220     -0.1221
     80  CA        -9.0270    5.5010   -7.3130 C.3   220  CYS220      0.1808
     81  C        -10.1310    6.0900   -6.4400 C.2   220  CYS220      0.2601
     82  O        -10.1310    7.2940   -6.0850 O.2   220  CYS220     -0.2717
     83  CB        -9.4060    5.6630   -8.7610 C.3   220  CYS220      0.0970
     84  SG        -8.0970    5.3910   -9.9370 S.3   220  CYS220     -0.0800
     85  N        -11.0850    5.2490   -6.0470 N.am  221  ALA221     -0.1979
     86  CA       -12.1610    5.6640   -5.1990 C.3   221  ALA221      0.1597
     87  C        -11.8180    5.9220   -3.7370 C.2   221  ALA221      0.2287
     88  O        -12.5960    6.5450   -3.0320 O.2   221  ALA221     -0.2864
     89  CB       -13.3320    4.7110   -5.3040 C.3   221  ALA221      0.0319
     90  N         -6.4850    2.9960  -18.4560 N.3   255  TYR255     -0.1241
     91  CA        -7.2130    3.7430  -17.4200 C.3   255  TYR255      0.1605
     92  C         -6.6120    5.1510  -17.2750 C.2   255  TYR255      0.2264
     93  O         -5.8550    5.4430  -16.3410 O.2   255  TYR255     -0.2867
     94  CB        -7.1590    2.9850  -16.1020 C.3   255  TYR255      0.0534
     95  CG        -8.2220    3.3220  -15.1030 C.ar  255  TYR255     -0.0201
     96  CD1       -8.9550    4.5160  -15.1460 C.ar  255  TYR255     -0.0009
     97  CD2       -8.5130    2.4380  -14.0720 C.ar  255  TYR255     -0.0009
     98  CE1       -9.9190    4.8020  -14.2560 C.ar  255  TYR255      0.0417
     99  CE2       -9.4830    2.7530  -13.1610 C.ar  255  TYR255      0.0417
    100  CZ       -10.1410    3.9370  -13.2430 C.ar  255  TYR255      0.1957
    101  OH       -11.1210    4.2170  -12.3120 O.3   255  TYR255     -0.2866
    102  N         -7.7720    8.0900  -16.2310 N.3   257  MET257     -0.1245
    103  CA        -7.9950    8.8540  -14.9970 C.3   257  MET257      0.1570
    104  C         -7.1180    8.3650  -13.8330 C.2   257  MET257      0.2261
    105  O         -6.6240    9.1560  -13.0090 O.2   257  MET257     -0.2867
    106  CB        -9.4530    8.7670  -14.5990 C.3   257  MET257      0.0387
    107  CG        -9.8490    9.9020  -13.6910 C.3   257  MET257      0.0595
    108  SD       -11.6400   10.0210  -13.4390 S.3   257  MET257     -0.1393
    109  CE       -12.2840    9.3630  -14.9660 C.3   257  MET257      0.0692
    110  N         -1.0750   13.1760   -9.7610 N.3   264  ASP264     -0.1239
    111  CA        -1.3530   14.1490   -8.7440 C.3   264  ASP264      0.1674
    112  C         -0.7320   13.7100   -7.3890 C.2   264  ASP264      0.2266
    113  O         -0.2370   14.5520   -6.6400 O.2   264  ASP264     -0.2867
    114  CB        -2.8570   14.2460   -8.5610 C.3   264  ASP264      0.1410
    115  CG        -3.5760   15.0290   -9.6160 C.2   264  ASP264      0.3668
    116  OD1       -2.9730   15.6570  -10.5060 O.co2 264  ASP264     -0.2456
    117  OD2       -4.8440   15.0920   -9.5480 O.co2 264  ASP264     -0.2456
    118  N        -10.6350   14.6730  -19.3600 N.3   298  TYR298     -0.1241
    119  CA        -9.8780   14.8520  -18.1660 C.3   298  TYR298      0.1605
    120  C         -8.3520   14.5810  -18.3260 C.2   298  TYR298      0.2264
    121  O         -7.5960   15.1840  -17.5740 O.2   298  TYR298     -0.2867
    122  CB       -10.3960   14.0470  -16.9720 C.3   298  TYR298      0.0534
    123  CG       -11.6200   14.6390  -16.3550 C.ar  298  TYR298     -0.0201
    124  CD1      -11.5990   15.8900  -15.7390 C.ar  298  TYR298     -0.0009
    125  CD2      -12.8410   13.9740  -16.3510 C.ar  298  TYR298     -0.0009
    126  CE1      -12.7260   16.4640  -15.2150 C.ar  298  TYR298      0.0417
    127  CE2      -13.9590   14.5510  -15.7560 C.ar  298  TYR298      0.0417
    128  CZ       -13.8950   15.8010  -15.2610 C.ar  298  TYR298      0.1957
    129  OH       -15.0840   16.2340  -14.6730 O.3   298  TYR298     -0.2866
    130  N         -7.2100   17.9790  -18.8290 N.3   301  MET301     -0.1230
    131  CA        -7.4600   18.8190  -17.6330 C.3   301  MET301      0.1702
    132  C         -6.4690   18.5260  -16.5210 C.2   301  MET301      0.2592
    133  O         -5.9840   19.4390  -15.8630 O.2   301  MET301     -0.2718
    134  CB        -8.8760   18.5490  -17.0760 C.3   301  MET301      0.0401
    135  CG        -9.9400   19.0990  -17.9650 C.3   301  MET301      0.0596
    136  SD       -10.0950   20.8810  -17.7860 S.3   301  MET301     -0.1393
    137  CE       -11.6280   21.2480  -18.6430 C.3   301  MET301      0.0692
    138  N         -6.2060   17.2390  -16.2880 N.am  302  TYR302     -0.1976
    139  CA        -5.2260   16.8780  -15.2730 C.3   302  TYR302      0.1639
    140  C         -3.8990   17.5590  -15.5570 C.2   302  TYR302      0.2290
    141  O         -3.2220   18.0890  -14.6650 O.2   302  TYR302     -0.2864
    142  CB        -4.9950   15.3860  -15.1580 C.3   302  TYR302      0.0560
    143  CG        -5.9240   14.6130  -14.2880 C.ar  302  TYR302     -0.0198
    144  CD1       -5.8340   14.6450  -12.9320 C.ar  302  TYR302     -0.0009
    145  CD2       -6.8360   13.7200  -14.8760 C.ar  302  TYR302     -0.0009
    146  CE1       -6.7280   13.9060  -12.1270 C.ar  302  TYR302      0.0417
    147  CE2       -7.6920   12.9840  -14.0850 C.ar  302  TYR302      0.0417
    148  CZ        -7.5970   13.0370  -12.7330 C.ar  302  TYR302      0.1957
    149  OH        -8.4720   12.2780  -11.9200 O.3   302  TYR302     -0.2866
    150  N         -4.1050   21.3580  -15.0100 N.3   305  GLY305     -0.1225
    151  CA        -4.1000   21.6600  -13.5650 C.3   305  GLY305      0.1811
    152  C         -2.6910   21.6700  -12.9990 C.2   305  GLY305      0.2280
    153  O         -2.3190   22.5550  -12.2290 O.2   305  GLY305     -0.2866
    154  N         -0.9060   24.7600  -14.2600 N.3   308  CYS308     -0.1221
    155  CA        -1.4860   25.8960  -13.6010 C.3   308  CYS308      0.1808
    156  C         -0.8870   26.0870  -12.2040 C.2   308  CYS308      0.2601
    157  O         -0.4320   27.1730  -11.8320 O.2   308  CYS308     -0.2717
    158  CB        -3.0240   25.6940  -13.5630 C.3   308  CYS308      0.0970
    159  SG        -3.8110   27.1700  -12.8200 S.3   308  CYS308     -0.0800
    160  N         -0.8630   25.0220  -11.4370 N.am  309  ARG309     -0.1979
    161  CA        -0.3100   25.0830  -10.0550 C.3   309  ARG309      0.1597
    162  C          1.1520   25.4190  -10.0650 C.2   309  ARG309      0.2287
    163  O          1.6900   25.9790   -9.0940 O.2   309  ARG309     -0.2864
    164  CB        -0.5330   23.7250   -9.3440 C.3   309  ARG309      0.0334
    165  CG        -1.9890   23.4070   -8.9980 C.3   309  ARG309      0.0492
    166  CD        -2.0370   22.1930   -8.0820 C.3   309  ARG309      0.2205
    167  NE        -1.6910   20.9610   -8.7660 N.pl3 309  ARG309     -0.0865
    168  CZ        -2.5050   20.3060   -9.6030 C.cat 309  ARG309      0.5346
    169  NH1       -3.7130   20.7380   -9.8330 N.pl3 309  ARG309      0.1354
    170  NH2       -2.0770   19.1820  -10.1490 N.pl3 309  ARG309      0.1354
    171  N         -5.4110   23.2960  -21.7870 N.3   320  TRP320     -0.1241
    172  CA        -6.8570   23.6700  -21.8830 C.3   320  TRP320      0.1605
    173  C         -7.3030   23.7930  -23.3170 C.2   320  TRP320      0.2264
    174  O         -8.4400   23.3830  -23.6480 O.2   320  TRP320     -0.2867
    175  CB        -7.1070   24.9610  -21.1410 C.3   320  TRP320      0.0550
    176  CG        -7.0490   24.8060  -19.6250 C.ar  320  TRP320      0.0003
    177  CD1       -7.6260   23.8000  -18.8660 C.ar  320  TRP320      0.0946
    178  CD2       -6.4280   25.6970  -18.6830 C.ar  320  TRP320      0.0152
    179  NE1       -7.3880   24.0260  -17.5490 N.ar  320  TRP320     -0.2442
    180  CE2       -6.6350   25.1530  -17.3860 C.ar  320  TRP320      0.0810
    181  CE3       -5.6840   26.8680  -18.8230 C.ar  320  TRP320      0.0012
    182  CZ2       -6.1470   25.7490  -16.2300 C.ar  320  TRP320      0.0191
    183  CZ3       -5.2140   27.4690  -17.6730 C.ar  320  TRP320      0.0001
    184  CH2       -5.4920   26.9150  -16.3840 C.ar  320  TRP320      0.0015
    185  N        -16.8510   22.5810  -15.5400 N.3   342  GLU342     -0.1245
    186  CA       -15.3950   22.5700  -15.6310 C.3   342  GLU342      0.1567
    187  C        -14.8720   23.6280  -16.6000 C.2   342  GLU342      0.2260
    188  O        -13.9580   24.4010  -16.3090 O.2   342  GLU342     -0.2867
    189  CB       -14.8410   21.1970  -16.0440 C.3   342  GLU342      0.0388
    190  CG       -15.1400   20.0690  -15.1170 C.3   342  GLU342      0.1160
    191  CD       -14.2500   19.9650  -13.8930 C.2   342  GLU342      0.3649
    192  OE1      -13.6130   20.9660  -13.4140 O.co2 342  GLU342     -0.2457
    193  OE2      -14.2590   18.8080  -13.3830 O.co2 342  GLU342     -0.2457
    194  N        -12.7530   27.2320  -15.8270 N.3   346  VAL346     -0.1245
    195  CA       -11.4670   27.5030  -16.4570 C.3   346  VAL346      0.1561
    196  C        -11.5070   28.8290  -17.1680 C.2   346  VAL346      0.2260
    197  O        -10.6360   29.6870  -16.9590 O.2   346  VAL346     -0.2867
    198  CB       -11.0180   26.3740  -17.3850 C.3   346  VAL346      0.0252
    199  CG1       -9.8530   26.7970  -18.2680 C.3   346  VAL346      0.0019
    200  CG2      -10.7680   25.1330  -16.5310 C.3   346  VAL346      0.0019
    201  N        -10.2790   30.5290  -13.6150 N.3   350  VAL350     -0.1245
    202  CA        -8.8740   30.1270  -13.5600 C.3   350  VAL350      0.1561
    203  C         -7.9990   30.9130  -14.5220 C.2   350  VAL350      0.2260
    204  O         -6.9360   31.4440  -14.1220 O.2   350  VAL350     -0.2867
    205  CB        -8.7130   28.6060  -13.7330 C.3   350  VAL350      0.0252
    206  CG1       -7.2070   28.2140  -13.6590 C.3   350  VAL350      0.0019
    207  CG2       -9.5770   27.8700  -12.6740 C.3   350  VAL350      0.0019
@<TRIPOS>BOND
     1   174   173    2
     2   173   172    1
     3   172   171    1
     4   172   175    1
     5   175   176    1
     6    43    42   ar
     7   176   177   ar
     8   176   178   ar
     9    42    44   ar
    10    42    41    1
    11   118   119    1
    12    34    31    1
    13    34    35    1
    14   177   179   ar
    15    41    40    1
    16   130   131    1
    17   181   178   ar
    18   181   183   ar
    19    25    24    2
    20   178   180   ar
    21   137   136    1
    22    31    30    1
    23    31    32    1
    24    90    91    1
    25   120   119    1
    26   120   121    2
    27   199   198    1
    28   119   122    1
    29    36    32   am
    30    36    37    1
    31   135   136    1
    32   135   134    1
    33    40    37    1
    34    24    30   am
    35    24    23    1
    36   183   184   ar
    37   131   134    1
    38   131   132    1
    39    32    33    2
    40   179   180   ar
    41    91    92    1
    42    91    94    1
    43   180   182   ar
    44   198   200    1
    45   198   195    1
    46    22    23    1
    47    92    93    2
    48   196   197    2
    49   196   195    1
    50    37    38    1
    51   122   123    1
    52    23    26    1
    53   187   188    2
    54   187   186    1
    55   132   138   am
    56   132   133    2
    57   195   194    1
    58    60    62   ar
    59    60    58   ar
    60   184   182   ar
    61   123   125   ar
    62   123   124   ar
    63   125   127   ar
    64   138   139    1
    65   102   103    1
    66    94    95    1
    67   189   186    1
    68   189   190    1
    69    38    45   am
    70    38    39    2
    71    45    46    1
    72    26    27    1
    73    57    58    1
    74    57    54    1
    75   127   128   ar
    76   124   126   ar
    77    62    61   ar
    78   186   185    1
    79    58    59   ar
    80   140   139    1
    81   140   141    2
    82    56    55    2
    83    49    46    1
    84    49    50    1
    85   139   142    1
    86   128   126   ar
    87   128   129    1
    88   142   143    1
    89    96    95   ar
    90    96    98   ar
    91   190   191    1
    92    53    54    1
    93    53    47   am
    94    95    97   ar
    95   150   151    1
    96   103   106    1
    97   103   104    1
    98    46    47    1
    99   109   108    1
   100    55    54    1
   101    55    63   am
   102   145   143   ar
   103   145   147   ar
   104    27    28    1
   105    27    29    1
   106    47    48    2
   107    52    50   ar
   108   106   107    1
   109    65    64    1
   110    65    66    2
   111   203   204    2
   112   203   202    1
   113    61    59   ar
   114    50    51   ar
   115    63    64    1
   116   143   144   ar
   117    64    67    1
   118   154   155    1
   119    98   100   ar
   120   147   148   ar
   121    97    99   ar
   122   191   192   ar
   123   191   193   ar
   124   104   105    2
   125   205   206    1
   126   205   202    1
   127   205   207    1
   128   107   108    1
   129   201   202    1
   130   155   158    1
   131   155   156    1
   132   151   152    1
   133   158   159    1
   134   100    99   ar
   135   100   101    1
   136   152   153    2
   137   144   146   ar
   138   148   146   ar
   139   148   149    1
   140   156   157    2
   141   156   160   am
   142   160   161    1
   143    74    76   ar
   144    74    73   ar
   145   116   115   ar
   146    72    73    1
   147    72    69    1
   148    76    78   ar
   149   170   168    1
   150    68    69    1
   151   162   161    1
   152   162   163    2
   153   161   164    1
   154    73    75   ar
   155    84    83    1
   156   169   168    1
   157    69    70    1
   158   110   111    1
   159    15    14    1
   160   115   117   ar
   161   115   114    1
   162   168   167    2
   163    20    17    1
   164    20    21    1
   165   164   165    1
   166    78    77   ar
   167    75    77   ar
   168   165   166    1
   169    17    16    1
   170    17    18    1
   171   167   166    1
   172    83    80    1
   173   111   114    1
   174   111   112    1
   175    14    11    1
   176    13    12    2
   177    19    18    2
   178    70    71    2
   179    16    12   am
   180    12    11    1
   181    11    10    1
   182   112   113    2
   183    80    79    1
   184    80    81    1
   185    81    82    2
   186    81    85   am
   187    85    86    1
   188    89    86    1
   189    86    87    1
   190    87    88    2
   191     4     3    2
   192     5     6    1
   193     5     2    1
   194     6     7    1
   195     2     3    1
   196     2     1    1
   197     7     9   am
   198     7     8    2
