@<TRIPOS>MOLECULE
tmp/4og7A00.pdb
 205 196 0 0 0
SMALL
GASTEIGER

@<TRIPOS>ATOM
      1  N        -18.1970    5.5090   -0.8420 N.3   120  GLN120     -0.1245
      2  CA       -17.8950    4.6340   -1.9550 C.3   120  GLN120      0.1566
      3  C        -17.6490    3.1490   -1.9310 C.2   120  GLN120      0.2260
      4  O        -17.5860    2.5600   -2.9580 O.2   120  GLN120     -0.2867
      5  CB       -16.6890    5.3120   -2.5960 C.3   120  GLN120      0.0367
      6  CG       -15.3650    4.8300   -2.0390 C.3   120  GLN120      0.0905
      7  CD       -15.0170    5.5360   -0.7470 C.2   120  GLN120      0.2608
      8  OE1      -15.8180    5.5720    0.1860 O.2   120  GLN120     -0.2717
      9  NE2      -13.8250    6.1110   -0.6900 N.am  120  GLN120     -0.0878
     10  N        -21.5110    6.1920   -8.3240 N.3   134  SER134     -0.1217
     11  CA       -20.7190    5.2270   -9.0010 C.3   134  SER134      0.1889
     12  C        -20.4180    4.0490   -8.0500 C.2   134  SER134      0.2288
     13  O        -20.2060    2.9670   -8.4900 O.2   134  SER134     -0.2866
     14  CB       -19.4440    5.8720   -9.5610 C.3   134  SER134      0.2089
     15  OG       -18.6320    6.4460   -8.5720 O.3   134  SER134     -0.2183
     16  N        -17.2410    2.8090  -17.3110 N.3   156  LEU156     -0.1231
     17  CA       -17.0450    4.1360  -16.8240 C.3   156  LEU156      0.1693
     18  C        -16.9100    5.1140  -17.9790 C.2   156  LEU156      0.2593
     19  O        -16.1040    4.8970  -18.8670 O.2   156  LEU156     -0.2718
     20  CB       -15.7490    4.1760  -15.9940 C.3   156  LEU156      0.0284
     21  CG       -15.6970    3.2470  -14.7620 C.3   156  LEU156      0.0019
     22  CD1      -14.2850    3.1760  -14.1560 C.3   156  LEU156      0.0001
     23  CD2      -16.6430    3.7610  -13.6970 C.3   156  LEU156      0.0001
     24  N        -17.6190    6.2320  -17.9160 N.am  157  SER157     -0.1938
     25  CA       -17.2060    7.4190  -18.6680 C.3   157  SER157      0.2055
     26  C        -16.6230    8.4320  -17.6770 C.2   157  SER157      0.2643
     27  O        -16.4940    8.1340  -16.5070 O.2   157  SER157     -0.2714
     28  CB       -18.4520    8.1170  -19.2680 C.3   157  SER157      0.2130
     29  OG       -19.2560    8.6980  -18.2630 O.3   157  SER157     -0.2179
     30  N        -16.3000    9.6400  -18.1230 N.am  158  GLU158     -0.1963
     31  CA       -15.6780   10.5660  -17.2460 C.3   158  GLU158      0.1733
     32  C        -16.5180   11.1090  -16.1010 C.2   158  GLU158      0.2616
     33  O        -16.0040   11.7990  -15.2240 O.2   158  GLU158     -0.2715
     34  CB       -15.0440   11.6760  -18.1080 C.3   158  GLU158      0.0429
     35  CG       -13.8440   11.1490  -18.8720 C.3   158  GLU158      0.1163
     36  CD       -13.0190   12.2280  -19.5200 C.2   158  GLU158      0.3649
     37  OE1      -13.6220   13.0590  -20.2440 O.co2 158  GLU158     -0.2457
     38  OE2      -11.7510   12.2210  -19.3800 O.co2 158  GLU158     -0.2457
     39  N        -17.8020   10.7700  -16.0790 N.am  159  ASP159     -0.1957
     40  CA       -18.7660   11.3320  -15.0750 C.3   159  ASP159      0.1840
     41  C        -19.9340   10.4070  -14.7300 C.2   159  ASP159      0.2622
     42  O        -20.9100   10.8660  -14.1810 O.2   159  ASP159     -0.2715
     43  CB       -19.3140   12.6720  -15.5830 C.3   159  ASP159      0.1450
     44  CG       -20.0370   13.5010  -14.4960 C.2   159  ASP159      0.3671
     45  OD1      -19.4100   13.7310  -13.4820 O.co2 159  ASP159     -0.2456
     46  OD2      -21.2150   13.9850  -14.6490 O.co2 159  ASP159     -0.2456
     47  N        -19.8580    9.1300  -15.0900 N.am  160  HIS160     -0.1973
     48  CA       -20.9360    8.2020  -14.8350 C.3   160  HIS160      0.1656
     49  C        -20.4070    6.7620  -14.9390 C.2   160  HIS160      0.2291
     50  O        -19.3620    6.5300  -15.4910 O.2   160  HIS160     -0.2864
     51  CB       -22.0220    8.4490  -15.8560 C.3   160  HIS160      0.0771
     52  CG       -23.2740    7.6570  -15.6550 C.ar  160  HIS160      0.0820
     53  ND1      -23.9140    7.5590  -14.4370 N.ar  160  HIS160     -0.2267
     54  CD2      -24.0590    7.0030  -16.5420 C.ar  160  HIS160      0.1154
     55  CE1      -25.0330    6.8530  -14.5720 C.ar  160  HIS160      0.1986
     56  NE2      -25.1420    6.5000  -15.8410 N.ar  160  HIS160     -0.2212
     57  N        -10.1610    1.0240  -10.2630 N.3   217  PHE217     -0.1241
     58  CA       -11.2530    1.9460   -9.9190 C.3   217  PHE217      0.1605
     59  C        -11.4500    2.0970   -8.4070 C.2   217  PHE217      0.2264
     60  O        -11.4710    3.2060   -7.9210 O.2   217  PHE217     -0.2867
     61  CB       -12.5650    1.5630  -10.5940 C.3   217  PHE217      0.0534
     62  CG       -13.7290    2.3750  -10.1510 C.ar  217  PHE217     -0.0203
     63  CD1      -13.9920    3.5990  -10.7320 C.ar  217  PHE217     -0.0042
     64  CD2      -14.5740    1.9350   -9.1620 C.ar  217  PHE217     -0.0042
     65  CE1      -15.0650    4.3850  -10.3210 C.ar  217  PHE217     -0.0003
     66  CE2      -15.6170    2.7390   -8.7240 C.ar  217  PHE217     -0.0003
     67  CZ       -15.8860    3.9420   -9.3210 C.ar  217  PHE217     -0.0000
     68  N         -8.6100    4.1760   -7.1310 N.3   220  CYS220     -0.1221
     69  CA        -8.8120    5.6080   -7.4520 C.3   220  CYS220      0.1808
     70  C         -9.8970    6.1850   -6.5500 C.2   220  CYS220      0.2601
     71  O         -9.8470    7.3550   -6.2060 O.2   220  CYS220     -0.2717
     72  CB        -9.2180    5.8310   -8.9140 C.3   220  CYS220      0.0970
     73  SG        -7.8310    5.5130  -10.0140 S.3   220  CYS220     -0.0800
     74  N        -10.8530    5.3400   -6.1580 N.am  221  ALA221     -0.1979
     75  CA       -11.9600    5.7900   -5.3390 C.3   221  ALA221      0.1597
     76  C        -11.5820    5.9890   -3.8700 C.2   221  ALA221      0.2287
     77  O        -12.3510    6.5720   -3.1290 O.2   221  ALA221     -0.2864
     78  CB       -13.1190    4.8420   -5.4650 C.3   221  ALA221      0.0319
     79  N         -6.4080    2.9620  -18.3980 N.3   255  TYR255     -0.1241
     80  CA        -7.1050    3.7980  -17.4110 C.3   255  TYR255      0.1605
     81  C         -6.4680    5.2030  -17.3000 C.2   255  TYR255      0.2264
     82  O         -5.7270    5.4820  -16.3760 O.2   255  TYR255     -0.2867
     83  CB        -7.1250    3.0760  -16.0670 C.3   255  TYR255      0.0534
     84  CG        -8.1740    3.5730  -15.0710 C.ar  255  TYR255     -0.0201
     85  CD1       -8.7970    4.8370  -15.2050 C.ar  255  TYR255     -0.0009
     86  CD2       -8.5180    2.7950  -13.9850 C.ar  255  TYR255     -0.0009
     87  CE1       -9.7630    5.2780  -14.3000 C.ar  255  TYR255      0.0417
     88  CE2       -9.4650    3.2360  -13.0530 C.ar  255  TYR255      0.0417
     89  CZ       -10.0800    4.4720  -13.2170 C.ar  255  TYR255      0.1957
     90  OH       -11.0490    4.8370  -12.3060 O.3   255  TYR255     -0.2866
     91  N         -7.4210    8.2540  -16.3490 N.3   257  MET257     -0.1245
     92  CA        -7.5130    9.0940  -15.1370 C.3   257  MET257      0.1570
     93  C         -6.7550    8.5400  -13.9500 C.2   257  MET257      0.2261
     94  O         -6.3480    9.3000  -13.0610 O.2   257  MET257     -0.2867
     95  CB        -8.9860    9.3420  -14.7840 C.3   257  MET257      0.0387
     96  CG        -9.6490   10.3260  -15.7510 C.3   257  MET257      0.0595
     97  SD       -11.3650   10.7500  -15.3710 S.3   257  MET257     -0.1393
     98  CE       -12.1700    9.2110  -15.5220 C.3   257  MET257      0.0692
     99  N         -0.6750   13.3180   -9.7620 N.3   264  ASP264     -0.1239
    100  CA        -1.0230   14.2110   -8.6480 C.3   264  ASP264      0.1674
    101  C         -0.4040   13.7670   -7.3440 C.2   264  ASP264      0.2266
    102  O          0.1880   14.5620   -6.6220 O.2   264  ASP264     -0.2867
    103  CB        -2.5600   14.2730   -8.4760 C.3   264  ASP264      0.1410
    104  CG        -3.2460   15.0790   -9.5760 C.2   264  ASP264      0.3668
    105  OD1       -2.5640   15.7470  -10.4500 O.co2 264  ASP264     -0.2456
    106  OD2       -4.5050   15.0490   -9.5670 O.co2 264  ASP264     -0.2456
    107  N        -10.5490   14.8040  -19.3480 N.3   298  TYR298     -0.1241
    108  CA        -9.7640   14.9580  -18.1400 C.3   298  TYR298      0.1605
    109  C         -8.2510   14.7280  -18.2290 C.2   298  TYR298      0.2264
    110  O         -7.5100   15.3440  -17.4590 O.2   298  TYR298     -0.2867
    111  CB       -10.3380   14.1490  -16.9830 C.3   298  TYR298      0.0534
    112  CG       -11.5520   14.7410  -16.3480 C.ar  298  TYR298     -0.0201
    113  CD1      -11.5420   16.0090  -15.8270 C.ar  298  TYR298     -0.0009
    114  CD2      -12.7320   14.0530  -16.3270 C.ar  298  TYR298     -0.0009
    115  CE1      -12.6660   16.5620  -15.2370 C.ar  298  TYR298      0.0417
    116  CE2      -13.8610   14.6170  -15.7770 C.ar  298  TYR298      0.0417
    117  CZ       -13.8010   15.8540  -15.2280 C.ar  298  TYR298      0.1957
    118  OH       -14.9250   16.3360  -14.7060 O.3   298  TYR298     -0.2866
    119  N         -6.9790   18.0360  -18.7800 N.3   301  MET301     -0.1230
    120  CA        -7.1570   18.8840  -17.5980 C.3   301  MET301      0.1702
    121  C         -6.2450   18.6220  -16.4230 C.2   301  MET301      0.2592
    122  O         -5.8170   19.5730  -15.8080 O.2   301  MET301     -0.2718
    123  CB        -8.6110   18.8810  -17.1220 C.3   301  MET301      0.0401
    124  CG        -9.3940   19.5520  -18.2320 C.3   301  MET301      0.0596
    125  SD       -10.7950   20.5090  -17.7440 S.3   301  MET301     -0.1393
    126  CE       -11.7210   19.1070  -17.4570 C.3   301  MET301      0.0692
    127  N         -6.0230   17.3520  -16.1030 N.am  302  TYR302     -0.1976
    128  CA        -5.0470   16.9670  -15.1070 C.3   302  TYR302      0.1639
    129  C         -3.6950   17.6150  -15.4360 C.2   302  TYR302      0.2290
    130  O         -3.0560   18.1920  -14.5640 O.2   302  TYR302     -0.2864
    131  CB        -4.8180   15.4340  -15.0600 C.3   302  TYR302      0.0560
    132  CG        -5.7000   14.5830  -14.1730 C.ar  302  TYR302     -0.0198
    133  CD1       -5.5690   14.6080  -12.7730 C.ar  302  TYR302     -0.0009
    134  CD2       -6.6510   13.7370  -14.7120 C.ar  302  TYR302     -0.0009
    135  CE1       -6.3620   13.8130  -11.9550 C.ar  302  TYR302      0.0417
    136  CE2       -7.4320   12.9240  -13.9020 C.ar  302  TYR302      0.0417
    137  CZ        -7.2880   12.9650  -12.5300 C.ar  302  TYR302      0.1957
    138  OH        -8.0710   12.1750  -11.7060 O.3   302  TYR302     -0.2866
    139  N         -3.7690   21.3350  -14.9370 N.3   305  GLY305     -0.1225
    140  CA        -3.8140   21.7550  -13.5450 C.3   305  GLY305      0.1811
    141  C         -2.4210   21.7570  -12.9490 C.2   305  GLY305      0.2280
    142  O         -2.0100   22.6890  -12.2570 O.2   305  GLY305     -0.2866
    143  N         -0.7460   24.7100  -14.2580 N.3   308  CYS308     -0.1221
    144  CA        -1.3210   25.8740  -13.5530 C.3   308  CYS308      0.1808
    145  C         -0.7280   26.0240  -12.1330 C.2   308  CYS308      0.2601
    146  O         -0.1930   27.0950  -11.8010 O.2   308  CYS308     -0.2717
    147  CB        -2.8470   25.7440  -13.4990 C.3   308  CYS308      0.0970
    148  SG        -3.7150   27.0830  -12.6570 S.3   308  CYS308     -0.0800
    149  N         -0.7450   24.9690  -11.3290 N.am  309  ARG309     -0.1979
    150  CA        -0.1550   25.0370   -9.9720 C.3   309  ARG309      0.1597
    151  C          1.3310   25.4480   -9.9660 C.2   309  ARG309      0.2287
    152  O          1.7780   26.0660   -9.0260 O.2   309  ARG309     -0.2864
    153  CB        -0.2500   23.7050   -9.2230 C.3   309  ARG309      0.0334
    154  CG        -1.6610   23.2360   -8.8680 C.3   309  ARG309      0.0492
    155  CD        -1.5760   21.9970   -7.9980 C.3   309  ARG309      0.2205
    156  NE        -1.1990   20.8110   -8.7560 N.pl3 309  ARG309     -0.0865
    157  CZ        -2.0130   20.1460   -9.5720 C.cat 309  ARG309      0.5346
    158  NH1       -3.2590   20.5500   -9.7960 N.pl3 309  ARG309      0.1354
    159  NH2       -1.5620   19.0930  -10.2230 N.pl3 309  ARG309      0.1354
    160  N         -5.1890   23.2120  -21.9640 N.3   320  TRP320     -0.1241
    161  CA        -6.5740   23.6230  -22.0900 C.3   320  TRP320      0.1605
    162  C         -7.0010   23.7610  -23.5430 C.2   320  TRP320      0.2264
    163  O         -8.0980   23.3630  -23.8920 O.2   320  TRP320     -0.2867
    164  CB        -6.8160   24.9350  -21.3280 C.3   320  TRP320      0.0550
    165  CG        -6.8780   24.7360  -19.8190 C.ar  320  TRP320      0.0003
    166  CD1       -7.5490   23.7190  -19.1650 C.ar  320  TRP320      0.0946
    167  CD2       -6.3250   25.5640  -18.8140 C.ar  320  TRP320      0.0152
    168  NE1       -7.3870   23.8450  -17.8250 N.ar  320  TRP320     -0.2442
    169  CE2       -6.6510   24.9880  -17.5710 C.ar  320  TRP320      0.0810
    170  CE3       -5.6210   26.7860  -18.8260 C.ar  320  TRP320      0.0012
    171  CZ2       -6.2400   25.5520  -16.3360 C.ar  320  TRP320      0.0191
    172  CZ3       -5.1520   27.2950  -17.6250 C.ar  320  TRP320      0.0001
    173  CH2       -5.5110   26.6790  -16.3720 C.ar  320  TRP320      0.0015
    174  N        -16.5830   22.6660  -15.5900 N.3   342  GLU342     -0.1245
    175  CA       -15.1080   22.6350  -15.6710 C.3   342  GLU342      0.1567
    176  C        -14.5910   23.7020  -16.6730 C.2   342  GLU342      0.2260
    177  O        -13.7080   24.4130  -16.3420 O.2   342  GLU342     -0.2867
    178  CB       -14.5890   21.2830  -16.0730 C.3   342  GLU342      0.0388
    179  CG       -14.9930   20.1940  -15.1170 C.3   342  GLU342      0.1160
    180  CD       -14.1660   20.0920  -13.8730 C.2   342  GLU342      0.3649
    181  OE1      -13.4380   21.0550  -13.4310 O.co2 342  GLU342     -0.2457
    182  OE2      -14.2510   18.9420  -13.3800 O.co2 342  GLU342     -0.2457
    183  N        -15.2050   27.3310  -15.3870 N.3   345  GLU345     -0.1231
    184  CA       -14.2580   27.7170  -14.3640 C.3   345  GLU345      0.1699
    185  C        -12.8830   28.0120  -14.9480 C.2   345  GLU345      0.2592
    186  O        -12.2400   28.9290  -14.4940 O.2   345  GLU345     -0.2718
    187  CB       -14.1420   26.6640  -13.2650 C.3   345  GLU345      0.0402
    188  CG       -15.4110   26.6280  -12.4100 C.3   345  GLU345      0.1161
    189  CD       -15.3500   25.6610  -11.2310 C.2   345  GLU345      0.3649
    190  OE1      -14.2090   25.2520  -10.8300 O.co2 345  GLU345     -0.2457
    191  OE2      -16.4330   25.3390  -10.6830 O.co2 345  GLU345     -0.2457
    192  N        -12.4790   27.2730  -15.9740 N.am  346  VAL346     -0.1980
    193  CA       -11.2050   27.5350  -16.6220 C.3   346  VAL346      0.1595
    194  C        -11.2670   28.9020  -17.2670 C.2   346  VAL346      0.2287
    195  O        -10.4640   29.7910  -16.9800 O.2   346  VAL346     -0.2864
    196  CB       -10.7920   26.4520  -17.6030 C.3   346  VAL346      0.0276
    197  CG1       -9.5380   26.8970  -18.3680 C.3   346  VAL346      0.0022
    198  CG2      -10.4490   25.1640  -16.8420 C.3   346  VAL346      0.0022
    199  N        -10.0160   30.5950  -13.7160 N.3   350  VAL350     -0.1245
    200  CA        -8.6510   30.1640  -13.5880 C.3   350  VAL350      0.1561
    201  C         -7.7920   30.9430  -14.5580 C.2   350  VAL350      0.2260
    202  O         -6.7890   31.5100  -14.1770 O.2   350  VAL350     -0.2867
    203  CB        -8.4850   28.6580  -13.8450 C.3   350  VAL350      0.0252
    204  CG1       -7.0240   28.2780  -13.6030 C.3   350  VAL350      0.0019
    205  CG2       -9.3740   27.8490  -12.8830 C.3   350  VAL350      0.0019
@<TRIPOS>BOND
     1   163   162    2
     2   162   161    1
     3   161   160    1
     4   161   164    1
     5   164   165    1
     6    37    36   ar
     7   165   166   ar
     8   165   167   ar
     9    36    38   ar
    10    36    35    1
    11   107   108    1
    12    28    25    1
    13    28    29    1
    14   166   168   ar
    15    35    34    1
    16    19    18    2
    17   170   167   ar
    18   170   172   ar
    19   167   169   ar
    20   119   120    1
    21    25    24    1
    22    25    26    1
    23    79    80    1
    24   197   196    1
    25   124   125    1
    26   124   123    1
    27   109   108    1
    28   109   110    2
    29   108   111    1
    30    30    26   am
    31    30    31    1
    32    34    31    1
    33    18    24   am
    34    18    17    1
    35   168   169   ar
    36   125   126    1
    37    26    27    2
    38   172   173   ar
    39   196   198    1
    40   196   193    1
    41   120   123    1
    42   120   121    1
    43   169   171   ar
    44    80    81    1
    45    80    83    1
    46    16    17    1
    47    81    82    2
    48   194   195    2
    49   194   193    1
    50    31    32    1
    51   111   112    1
    52    17    20    1
    53   176   177    2
    54   176   175    1
    55   193   192    1
    56    54    56   ar
    57    54    52   ar
    58   121   127   am
    59   121   122    2
    60   173   171   ar
    61    91    92    1
    62   112   114   ar
    63   112   113   ar
    64   114   116   ar
    65   127   128    1
    66    32    39   am
    67    32    33    2
    68    39    40    1
    69   178   175    1
    70   178   179    1
    71    83    84    1
    72    20    21    1
    73   192   185   am
    74    51    52    1
    75    51    48    1
    76    56    55   ar
    77   113   115   ar
    78   116   117   ar
    79    96    97    1
    80    96    95    1
    81   175   174    1
    82    52    53   ar
    83    43    40    1
    84    43    44    1
    85    98    97    1
    86    50    49    2
    87   129   128    1
    88   129   130    2
    89   183   184    1
    90   115   117   ar
    91   117   118    1
    92    85    84   ar
    93    85    87   ar
    94    92    95    1
    95    92    93    1
    96   179   180    1
    97   128   131    1
    98    47    48    1
    99    47    41   am
   100    40    41    1
   101    84    86   ar
   102   131   132    1
   103   185   186    2
   104   185   184    1
   105    49    48    1
   106   139   140    1
   107    21    22    1
   108    21    23    1
   109    41    42    2
   110   134   132   ar
   111   134   136   ar
   112    46    44   ar
   113    55    53   ar
   114   201   202    2
   115   201   200    1
   116    44    45   ar
   117   184   187    1
   118    87    89   ar
   119   143   144    1
   120   132   133   ar
   121    86    88   ar
   122    93    94    2
   123   136   137   ar
   124   180   181   ar
   125   180   182   ar
   126   203   204    1
   127   203   200    1
   128   203   205    1
   129   199   200    1
   130   144   147    1
   131   144   145    1
   132   140   141    1
   133   147   148    1
   134   187   188    1
   135    89    88   ar
   136    89    90    1
   137   141   142    2
   138   133   135   ar
   139   137   135   ar
   140   137   138    1
   141   188   189    1
   142   145   146    2
   143   145   149   am
   144   149   150    1
   145   189   190   ar
   146   189   191   ar
   147    63    65   ar
   148    63    62   ar
   149    61    62    1
   150    61    58    1
   151   105   104   ar
   152    65    67   ar
   153    57    58    1
   154   159   157    1
   155    62    64   ar
   156    73    72    1
   157   150   151    1
   158   150   153    1
   159   151   152    2
   160    58    59    1
   161   158   157    1
   162    99   100    1
   163   104   106   ar
   164   104   103    1
   165   157   156    2
   166    14    11    1
   167    14    15    1
   168    67    66   ar
   169   153   154    1
   170    64    66   ar
   171    11    10    1
   172    11    12    1
   173    72    69    1
   174   154   155    1
   175   156   155    1
   176   100   103    1
   177   100   101    1
   178    13    12    2
   179    59    60    2
   180    69    68    1
   181    69    70    1
   182   101   102    2
   183    70    71    2
   184    70    74   am
   185    74    75    1
   186    78    75    1
   187    75    76    1
   188    76    77    2
   189     4     3    2
   190     5     6    1
   191     5     2    1
   192     6     7    1
   193     2     3    1
   194     2     1    1
   195     7     9   am
   196     7     8    2
