@<TRIPOS>MOLECULE
tmp/4ogbD00.pdb
 138 131 0 0 0
SMALL
GASTEIGER

@<TRIPOS>ATOM
      1  N         14.5090   -1.9170  -12.8380 N.3    72  TYR72      -0.1227
      2  CA        15.4690   -2.9310  -12.4020 C.3    72  TYR72       0.1736
      3  C         14.9840   -3.7630  -11.2170 C.2    72  TYR72       0.2595
      4  O         14.8690   -4.9880  -11.3100 O.2    72  TYR72      -0.2718
      5  CB        16.8300   -2.3090  -12.0890 C.3    72  TYR72       0.0548
      6  CG        17.8750   -3.3200  -11.7130 C.ar   72  TYR72      -0.0200
      7  CD1       18.6590   -3.9420  -12.6910 C.ar   72  TYR72      -0.0009
      8  CD2       18.0670   -3.6830  -10.3870 C.ar   72  TYR72      -0.0009
      9  CE1       19.6130   -4.8930  -12.3460 C.ar   72  TYR72       0.0417
     10  CE2       19.0160   -4.6380  -10.0290 C.ar   72  TYR72       0.0417
     11  CZ        19.7850   -5.2420  -11.0150 C.ar   72  TYR72       0.1957
     12  OH        20.7440   -6.1710  -10.6470 O.3    72  TYR72      -0.2866
     13  N         14.7560   -3.1260  -10.0860 N.am   73  HIS73      -0.1975
     14  CA        14.3180   -3.7940   -8.8850 C.3    73  HIS73       0.1656
     15  C         12.8980   -4.3080   -8.9590 C.2    73  HIS73       0.2291
     16  O         12.0840   -3.9260   -8.1990 O.2    73  HIS73      -0.2864
     17  CB        14.5280   -2.9080   -7.6640 C.3    73  HIS73       0.0771
     18  CG        15.9650   -2.7070   -7.3410 C.ar   73  HIS73       0.0820
     19  ND1       16.6600   -1.5970   -7.7210 N.ar   73  HIS73      -0.2267
     20  CD2       16.8590   -3.5210   -6.7560 C.ar   73  HIS73       0.1154
     21  CE1       17.9080   -1.7110   -7.3420 C.ar   73  HIS73       0.1986
     22  NE2       18.0540   -2.8680   -6.7510 N.ar   73  HIS73      -0.2212
     23  N         16.9550    4.9570   -4.1630 N.3   121  SER121     -0.1217
     24  CA        17.9150    4.4600   -3.1890 C.3   121  SER121      0.1889
     25  C         17.4530    4.7340   -1.7700 C.2   121  SER121      0.2288
     26  O         16.5250    5.5100   -1.5490 O.2   121  SER121     -0.2866
     27  CB        19.2800    5.1130   -3.4250 C.3   121  SER121      0.2089
     28  OG        19.1740    6.5230   -3.3420 O.3   121  SER121     -0.2183
     29  N         22.0840   -7.7210    2.1110 N.3   184  THR184     -0.1218
     30  CA        22.0890   -7.2630    0.7180 C.3   184  THR184      0.1862
     31  C         22.2260   -5.7510    0.6250 C.2   184  THR184      0.2287
     32  O         22.3620   -5.2010   -0.4680 O.2   184  THR184     -0.2866
     33  CB        20.8420   -7.7040   -0.0900 C.3   184  THR184      0.1770
     34  OG1       19.6680   -7.1220    0.4830 O.3   184  THR184     -0.2211
     35  CG2       20.7120   -9.2480   -0.1270 C.3   184  THR184      0.0375
     36  N         24.0470   -2.6650    0.3270 N.3   186  MET186     -0.1230
     37  CA        25.3700   -2.3810   -0.2250 C.3   186  MET186      0.1702
     38  C         26.3120   -1.7170    0.7780 C.2   186  MET186      0.2593
     39  O         27.5360   -1.8300    0.6430 O.2   186  MET186     -0.2718
     40  CB        25.2680   -1.5250   -1.4930 C.3   186  MET186      0.0401
     41  CG        24.9550   -2.3270   -2.7610 C.3   186  MET186      0.0596
     42  SD        26.1880   -3.6040   -3.0950 S.3   186  MET186     -0.1393
     43  CE        27.6440   -2.6360   -3.4980 C.3   186  MET186      0.0692
     44  N         25.7520   -1.0360    1.7820 N.am  187  SER187     -0.1952
     45  CA        26.5800   -0.3850    2.7930 C.3   187  SER187      0.1924
     46  C         27.3270   -1.4380    3.6150 C.2   187  SER187      0.2314
     47  O         28.3320   -1.1430    4.2670 O.2   187  SER187     -0.2863
     48  CB        25.7540    0.5630    3.6830 C.3   187  SER187      0.2116
     49  OG        24.9270   -0.1420    4.6010 O.3   187  SER187     -0.2180
     50  N         22.8680  -11.3900   -5.9910 N.3   231  ASP231     -0.1225
     51  CA        22.3920  -10.0160   -6.1900 C.3   231  ASP231      0.1805
     52  C         23.3370   -9.2350   -7.1240 C.2   231  ASP231      0.2597
     53  O         22.8920   -8.4150   -7.9380 O.2   231  ASP231     -0.2718
     54  CB        22.3190   -9.3130   -4.8320 C.3   231  ASP231      0.1424
     55  CG        21.3400   -8.1580   -4.8150 C.2   231  ASP231      0.3668
     56  OD1       20.4480   -8.0970   -5.7020 O.co2 231  ASP231     -0.2456
     57  OD2       21.4680   -7.3170   -3.8950 O.co2 231  ASP231     -0.2456
     58  N         24.6410   -9.4970   -7.0110 N.am  232  LEU232     -0.1979
     59  CA        25.6290   -8.7700   -7.8280 C.3   232  LEU232      0.1596
     60  C         26.1650   -9.6340   -8.9570 C.2   232  LEU232      0.2287
     61  O         27.3560   -9.5500   -9.3010 O.2   232  LEU232     -0.2864
     62  CB        26.8090   -8.2930   -6.9750 C.3   232  LEU232      0.0297
     63  CG        26.5170   -7.3410   -5.8040 C.3   232  LEU232      0.0022
     64  CD1       27.7900   -6.7120   -5.2460 C.3   232  LEU232      0.0001
     65  CD2       25.5420   -6.2740   -6.2220 C.3   232  LEU232      0.0001
     66  N         19.1390   -0.8820  -14.9210 N.3   249  ILE249     -0.1231
     67  CA        19.5900   -0.1960  -13.7240 C.3   249  ILE249      0.1692
     68  C         19.8780    1.2900  -14.0350 C.2   249  ILE249      0.2591
     69  O         19.6690    2.1520  -13.1870 O.2   249  ILE249     -0.2718
     70  CB        20.7930   -0.8810  -13.0330 C.3   249  ILE249      0.0266
     71  CG1       20.9690   -0.3710  -11.5980 C.3   249  ILE249      0.0019
     72  CG2       22.0890   -0.6620  -13.8080 C.3   249  ILE249      0.0020
     73  CD1       19.7930   -0.6310  -10.6860 C.3   249  ILE249      0.0001
     74  N         20.3310    1.5880  -15.2500 N.am  250  MET250     -0.1979
     75  CA        20.6370    2.9770  -15.5880 C.3   250  MET250      0.1605
     76  C         19.3420    3.7560  -15.7620 C.2   250  MET250      0.2287
     77  O         19.2540    4.9090  -15.3530 O.2   250  MET250     -0.2864
     78  CB        21.5210    3.1020  -16.8370 C.3   250  MET250      0.0413
     79  CG        22.9940    2.6650  -16.6700 C.3   250  MET250      0.0598
     80  SD        23.8980    3.1730  -15.1840 S.3   250  MET250     -0.1393
     81  CE        23.7990    4.9670  -15.2710 C.3   250  MET250      0.0692
     82  N         18.2930    4.4330  -12.2180 N.3   253  PHE253     -0.1241
     83  CA        19.1470    5.4910  -11.6680 C.3   253  PHE253      0.1605
     84  C         18.7960    6.8730  -12.2440 C.2   253  PHE253      0.2264
     85  O         18.6700    7.8440  -11.5050 O.2   253  PHE253     -0.2867
     86  CB        20.6270    5.1800  -11.9150 C.3   253  PHE253      0.0534
     87  CG        21.1900    4.1090  -11.0120 C.ar  253  PHE253     -0.0203
     88  CD1       20.4290    3.5710   -9.9810 C.ar  253  PHE253     -0.0042
     89  CD2       22.4880    3.6520  -11.1890 C.ar  253  PHE253     -0.0042
     90  CE1       20.9460    2.5940   -9.1510 C.ar  253  PHE253     -0.0003
     91  CE2       23.0190    2.6750  -10.3610 C.ar  253  PHE253     -0.0003
     92  CZ        22.2470    2.1450   -9.3400 C.ar  253  PHE253     -0.0000
     93  N         25.8300    8.5550  -10.5180 N.3   270  MET270     -0.1245
     94  CA        25.3390    7.8410  -11.7000 C.3   270  MET270      0.1570
     95  C         23.9030    8.1470  -12.1010 C.2   270  MET270      0.2261
     96  O         23.4060    7.5870  -13.0770 O.2   270  MET270     -0.2867
     97  CB        25.4890    6.3330  -11.5260 C.3   270  MET270      0.0387
     98  CG        26.9050    5.8350  -11.6470 C.3   270  MET270      0.0595
     99  SD        26.9240    4.1370  -11.0950 S.3   270  MET270     -0.1393
    100  CE        26.3900    4.3600   -9.3950 C.3   270  MET270      0.0692
    101  N         31.3040    3.5030  -15.4390 N.3   281  SER281     -0.1202
    102  CA        30.6360    3.1410  -14.1980 C.3   281  SER281      0.2020
    103  C         30.6340    1.6170  -14.0650 C.2   281  SER281      0.2618
    104  O         30.9570    1.0660  -13.0120 O.2   281  SER281     -0.2717
    105  CB        29.2210    3.7260  -14.1270 C.3   281  SER281      0.2103
    106  OG        29.2790    5.1420  -14.1690 O.3   281  SER281     -0.2182
    107  N         30.3180    0.9450  -15.1660 N.am  282  GLN282     -0.1979
    108  CA        30.3820   -0.5110  -15.1990 C.3   282  GLN282      0.1601
    109  C         31.7980   -1.0510  -14.9640 C.2   282  GLN282      0.2287
    110  O         31.9910   -1.9140  -14.1040 O.2   282  GLN282     -0.2864
    111  CB        29.7720   -1.0680  -16.4890 C.3   282  GLN282      0.0394
    112  CG        28.2480   -0.9670  -16.5220 C.3   282  GLN282      0.0908
    113  CD        27.5950   -1.5570  -15.2710 C.2   282  GLN282      0.2608
    114  OE1       27.7400   -2.7420  -14.9830 O.2   282  GLN282     -0.2717
    115  NE2       26.8840   -0.7220  -14.5180 N.am  282  GLN282     -0.0878
    116  N         34.1490    0.4790  -13.4960 N.3   284  GLY284     -0.1210
    117  CA        34.4490    0.8210  -12.1180 C.3   284  GLY284      0.1956
    118  C         33.7530   -0.1000  -11.1380 C.2   284  GLY284      0.2611
    119  O         34.3530   -0.5560  -10.1640 O.2   284  GLY284     -0.2717
    120  N         32.4780   -0.3770  -11.4010 N.am  285  PHE285     -0.1976
    121  CA        31.6890   -1.2720  -10.5610 C.3   285  PHE285      0.1639
    122  C         32.3830   -2.6280  -10.5030 C.2   285  PHE285      0.2290
    123  O         32.6070   -3.1720   -9.4280 O.2   285  PHE285     -0.2864
    124  CB        30.2670   -1.4080  -11.1300 C.3   285  PHE285      0.0560
    125  CG        29.2990   -2.1470  -10.2280 C.ar  285  PHE285     -0.0200
    126  CD1       29.3230   -1.9680   -8.8580 C.ar  285  PHE285     -0.0042
    127  CD2       28.3410   -2.9980  -10.7680 C.ar  285  PHE285     -0.0042
    128  CE1       28.4250   -2.6350   -8.0350 C.ar  285  PHE285     -0.0003
    129  CE2       27.4420   -3.6640   -9.9500 C.ar  285  PHE285     -0.0003
    130  CZ        27.4870   -3.4780   -8.5820 C.ar  285  PHE285     -0.0000
    131  N         34.0750   -3.5310   -7.0280 N.3   289  ILE289     -0.1245
    132  CA        33.0780   -4.2420   -6.2640 C.3   289  ILE289      0.1561
    133  C         32.8110   -5.6950   -6.7050 C.2   289  ILE289      0.2260
    134  O         32.9140   -6.5840   -5.9280 O.2   289  ILE289     -0.2867
    135  CB        31.8010   -3.3970   -6.1860 C.3   289  ILE289      0.0252
    136  CG1       32.0780   -2.2310   -5.2600 C.3   289  ILE289      0.0019
    137  CG2       30.6450   -4.1860   -5.6320 C.3   289  ILE289      0.0019
    138  CD1       31.0040   -1.2190   -5.2750 C.3   289  ILE289      0.0001
@<TRIPOS>BOND
     1    78    79    1
     2    78    75    1
     3    79    80    1
     4   112   111    1
     5   112   113    1
     6   111   108    1
     7    76    75    1
     8    76    77    2
     9    75    74    1
    10   101   102    1
    11    81    80    1
    12   113   114    2
    13   113   115   am
    14    74    68   am
    15   108   107    1
    16   108   109    1
    17   107   103   am
    18   109   110    2
    19    66    67    1
    20   102   105    1
    21   102   103    1
    22   106   105    1
    23   103   104    2
    24    68    67    1
    25    68    69    2
    26    72    70    1
    27    67    70    1
    28   116   117    1
    29    96    95    2
    30    70    71    1
    31     1     2    1
    32     7     9   ar
    33     7     6   ar
    34     2     5    1
    35     2     3    1
    36     9    11   ar
    37    84    83    1
    38    84    85    2
    39    82    83    1
    40   117   118    1
    41    95    94    1
    42     5     6    1
    43    86    83    1
    44    86    87    1
    45     6     8   ar
    46    94    97    1
    47    94    93    1
    48    98    97    1
    49    98    99    1
    50    71    73    1
    51   120   118   am
    52   120   121    1
    53     4     3    2
    54     3    13   am
    55    89    87   ar
    56    89    91   ar
    57   118   119    2
    58   124   121    1
    59   124   125    1
    60    99   100    1
    61    11    12    1
    62    11    10   ar
    63    87    88   ar
    64   127   125   ar
    65   127   129   ar
    66   121   122    1
    67   122   123    2
    68     8    10   ar
    69    91    92   ar
    70   125   126   ar
    71    13    14    1
    72    88    90   ar
    73   129   130   ar
    74    92    90   ar
    75    61    60    2
    76    15    14    1
    77    15    16    2
    78    60    59    1
    79    14    17    1
    80   126   128   ar
    81   130   128   ar
    82    53    52    2
    83    59    58    1
    84    59    62    1
    85    19    21   ar
    86    19    18   ar
    87    17    18    1
    88    21    22   ar
    89    18    20   ar
    90    52    58   am
    91    52    51    1
    92   131   132    1
    93    62    63    1
    94    20    22   ar
    95   133   132    1
    96   133   134    2
    97   132   135    1
    98    65    63    1
    99    51    50    1
   100    51    54    1
   101   135   137    1
   102   135   136    1
   103    63    64    1
   104    56    55   ar
   105   138   136    1
   106    54    55    1
   107    55    57   ar
   108    23    24    1
   109    43    42    1
   110    27    28    1
   111    27    24    1
   112    24    25    1
   113    42    41    1
   114    41    40    1
   115    25    26    2
   116    40    37    1
   117    32    31    2
   118    37    36    1
   119    37    38    1
   120    35    33    1
   121    33    34    1
   122    33    30    1
   123    31    30    1
   124    39    38    2
   125    30    29    1
   126    38    44   am
   127    44    45    1
   128    45    46    1
   129    45    48    1
   130    46    47    2
   131    48    49    1
