@<TRIPOS>MOLECULE
tmp/4ogeA01.pdb
 80 76 0 0 0
SMALL
GASTEIGER

@<TRIPOS>ATOM
      1  N        -49.3580   76.5700   56.8740 N.3   693  ARG693     -0.1245
      2  CA       -48.8000   77.7200   56.1660 C.3   693  ARG693      0.1563
      3  C        -49.9180   78.4440   55.4400 C.2   693  ARG693      0.2260
      4  O        -50.6630   77.8360   54.6780 O.2   693  ARG693     -0.2867
      5  CB       -47.7140   77.2900   55.1780 C.3   693  ARG693      0.0307
      6  CG       -46.9140   78.4010   54.5790 C.3   693  ARG693      0.0489
      7  CD       -46.2610   77.9220   53.2860 C.3   693  ARG693      0.2205
      8  NE       -47.2370   77.7220   52.2000 N.pl3 693  ARG693     -0.0865
      9  CZ       -47.0650   76.8790   51.1790 C.cat 693  ARG693      0.5346
     10  NH1      -45.9550   76.1460   51.0930 N.pl3 693  ARG693      0.1354
     11  NH2      -47.9980   76.7670   50.2420 N.pl3 693  ARG693      0.1354
     12  N        -49.3060   81.8270   54.1030 N.3   695  ARG695     -0.1245
     13  CA       -48.6880   82.7120   53.1220 C.3   695  ARG695      0.1563
     14  C        -48.2500   81.9630   51.8560 C.2   695  ARG695      0.2260
     15  O        -48.0250   80.7450   51.8760 O.2   695  ARG695     -0.2867
     16  CB       -47.5000   83.4460   53.7430 C.3   695  ARG695      0.0307
     17  CG       -47.8210   84.3970   54.9030 C.3   695  ARG695      0.0489
     18  CD       -48.8680   85.4720   54.6150 C.3   695  ARG695      0.2205
     19  NE       -48.5890   86.2070   53.3870 N.pl3 695  ARG695     -0.0865
     20  CZ       -47.5010   86.9570   53.1700 C.cat 695  ARG695      0.5346
     21  NH1      -46.6130   87.2330   54.1100 N.pl3 695  ARG695      0.1354
     22  NH2      -47.3460   87.5240   51.9770 N.pl3 695  ARG695      0.1354
     23  N        -45.7770   80.5960   49.2370 N.3   697  SER697     -0.1217
     24  CA       -44.3620   80.2620   49.1320 C.3   697  SER697      0.1889
     25  C        -43.7550   81.1760   48.0760 C.2   697  SER697      0.2288
     26  O        -44.3870   81.4550   47.0590 O.2   697  SER697     -0.2866
     27  CB       -44.1780   78.8090   48.7210 C.3   697  SER697      0.2089
     28  OG       -44.2790   78.6800   47.3180 O.3   697  SER697     -0.2183
     29  N        -46.8790   69.9170   43.0140 N.3   800  PRO800     -0.2102
     30  CA       -47.3760   70.1100   44.3770 C.3   800  PRO800      0.1504
     31  C        -47.3280   71.5680   44.8450 C.2   800  PRO800      0.2576
     32  O        -47.5750   71.8100   46.0380 O.2   800  PRO800     -0.2718
     33  CB       -46.4170   69.2500   45.2140 C.3   800  PRO800      0.0282
     34  CG       -45.1200   69.2130   44.4020 C.3   800  PRO800      0.0208
     35  CD       -45.4220   69.6960   42.9880 C.3   800  PRO800      0.0893
     36  N        -47.0290   72.5090   43.9430 N.am  801  SER801     -0.1938
     37  CA       -47.0440   73.9320   44.2940 C.3   801  SER801      0.2055
     38  C        -48.4690   74.4690   44.3700 C.2   801  SER801      0.2643
     39  O        -48.8660   75.3790   43.6190 O.2   801  SER801     -0.2714
     40  CB       -46.2050   74.7530   43.3240 C.3   801  SER801      0.2130
     41  OG       -44.8710   74.2860   43.3330 O.3   801  SER801     -0.2179
     42  N        -49.2130   73.9010   45.3110 N.am  802  ILE802     -0.1963
     43  CA       -50.6100   74.2090   45.5520 C.3   802  ILE802      0.1727
     44  C        -50.6890   74.9340   46.8900 C.2   802  ILE802      0.2616
     45  O        -50.0810   74.4920   47.8640 O.2   802  ILE802     -0.2715
     46  CB       -51.4090   72.8960   45.6510 C.3   802  ILE802      0.0290
     47  CG1      -51.3230   72.1260   44.3300 C.3   802  ILE802      0.0022
     48  CG2      -52.8590   73.1610   46.0730 C.3   802  ILE802      0.0023
     49  CD1      -51.8880   70.7030   44.3940 C.3   802  ILE802      0.0001
     50  N        -51.4350   76.0340   46.9480 N.am  803  HIS803     -0.1973
     51  CA       -51.5040   76.8320   48.1710 C.3   803  HIS803      0.1656
     52  C        -52.6290   76.3860   49.1060 C.2   803  HIS803      0.2291
     53  O        -52.4360   76.2930   50.3150 O.2   803  HIS803     -0.2864
     54  CB       -51.6610   78.3180   47.8420 C.3   803  HIS803      0.0771
     55  CG       -51.8210   79.1840   49.0480 C.ar  803  HIS803      0.0820
     56  ND1      -53.0540   79.5530   49.5410 N.ar  803  HIS803     -0.2267
     57  CD2      -50.9020   79.7490   49.8690 C.ar  803  HIS803      0.1154
     58  CE1      -52.8890   80.3100   50.6130 C.ar  803  HIS803      0.1986
     59  NE2      -51.5920   80.4430   50.8330 N.ar  803  HIS803     -0.2212
     60  N        -50.2390   77.9110   43.5530 N.3   824  THR824     -0.1218
     61  CA       -49.6130   79.1380   44.0570 C.3   824  THR824      0.1862
     62  C        -49.5310   80.1730   42.9490 C.2   824  THR824      0.2287
     63  O        -49.8200   81.3540   43.1610 O.2   824  THR824     -0.2866
     64  CB       -48.1970   78.8450   44.6000 C.3   824  THR824      0.1770
     65  OG1      -48.3010   77.9870   45.7450 O.3   824  THR824     -0.2211
     66  CG2      -47.4580   80.1410   44.9870 C.3   824  THR824      0.0375
     67  N        -55.7010   73.5980   53.9530 N.3   870  VAL870     -0.1231
     68  CA       -54.3190   73.5630   53.4700 C.3   870  VAL870      0.1692
     69  C        -53.6120   72.3070   53.9870 C.2   870  VAL870      0.2591
     70  O        -54.0810   71.6580   54.9290 O.2   870  VAL870     -0.2718
     71  CB       -53.5020   74.7940   53.9160 C.3   870  VAL870      0.0266
     72  CG1      -54.0670   76.0710   53.3160 C.3   870  VAL870      0.0020
     73  CG2      -53.4370   74.8680   55.4400 C.3   870  VAL870      0.0020
     74  N        -52.4900   71.9660   53.3650 N.am  871  VAL871     -0.1980
     75  CA       -51.6320   70.8970   53.8730 C.3   871  VAL871      0.1595
     76  C        -51.1880   71.2810   55.2740 C.2   871  VAL871      0.2287
     77  O        -50.8220   72.4230   55.5080 O.2   871  VAL871     -0.2864
     78  CB       -50.4050   70.7140   52.9790 C.3   871  VAL871      0.0276
     79  CG1      -49.4320   69.7070   53.5950 C.3   871  VAL871      0.0022
     80  CG2      -50.8390   70.2690   51.5980 C.3   871  VAL871      0.0022
@<TRIPOS>BOND
     1    62    63    2
     2    62    61    1
     3    35    29    1
     4    35    34    1
     5    29    30    1
     6    40    41    1
     7    40    37    1
     8    60    61    1
     9    39    38    2
    10    36    37    1
    11    36    31   am
    12    61    64    1
    13    37    38    1
    14    47    49    1
    15    47    46    1
    16    38    42   am
    17    30    31    1
    18    30    33    1
    19    34    33    1
    20    64    66    1
    21    64    65    1
    22    31    32    2
    23    42    43    1
    24    43    46    1
    25    43    44    1
    26    46    48    1
    27    44    50   am
    28    44    45    2
    29    50    51    1
    30    26    25    2
    31    28    27    1
    32    54    51    1
    33    54    55    1
    34    25    24    1
    35    51    52    1
    36    27    24    1
    37    55    56   ar
    38    55    57   ar
    39    52    53    2
    40    24    23    1
    41    56    58   ar
    42    57    59   ar
    43    11     9    1
    44    58    59   ar
    45    10     9    1
    46     9     8    2
    47    80    78    1
    48    14    15    2
    49    14    13    1
    50    22    20    1
    51     8     7    1
    52    78    79    1
    53    78    75    1
    54    13    16    1
    55    13    12    1
    56    20    19    2
    57    20    21    1
    58     7     6    1
    59    72    71    1
    60    74    75    1
    61    74    69   am
    62    19    18    1
    63    68    71    1
    64    68    67    1
    65    68    69    1
    66    16    17    1
    67    75    76    1
    68    71    73    1
    69    69    70    2
    70     6     5    1
    71    18    17    1
    72     4     3    2
    73     5     2    1
    74    76    77    2
    75     3     2    1
    76     2     1    1
