@<TRIPOS>MOLECULE
tmp/4ogeA00.pdb
 92 86 0 0 0
SMALL
GASTEIGER

@<TRIPOS>ATOM
      1  N        -26.4500   68.6060   85.8340 N.3   551  MET551     -0.1245
      2  CA       -27.3670   68.2390   84.7520 C.3   551  MET551      0.1570
      3  C        -27.6980   69.3910   83.7870 C.2   551  MET551      0.2261
      4  O        -28.4610   69.2250   82.8340 O.2   551  MET551     -0.2867
      5  CB       -28.6580   67.6730   85.3490 C.3   551  MET551      0.0387
      6  CG       -28.4590   66.3730   86.1450 C.3   551  MET551      0.0595
      7  SD       -28.8270   64.8900   85.1870 S.3   551  MET551     -0.1393
      8  CE       -27.3700   64.7400   84.1630 C.3   551  MET551      0.0692
      9  N        -31.0270   64.2230   78.9340 N.3   580  SER580     -0.1217
     10  CA       -31.0540   62.9210   79.5980 C.3   580  SER580      0.1889
     11  C        -31.8420   63.0110   80.9040 C.2   580  SER580      0.2288
     12  O        -32.2390   61.9760   81.4900 O.2   580  SER580     -0.2866
     13  CB       -29.6190   62.4440   79.8780 C.3   580  SER580      0.2089
     14  OG       -28.9530   63.3350   80.7570 O.3   580  SER580     -0.2183
     15  N        -33.9610   59.9690   82.9070 N.3   584  ALA584     -0.1245
     16  CA       -33.4530   59.5820   84.2250 C.3   584  ALA584      0.1562
     17  C        -34.5610   59.6890   85.2820 C.2   584  ALA584      0.2260
     18  O        -34.7810   58.7670   86.0750 O.2   584  ALA584     -0.2867
     19  CB       -32.2400   60.4380   84.6170 C.3   584  ALA584      0.0290
     20  N        -37.3210   57.0440   84.9140 N.3   587  LYS587     -0.1231
     21  CA       -36.8790   55.7630   85.4750 C.3   587  LYS587      0.1693
     22  C        -36.8580   55.7670   87.0200 C.2   587  LYS587      0.2591
     23  O        -37.3770   54.8670   87.6560 O.2   587  LYS587     -0.2718
     24  CB       -35.4940   55.3860   84.9420 C.3   587  LYS587      0.0285
     25  CG       -35.4240   55.0680   83.4530 C.3   587  LYS587      0.0035
     26  CD       -34.0800   54.4070   83.1320 C.3   587  LYS587      0.0206
     27  CE       -33.9710   54.0140   81.6680 C.3   587  LYS587      0.1093
     28  NZ       -33.7630   55.1920   80.7910 N.3   587  LYS587     -0.1314
     29  N        -36.2650   56.7950   87.6090 N.am  588  ALA588     -0.1980
     30  CA       -36.1130   56.8790   89.0610 C.3   588  ALA588      0.1597
     31  C        -37.4350   56.9640   89.7980 C.2   588  ALA588      0.2287
     32  O        -37.5430   56.4920   90.9230 O.2   588  ALA588     -0.2864
     33  CB       -35.2580   58.0670   89.4230 C.3   588  ALA588      0.0319
     34  N        -30.0640   62.7880   91.0890 N.3   630  LEU630     -0.1245
     35  CA       -30.0220   62.0410   89.8250 C.3   630  LEU630      0.1561
     36  C        -28.6210   62.0080   89.2120 C.2   630  LEU630      0.2260
     37  O        -28.1680   60.9610   88.7270 O.2   630  LEU630     -0.2867
     38  CB       -31.0130   62.6140   88.8000 C.3   630  LEU630      0.0270
     39  CG       -32.5020   62.4680   89.1140 C.3   630  LEU630      0.0019
     40  CD1      -33.3580   63.2540   88.0960 C.3   630  LEU630      0.0001
     41  CD2      -32.8950   61.0050   89.1300 C.3   630  LEU630      0.0001
     42  N        -26.6240   59.5500   91.2540 N.3   633  ARG633     -0.1231
     43  CA       -27.0060   58.1670   91.0110 C.3   633  ARG633      0.1694
     44  C        -26.3630   57.7330   89.7150 C.2   633  ARG633      0.2592
     45  O        -25.8820   56.6080   89.5850 O.2   633  ARG633     -0.2718
     46  CB       -28.5290   58.0350   90.9030 C.3   633  ARG633      0.0321
     47  CG       -29.2580   58.0940   92.2390 C.3   633  ARG633      0.0489
     48  CD       -30.7720   58.3530   92.0680 C.3   633  ARG633      0.2205
     49  NE       -31.5030   57.2660   91.4020 N.pl3 633  ARG633     -0.0865
     50  CZ       -32.0320   56.2160   92.0270 C.cat 633  ARG633      0.5346
     51  NH1      -31.9080   56.0680   93.3450 N.pl3 633  ARG633      0.1354
     52  NH2      -32.6830   55.2930   91.3300 N.pl3 633  ARG633      0.1354
     53  N        -26.3260   58.6390   88.7490 N.am  634  SER634     -0.1952
     54  CA       -25.7330   58.2780   87.4760 C.3   634  SER634      0.1924
     55  C        -24.2110   58.0630   87.6100 C.2   634  SER634      0.2314
     56  O        -23.6330   57.1500   86.9820 O.2   634  SER634     -0.2863
     57  CB       -26.0450   59.3560   86.4470 C.3   634  SER634      0.2116
     58  OG       -25.3570   59.0640   85.2540 O.3   634  SER634     -0.2180
     59  N        -23.5360   54.8620   89.3210 N.3   637  ARG637     -0.1245
     60  CA       -23.7450   53.7720   88.3700 C.3   637  ARG637      0.1563
     61  C        -22.5110   53.5930   87.4850 C.2   637  ARG637      0.2260
     62  O        -22.0320   52.4670   87.3310 O.2   637  ARG637     -0.2867
     63  CB       -25.0190   53.9610   87.5400 C.3   637  ARG637      0.0307
     64  CG       -25.2310   52.8790   86.4800 C.3   637  ARG637      0.0489
     65  CD       -26.6030   52.9910   85.7870 C.3   637  ARG637      0.2205
     66  NE       -26.9790   54.3740   85.5150 N.pl3 637  ARG637     -0.0865
     67  CZ       -26.9750   54.9270   84.3060 C.cat 637  ARG637      0.5346
     68  NH1      -27.3310   56.1990   84.1500 N.pl3 637  ARG637      0.1354
     69  NH2      -26.6120   54.2060   83.2510 N.pl3 637  ARG637      0.1354
     70  N        -26.5060   51.5320   93.3590 N.3   649  TRP649     -0.1227
     71  CA       -26.8380   52.9300   93.0860 C.3   649  TRP649      0.1737
     72  C        -28.3430   53.2520   93.1190 C.2   649  TRP649      0.2595
     73  O        -28.7230   54.3620   93.4870 O.2   649  TRP649     -0.2718
     74  CB       -26.2250   53.3740   91.7470 C.3   649  TRP649      0.0564
     75  CG       -26.7480   52.6150   90.5710 C.ar  649  TRP649      0.0003
     76  CD1      -26.2440   51.4510   90.0500 C.ar  649  TRP649      0.0946
     77  CD2      -27.8780   52.9630   89.7630 C.ar  649  TRP649      0.0152
     78  NE1      -27.0030   51.0520   88.9710 N.ar  649  TRP649     -0.2442
     79  CE2      -28.0110   51.9620   88.7730 C.ar  649  TRP649      0.0810
     80  CE3      -28.7960   54.0180   89.7830 C.ar  649  TRP649      0.0012
     81  CZ2      -29.0310   51.9900   87.8090 C.ar  649  TRP649      0.0191
     82  CZ3      -29.8070   54.0460   88.8260 C.ar  649  TRP649      0.0001
     83  CH2      -29.9140   53.0380   87.8510 C.ar  649  TRP649      0.0015
     84  N        -29.1920   52.2990   92.7390 N.am  650  LYS650     -0.1980
     85  CA       -30.6460   52.5050   92.7970 C.3   650  LYS650      0.1596
     86  C        -31.1260   52.7890   94.2220 C.2   650  LYS650      0.2287
     87  O        -32.1630   53.4200   94.4210 O.2   650  LYS650     -0.2864
     88  CB       -31.4080   51.3050   92.2280 C.3   650  LYS650      0.0298
     89  CG       -31.1750   51.0520   90.7410 C.3   650  LYS650      0.0038
     90  CD       -32.2540   50.1480   90.1420 C.3   650  LYS650      0.0206
     91  CE       -31.8270   49.5900   88.7860 C.3   650  LYS650      0.1093
     92  NZ       -30.6330   48.6850   88.9120 N.3   650  LYS650     -0.1314
@<TRIPOS>BOND
     1     9    10    1
     2    10    13    1
     3    10    11    1
     4    13    14    1
     5    28    27    1
     6    11    12    2
     7    27    26    1
     8     4     3    2
     9    15    16    1
    10    26    25    1
    11    69    67    1
    12    25    24    1
    13     3     2    1
    14    68    67    1
    15     8     7    1
    16    16    19    1
    17    16    17    1
    18    67    66    2
    19     2     5    1
    20     2     1    1
    21    20    21    1
    22    24    21    1
    23     7     6    1
    24    58    57    1
    25    17    18    2
    26     5     6    1
    27    21    22    1
    28    66    65    1
    29    65    64    1
    30    57    54    1
    31    64    63    1
    32    56    55    2
    33    22    29   am
    34    22    23    2
    35    62    61    2
    36    54    55    1
    37    54    53    1
    38    61    60    1
    39    63    60    1
    40    29    30    1
    41    81    83   ar
    42    81    79   ar
    43    83    82   ar
    44    40    39    1
    45    60    59    1
    46    37    36    2
    47    53    44   am
    48    79    78   ar
    49    79    77   ar
    50    91    92    1
    51    91    90    1
    52    38    39    1
    53    38    35    1
    54    82    80   ar
    55    78    76   ar
    56    30    33    1
    57    30    31    1
    58    39    41    1
    59    36    35    1
    60    45    44    2
    61    44    43    1
    62    77    80   ar
    63    77    75   ar
    64    31    32    2
    65    35    34    1
    66    76    75   ar
    67    90    89    1
    68    75    74    1
    69    89    88    1
    70    46    43    1
    71    46    47    1
    72    43    42    1
    73    52    50    1
    74    49    50    2
    75    49    48    1
    76    74    71    1
    77    50    51    1
    78    48    47    1
    79    88    85    1
    80    84    85    1
    81    84    72   am
    82    85    86    1
    83    71    72    1
    84    71    70    1
    85    72    73    2
    86    86    87    2
