@<TRIPOS>MOLECULE
tmp/4ogjA00.pdb
 134 129 0 0 0
SMALL
GASTEIGER

@<TRIPOS>ATOM
      1  N         26.9860   31.5730   23.9320 N.3    40  TRP40      -0.1228
      2  CA        25.5560   31.1520   23.8540 C.3    40  TRP40       0.1722
      3  C         24.6300   31.9580   22.9170 C.2    40  TRP40       0.2437
      4  O         23.8350   31.3380   22.2130 O.2    40  TRP40      -0.2733
      5  CB        24.9220   30.9670   25.2580 C.3    40  TRP40       0.0563
      6  CG        24.9020   32.1930   26.0930 C.ar   40  TRP40       0.0003
      7  CD1       25.9030   32.6180   26.9010 C.ar   40  TRP40       0.0946
      8  CD2       23.8880   33.2030   26.1460 C.ar   40  TRP40       0.0152
      9  NE1       25.6110   33.8360   27.4600 N.ar   40  TRP40      -0.2442
     10  CE2       24.3750   34.2310   27.0200 C.ar   40  TRP40       0.0810
     11  CE3       22.6330   33.3700   25.5450 C.ar   40  TRP40       0.0012
     12  CZ2       23.6470   35.3940   27.3050 C.ar   40  TRP40       0.0191
     13  CZ3       21.8980   34.5480   25.8640 C.ar   40  TRP40       0.0001
     14  CH2       22.4110   35.5320   26.7210 C.ar   40  TRP40       0.0015
     15  N         24.7790   33.2980   22.7890 N.am   41  PRO41      -0.2718
     16  CA        23.9160   34.0340   21.8560 C.3    41  PRO41       0.1535
     17  C         24.1790   33.7200   20.3910 C.2    41  PRO41       0.2598
     18  O         23.3990   34.1160   19.5490 O.2    41  PRO41      -0.2715
     19  CB        24.2170   35.5190   22.1500 C.3    41  PRO41       0.0310
     20  CG        24.7980   35.4860   23.4900 C.3    41  PRO41       0.0237
     21  CD        25.6230   34.2420   23.5530 C.3    41  PRO41       0.0939
     22  N         25.3110   33.0710   20.1230 N.am   42  PHE42      -0.1974
     23  CA        25.8570   32.8470   18.7620 C.3    42  PHE42       0.1639
     24  C         25.8210   31.3800   18.3510 C.2    42  PHE42       0.2290
     25  O         26.2940   31.0860   17.2990 O.2    42  PHE42      -0.2864
     26  CB        27.3060   33.4030   18.6960 C.3    42  PHE42       0.0560
     27  CG        27.4100   34.8440   19.1110 C.ar   42  PHE42      -0.0200
     28  CD1       27.0240   35.8230   18.2420 C.ar   42  PHE42      -0.0042
     29  CD2       27.8160   35.2070   20.3950 C.ar   42  PHE42      -0.0042
     30  CE1       27.0490   37.1510   18.6410 C.ar   42  PHE42      -0.0003
     31  CE2       27.7810   36.5250   20.8150 C.ar   42  PHE42      -0.0003
     32  CZ        27.4350   37.4990   19.9190 C.ar   42  PHE42      -0.0000
     33  N         23.2160   29.3790   17.6310 N.3    44  GLN44      -0.1245
     34  CA        22.1380   28.9760   16.7800 C.3    44  GLN44       0.1566
     35  C         21.6070   30.1960   16.0460 C.2    44  GLN44       0.2260
     36  O         21.8880   31.3200   16.4420 O.2    44  GLN44      -0.2867
     37  CB        21.0330   28.3780   17.6450 C.3    44  GLN44       0.0367
     38  CG        20.4870   29.2980   18.7130 C.3    44  GLN44       0.0905
     39  CD        21.4660   29.5320   19.8960 C.2    44  GLN44       0.2608
     40  OE1       21.9410   28.5500   20.4810 O.2    44  GLN44      -0.2717
     41  NE2       21.7700   30.8270   20.2620 N.am   44  GLN44      -0.0878
     42  N         19.3920   33.2600   15.0290 N.3    46  VAL46      -0.1245
     43  CA        18.5820   34.1330   15.8480 C.3    46  VAL46       0.1561
     44  C         17.1070   33.8000   15.6300 C.2    46  VAL46       0.2260
     45  O         16.5900   33.8650   14.5200 O.2    46  VAL46      -0.2867
     46  CB        18.8820   35.6240   15.5410 C.3    46  VAL46       0.0252
     47  CG1       17.8600   36.4920   16.2500 C.3    46  VAL46       0.0019
     48  CG2       20.2350   36.0010   16.0460 C.3    46  VAL46       0.0019
     49  N         12.4620   35.5570   20.5390 N.3    51  LEU51      -0.1245
     50  CA        13.1070   36.7090   21.1980 C.3    51  LEU51       0.1561
     51  C         12.3660   38.0560   21.0250 C.2    51  LEU51       0.2260
     52  O         12.7690   39.0760   21.5920 O.2    51  LEU51      -0.2867
     53  CB        14.5630   36.8510   20.6780 C.3    51  LEU51       0.0270
     54  CG        15.4110   35.6060   20.9460 C.3    51  LEU51       0.0019
     55  CD1       16.8400   35.8020   20.4250 C.3    51  LEU51       0.0001
     56  CD2       15.4640   35.2600   22.4310 C.3    51  LEU51       0.0001
     57  N         11.8420   40.0940   18.2140 N.3    53  LEU53      -0.1245
     58  CA        12.6700   41.0260   17.4520 C.3    53  LEU53       0.1561
     59  C         12.1270   41.2150   16.0450 C.2    53  LEU53       0.2260
     60  O         12.6850   40.7090   15.0610 O.2    53  LEU53      -0.2867
     61  CB        14.0970   40.4730   17.3440 C.3    53  LEU53       0.0270
     62  CG        14.7660   40.1330   18.6460 C.3    53  LEU53       0.0019
     63  CD1       16.1730   39.5020   18.4550 C.3    53  LEU53       0.0001
     64  CD2       14.8810   41.3600   19.5310 C.3    53  LEU53       0.0001
     65  N         14.7430   42.3010   13.3640 N.3    56  TYR56      -0.1241
     66  CA        16.0370   41.6330   13.1800 C.3    56  TYR56       0.1605
     67  C         16.3040   41.2820   11.7220 C.2    56  TYR56       0.2264
     68  O         17.3620   41.6120   11.1650 O.2    56  TYR56      -0.2867
     69  CB        16.1770   40.3660   14.0820 C.3    56  TYR56       0.0534
     70  CG        17.5770   39.7830   14.0150 C.ar   56  TYR56      -0.0201
     71  CD1       17.8810   38.7730   13.1370 C.ar   56  TYR56      -0.0009
     72  CD2       18.6110   40.3060   14.7710 C.ar   56  TYR56      -0.0009
     73  CE1       19.1650   38.2770   13.0040 C.ar   56  TYR56       0.0417
     74  CE2       19.8920   39.8600   14.6180 C.ar   56  TYR56       0.0417
     75  CZ        20.1920   38.8490   13.7430 C.ar   56  TYR56       0.1957
     76  OH        21.4830   38.4010   13.5990 O.3    56  TYR56      -0.2866
     77  N         29.0080   36.6760   10.8980 N.3    91  MET91      -0.1245
     78  CA        28.3630   36.5880   12.2170 C.3    91  MET91       0.1570
     79  C         28.7530   37.7840   13.0990 C.2    91  MET91       0.2261
     80  O         27.8940   38.4130   13.7100 O.2    91  MET91      -0.2867
     81  CB        28.7580   35.2730   12.9080 C.3    91  MET91       0.0387
     82  CG        28.0990   35.0600   14.2430 C.3    91  MET91       0.0595
     83  SD        28.6730   33.5810   15.0650 S.3    91  MET91      -0.1393
     84  CE        30.2440   34.0650   15.7320 C.3    91  MET91       0.0692
     85  N         26.3880   41.2010   14.2620 N.3    95  CYS95      -0.1235
     86  CA        26.1710   41.6320   15.6300 C.3    95  CYS95       0.1677
     87  C         26.4350   43.1490   15.7580 C.2    95  CYS95       0.2270
     88  O         25.6550   43.9010   16.3620 O.2    95  CYS95      -0.2867
     89  CB        27.0950   40.8690   16.5450 C.3    95  CYS95       0.0956
     90  SG        26.8410   41.2180   18.3260 S.3    95  CYS95      -0.0801
     91  N         23.4710   45.1250   13.9310 N.3    98  TYR98      -0.1227
     92  CA        22.1730   45.1130   14.5750 C.3    98  TYR98       0.1736
     93  C         22.1790   45.9370   15.8660 C.2    98  TYR98       0.2595
     94  O         21.1840   46.6240   16.1700 O.2    98  TYR98      -0.2718
     95  CB        21.6740   43.6840   14.8270 C.3    98  TYR98       0.0548
     96  CG        20.2850   43.6780   15.4170 C.ar   98  TYR98      -0.0200
     97  CD1       19.1770   44.0790   14.6710 C.ar   98  TYR98      -0.0009
     98  CD2       20.0500   43.2430   16.7250 C.ar   98  TYR98      -0.0009
     99  CE1       17.9250   44.1280   15.2360 C.ar   98  TYR98       0.0417
    100  CE2       18.7810   43.2380   17.2660 C.ar   98  TYR98       0.0417
    101  CZ        17.7200   43.6950   16.5080 C.ar   98  TYR98       0.1957
    102  OH        16.4360   43.7090   17.0560 O.3    98  TYR98      -0.2866
    103  N         23.2650   45.8530   16.6230 N.am   99  ASN99      -0.1974
    104  CA        23.3860   46.4840   17.9180 C.3    99  ASN99       0.1688
    105  C         24.2330   47.7580   17.8530 C.2    99  ASN99       0.2292
    106  O         24.4670   48.3200   16.7720 O.2    99  ASN99      -0.2864
    107  CB        23.9530   45.4480   18.8830 C.3    99  ASN99       0.1181
    108  CG        23.1240   44.1570   18.8860 C.2    99  ASN99       0.2629
    109  OD1       22.0930   44.1050   19.5590 O.2    99  ASN99      -0.2716
    110  ND2       23.6330   43.1030   18.2240 N.am   99  ASN99      -0.0877
    111  N         26.0730   45.2430   25.7400 N.3   104  ASP104     -0.1225
    112  CA        26.6300   43.9980   26.2860 C.3   104  ASP104      0.1805
    113  C         26.8570   42.9380   25.1950 C.2   104  ASP104      0.2597
    114  O         27.9020   42.2220   25.2180 O.2   104  ASP104     -0.2718
    115  CB        25.7220   43.4450   27.3730 C.3   104  ASP104      0.1424
    116  CG        25.8380   44.2350   28.6970 C.2   104  ASP104      0.3668
    117  OD1       26.8190   44.9850   28.8870 O.co2 104  ASP104     -0.2456
    118  OD2       24.8900   44.0750   29.5200 O.co2 104  ASP104     -0.2456
    119  N         25.8720   42.7610   24.3210 N.am  105  ILE105     -0.1980
    120  CA        25.9710   41.6970   23.2590 C.3   105  ILE105      0.1595
    121  C         27.2040   41.9900   22.3560 C.2   105  ILE105      0.2287
    122  O         27.8800   41.0550   21.8680 O.2   105  ILE105     -0.2864
    123  CB        24.6940   41.4800   22.4540 C.3   105  ILE105      0.0276
    124  CG1       24.7750   40.2750   21.5100 C.3   105  ILE105      0.0022
    125  CG2       24.2970   42.7370   21.6770 C.3   105  ILE105      0.0022
    126  CD1       24.8270   38.9190   22.1710 C.3   105  ILE105      0.0001
    127  N         30.3240   41.0150   24.1670 N.3   108  MET108     -0.1245
    128  CA        30.4330   39.5350   24.0640 C.3   108  MET108      0.1570
    129  C         31.0160   39.1040   22.7270 C.2   108  MET108      0.2261
    130  O         31.9610   38.3150   22.6500 O.2   108  MET108     -0.2867
    131  CB        29.0650   38.8800   24.2750 C.3   108  MET108      0.0387
    132  CG        28.4910   39.1210   25.6490 C.3   108  MET108      0.0595
    133  SD        26.7730   38.6080   25.8640 S.3   108  MET108     -0.1393
    134  CE        27.0130   36.8900   25.9570 C.3   108  MET108      0.0692
@<TRIPOS>BOND
     1    77    78    1
     2    68    67    2
     3    67    66    1
     4    78    81    1
     5    78    79    1
     6    81    82    1
     7    73    71   ar
     8    73    75   ar
     9    79    80    2
    10    71    70   ar
    11    66    65    1
    12    66    69    1
    13    76    75    1
    14    75    74   ar
    15    91    92    1
    16    70    69    1
    17    70    72   ar
    18    82    83    1
    19    85    86    1
    20    45    44    2
    21    92    95    1
    22    92    93    1
    23    74    72   ar
    24    97    99   ar
    25    97    96   ar
    26    95    96    1
    27    42    43    1
    28    60    59    2
    29    83    84    1
    30    99   101   ar
    31    96    98   ar
    32    46    43    1
    33    46    48    1
    34    46    47    1
    35    86    87    1
    36    86    89    1
    37    44    43    1
    38    87    88    2
    39    93    94    2
    40    93   103   am
    41    59    58    1
    42    35    36    2
    43    35    34    1
    44   101   102    1
    45   101   100   ar
    46    89    90    1
    47   103   104    1
    48    98   100   ar
    49   106   105    2
    50    34    33    1
    51    34    37    1
    52    25    24    2
    53    61    58    1
    54    61    62    1
    55    58    57    1
    56    37    38    1
    57   105   104    1
    58   104   107    1
    59   110   108   am
    60    28    30   ar
    61    28    27   ar
    62    24    23    1
    63    63    62    1
    64    30    32   ar
    65    62    64    1
    66    26    23    1
    67    26    27    1
    68    38    39    1
    69    23    22    1
    70   107   108    1
    71   108   109    2
    72    27    29   ar
    73    18    17    2
    74    39    41   am
    75    39    40    2
    76    32    31   ar
    77    22    17   am
    78    17    16    1
    79    29    31   ar
    80    55    54    1
    81    49    50    1
    82    53    54    1
    83    53    50    1
    84    54    56    1
    85    51    50    1
    86    51    52    2
    87   124   126    1
    88   124   123    1
    89   125   123    1
    90    16    19    1
    91    16    15    1
    92   122   121    2
    93    19    20    1
    94     4     3    2
    95   121   120    1
    96   123   120    1
    97   130   129    2
    98   129   128    1
    99    15     3   am
   100    15    21    1
   101     3     2    1
   102   120   119    1
   103    20    21    1
   104     2     1    1
   105     2     5    1
   106   128   127    1
   107   128   131    1
   108   131   132    1
   109   119   113   am
   110   113   114    2
   111   113   112    1
   112     5     6    1
   113    11    13   ar
   114    11     8   ar
   115   132   133    1
   116   111   112    1
   117    13    14   ar
   118   133   134    1
   119     6     8   ar
   120     6     7   ar
   121     8    10   ar
   122   112   115    1
   123    14    12   ar
   124     7     9   ar
   125    10    12   ar
   126    10     9   ar
   127   115   116    1
   128   116   117   ar
   129   116   118   ar
