@<TRIPOS>MOLECULE
tmp/4oglE00.pdb
 104 99 0 0 0
SMALL
GASTEIGER

@<TRIPOS>ATOM
      1  N         15.7770    7.8800  -12.0930 N.3    91  THR91      -0.1203
      2  CA        16.0030    9.2990  -11.9660 C.3    91  THR91       0.1994
      3  C         17.3420    9.5850  -11.3310 C.2    91  THR91       0.2619
      4  O         17.8600    8.7770  -10.5640 O.2    91  THR91      -0.2717
      5  CB        14.8720    9.9700  -11.1740 C.3    91  THR91       0.1784
      6  OG1       14.7680    9.3680   -9.8790 O.3    91  THR91      -0.2211
      7  CG2       13.5830    9.7960  -11.8730 C.3    91  THR91       0.0376
      8  N         17.9060   10.7340  -11.6810 N.am   92  THR92      -0.1938
      9  CA        19.1810   11.1550  -11.1400 C.3    92  THR92       0.2028
     10  C         19.2480   12.6690  -11.1840 C.2    92  THR92       0.2642
     11  O         18.5650   13.3030  -11.9800 O.2    92  THR92      -0.2714
     12  CB        20.3740   10.5350  -11.9250 C.3    92  THR92       0.1808
     13  OG1       21.5890   10.6910  -11.1780 O.3    92  THR92      -0.2208
     14  CG2       20.5330   11.1780  -13.3020 C.3    92  THR92       0.0379
     15  N         20.0350   13.2620  -10.3020 N.am   93  GLY93      -0.1954
     16  CA        20.4010   14.6470  -10.5090 C.3    93  GLY93       0.1869
     17  C         21.6350   14.5290  -11.3690 C.2    93  GLY93       0.2309
     18  O         22.0260   13.4310  -11.7320 O.2    93  GLY93      -0.2863
     19  N         20.2480    9.7060    0.7190 N.3   159  PHE159     -0.1241
     20  CA        19.8780   10.8050   -0.1450 C.3   159  PHE159      0.1605
     21  C         20.4860   12.1050    0.3670 C.2   159  PHE159      0.2264
     22  O         20.7770   13.0120   -0.4070 O.2   159  PHE159     -0.2867
     23  CB        18.3560   10.9170   -0.1750 C.3   159  PHE159      0.0534
     24  CG        17.8340   11.9330   -1.1550 C.ar  159  PHE159     -0.0203
     25  CD1       17.7130   11.6130   -2.4970 C.ar  159  PHE159     -0.0042
     26  CD2       17.4600   13.2040   -0.7380 C.ar  159  PHE159     -0.0042
     27  CE1       17.2180   12.5460   -3.4020 C.ar  159  PHE159     -0.0003
     28  CE2       16.9690   14.1300   -1.6410 C.ar  159  PHE159     -0.0003
     29  CZ        16.8540   13.8000   -2.9630 C.ar  159  PHE159     -0.0000
     30  N         25.0810   12.5870   -0.1760 N.3   163  GLN163     -0.1245
     31  CA        25.0760   13.4290   -1.3680 C.3   163  GLN163      0.1566
     32  C         25.4240   14.8570   -0.9640 C.2   163  GLN163      0.2260
     33  O         25.1830   15.8050   -1.7060 O.2   163  GLN163     -0.2867
     34  CB        23.7300   13.3490   -2.1010 C.3   163  GLN163      0.0367
     35  CG        23.3910   11.8960   -2.4210 C.3   163  GLN163      0.0905
     36  CD        22.2220   11.7240   -3.3660 C.2   163  GLN163      0.2608
     37  OE1       21.8700   12.6300   -4.1240 O.2   163  GLN163     -0.2717
     38  NE2       21.6240   10.5370   -3.3420 N.am  163  GLN163     -0.0878
     39  N         24.1440   16.9430    1.1800 N.3   165  ARG165     -0.1245
     40  CA        23.0590   17.8900    1.3930 C.3   165  ARG165      0.1563
     41  C         23.0950   18.3920    2.8240 C.2   165  ARG165      0.2260
     42  O         23.1350   17.5930    3.7650 O.2   165  ARG165     -0.2867
     43  CB        21.6990   17.2480    1.1070 C.3   165  ARG165      0.0307
     44  CG        21.4220   16.9990   -0.3800 C.3   165  ARG165      0.0489
     45  CD        20.0130   16.4520   -0.6250 C.3   165  ARG165      0.2205
     46  NE        19.6050   16.6720   -2.0110 N.pl3 165  ARG165     -0.0865
     47  CZ        19.8250   15.8180   -3.0060 C.cat 165  ARG165      0.5346
     48  NH1       20.4210   14.6510   -2.7670 N.pl3 165  ARG165      0.1354
     49  NH2       19.4340   16.1270   -4.2420 N.pl3 165  ARG165      0.1354
     50  N         24.6570   11.6690   -8.8530 N.3   192  PHE192     -0.1227
     51  CA        24.3800   10.8100   -7.7080 C.3   192  PHE192      0.1736
     52  C         23.1270    9.9760   -7.9610 C.2   192  PHE192      0.2595
     53  O         22.1320   10.4540   -8.5340 O.2   192  PHE192     -0.2718
     54  CB        24.0740   11.6320   -6.4480 C.3   192  PHE192      0.0547
     55  CG        25.2780   12.2170   -5.7340 C.ar  192  PHE192     -0.0202
     56  CD1       26.1500   11.4150   -5.0020 C.ar  192  PHE192     -0.0042
     57  CD2       25.4580   13.5970   -5.6910 C.ar  192  PHE192     -0.0042
     58  CE1       27.2310   11.9890   -4.3090 C.ar  192  PHE192     -0.0003
     59  CE2       26.5040   14.1660   -4.9930 C.ar  192  PHE192     -0.0003
     60  CZ        27.3860   13.3630   -4.3060 C.ar  192  PHE192     -0.0000
     61  N         23.1310    8.7460   -7.4680 N.am  193  GLU193     -0.1965
     62  CA        21.8900    8.0110   -7.2760 C.3   193  GLU193      0.1733
     63  C         22.1420    7.0210   -6.1410 C.2   193  GLU193      0.2616
     64  O         23.1410    7.1710   -5.4270 O.2   193  GLU193     -0.2715
     65  CB        21.3560    7.3860   -8.5640 C.3   193  GLU193      0.0429
     66  CG        22.3320    6.5670   -9.3240 C.3   193  GLU193      0.1163
     67  CD        22.5780    5.2340   -8.6690 C.2   193  GLU193      0.3649
     68  OE1       21.6800    4.3570   -8.7170 O.co2 193  GLU193     -0.2457
     69  OE2       23.6620    5.0750   -8.0740 O.co2 193  GLU193     -0.2457
     70  N         21.2520    6.0470   -5.9410 N.am  194  MET194     -0.1977
     71  CA        21.3190    5.2450   -4.7170 C.3   194  MET194      0.1605
     72  C         21.3130    3.7300   -4.8830 C.2   194  MET194      0.2287
     73  O         21.1970    3.0210   -3.8880 O.2   194  MET194     -0.2864
     74  CB        20.1950    5.6410   -3.7560 C.3   194  MET194      0.0413
     75  CG        20.2790    7.0960   -3.3350 C.3   194  MET194      0.0598
     76  SD        18.9790    7.6370   -2.2110 S.3   194  MET194     -0.1393
     77  CE        19.2830    6.5650   -0.8200 C.3   194  MET194      0.0692
     78  N         16.9020   15.0580  -14.4200 N.3   217  ILE217     -0.1231
     79  CA        15.7530   15.9170  -14.1340 C.3   217  ILE217      0.1692
     80  C         16.0960   17.1340  -13.3000 C.2   217  ILE217      0.2591
     81  O         15.2360   17.9890  -13.0810 O.2   217  ILE217     -0.2718
     82  CB        14.5840   15.1620  -13.4660 C.3   217  ILE217      0.0266
     83  CG1       15.0240   14.5660  -12.1240 C.3   217  ILE217      0.0019
     84  CG2       14.0240   14.1270  -14.4180 C.3   217  ILE217      0.0020
     85  CD1       13.8880   14.0260  -11.2680 C.3   217  ILE217      0.0001
     86  N         17.3370   17.2190  -12.8380 N.am  218  ILE218     -0.1980
     87  CA        17.7790   18.3750  -12.0660 C.3   218  ILE218      0.1595
     88  C         19.3040   18.4130  -12.0390 C.2   218  ILE218      0.2287
     89  O         19.9740   17.3960  -12.2360 O.2   218  ILE218     -0.2864
     90  CB        17.2170   18.3360  -10.6360 C.3   218  ILE218      0.0276
     91  CG1       17.2480   19.7240   -9.9940 C.3   218  ILE218      0.0022
     92  CG2       17.9630   17.3310   -9.7860 C.3   218  ILE218      0.0022
     93  CD1       16.4890   19.7900   -8.6960 C.3   218  ILE218      0.0001
     94  N         22.4270   19.9960   -9.6600 N.3   220  ARG220     -0.1245
     95  CA        22.8060   20.6110   -8.3790 C.3   220  ARG220      0.1563
     96  C         23.5730   21.9200   -8.5910 C.2   220  ARG220      0.2260
     97  O         23.6820   22.7320   -7.6770 O.2   220  ARG220     -0.2867
     98  CB        23.6950   19.6750   -7.5140 C.3   220  ARG220      0.0307
     99  CG        23.1540   18.3040   -7.0650 C.3   220  ARG220      0.0489
    100  CD        22.2950   18.3690   -5.8150 C.3   220  ARG220      0.2205
    101  NE        23.0000   18.8360   -4.6230 N.pl3 220  ARG220     -0.0865
    102  CZ        23.5810   18.0300   -3.7350 C.cat 220  ARG220      0.5346
    103  NH1       24.1750   18.5460   -2.6640 N.pl3 220  ARG220      0.1354
    104  NH2       23.5900   16.7160   -3.9290 N.pl3 220  ARG220      0.1354
@<TRIPOS>BOND
     1    78    79    1
     2    84    82    1
     3    79    82    1
     4    79    80    1
     5    82    83    1
     6    14    12    1
     7    80    81    2
     8    80    86   am
     9    86    87    1
    10    89    88    2
    11    83    85    1
    12     1     2    1
    13    87    88    1
    14    87    90    1
    15    11    10    2
    16     2     3    1
    17     2     5    1
    18    12    13    1
    19    12     9    1
    20     7     5    1
    21    18    17    2
    22     8     3   am
    23     8     9    1
    24    17    16    1
    25     3     4    2
    26    10     9    1
    27    10    15   am
    28     5     6    1
    29    90    91    1
    30    90    92    1
    31    16    15    1
    32    91    93    1
    33    94    95    1
    34    66    67    1
    35    66    65    1
    36    50    51    1
    37    68    67   ar
    38    67    69   ar
    39    96    95    1
    40    96    97    2
    41    65    62    1
    42    53    52    2
    43    95    98    1
    44    52    51    1
    45    52    61   am
    46    51    54    1
    47    98    99    1
    48    61    62    1
    49    62    63    1
    50    99   100    1
    51    54    55    1
    52    63    70   am
    53    63    64    2
    54    70    71    1
    55   100   101    1
    56    55    57   ar
    57    55    56   ar
    58    57    59   ar
    59    56    58   ar
    60    59    60   ar
    61    72    71    1
    62    72    73    2
    63    71    74    1
    64   101   102    2
    65    58    60   ar
    66    49    47    1
    67    37    36    2
    68   104   102    1
    69    74    75    1
    70   102   103    1
    71    27    29   ar
    72    27    25   ar
    73    36    38   am
    74    36    35    1
    75    75    76    1
    76    47    48    1
    77    47    46    2
    78    29    28   ar
    79    25    24   ar
    80    35    34    1
    81    76    77    1
    82    34    31    1
    83    46    45    1
    84    33    32    2
    85    28    26   ar
    86    31    32    1
    87    31    30    1
    88    24    26   ar
    89    24    23    1
    90    45    44    1
    91    22    21    2
    92    44    43    1
    93    23    20    1
    94    20    21    1
    95    20    19    1
    96    43    40    1
    97    39    40    1
    98    40    41    1
    99    41    42    2
