@<TRIPOS>MOLECULE
tmp/4ogqB05.pdb
 81 79 0 0 0
SMALL
GASTEIGER

@<TRIPOS>ATOM
      1  N        -20.5570   70.5920   -2.4640 N.3   122  PRO122     -0.2102
      2  CA       -20.9320   69.3740   -3.1940 C.3   122  PRO122      0.1504
      3  C        -20.2120   69.2310   -4.5330 C.2   122  PRO122      0.2575
      4  O        -19.9810   68.1100   -4.9850 O.2   122  PRO122     -0.2718
      5  CB       -22.4380   69.5450   -3.4080 C.3   122  PRO122      0.0282
      6  CG       -22.8760   70.4070   -2.2810 C.3   122  PRO122      0.0208
      7  CD       -21.7400   71.3590   -2.0340 C.3   122  PRO122      0.0893
      8  N        -19.8590   70.3530   -5.1540 N.am  123  PHE123     -0.1977
      9  CA       -19.1630   70.3210   -6.4360 C.3   123  PHE123      0.1639
     10  C        -17.7020   69.9150   -6.2700 C.2   123  PHE123      0.2290
     11  O        -17.0270   69.5920   -7.2460 O.2   123  PHE123     -0.2864
     12  CB       -19.2680   71.6770   -7.1350 C.3   123  PHE123      0.0560
     13  CG       -20.6550   71.9980   -7.6110 C.ar  123  PHE123     -0.0200
     14  CD1      -21.0920   71.5660   -8.8510 C.ar  123  PHE123     -0.0042
     15  CD2      -21.5290   72.7190   -6.8120 C.ar  123  PHE123     -0.0042
     16  CE1      -22.3720   71.8520   -9.2920 C.ar  123  PHE123     -0.0003
     17  CE2      -22.8090   73.0070   -7.2460 C.ar  123  PHE123     -0.0003
     18  CZ       -23.2310   72.5740   -8.4880 C.ar  123  PHE123     -0.0000
     19  N        -17.7880   65.0140   -5.4850 N.3   126  PRO126     -0.2116
     20  CA       -18.5240   64.3430   -6.5650 C.3   126  PRO126      0.1372
     21  C        -19.1130   63.0000   -6.1440 C.2   126  PRO126      0.2244
     22  O        -20.2890   62.7350   -6.3990 O.2   126  PRO126     -0.2868
     23  CB       -17.4560   64.1420   -7.6500 C.3   126  PRO126      0.0268
     24  CG       -16.3400   65.0670   -7.2810 C.3   126  PRO126      0.0207
     25  CD       -16.3540   65.1230   -5.7930 C.3   126  PRO126      0.0892
     26  N        -21.8280   63.5130   -3.3260 N.3   129  THR129     -0.1203
     27  CA       -23.0150   64.1020   -3.9380 C.3   129  THR129      0.1994
     28  C        -23.7680   63.0620   -4.7630 C.2   129  THR129      0.2618
     29  O        -24.9940   62.9820   -4.7030 O.2   129  THR129     -0.2717
     30  CB       -22.6500   65.3060   -4.8330 C.3   129  THR129      0.1784
     31  OG1      -22.0480   66.3320   -4.0360 O.3   129  THR129     -0.2211
     32  CG2      -23.8860   65.8670   -5.5150 C.3   129  THR129      0.0376
     33  N        -23.0270   62.2590   -5.5230 N.am  130  THR130     -0.1952
     34  CA       -23.6290   61.2000   -6.3290 C.3   130  THR130      0.1897
     35  C        -24.3790   60.1970   -5.4560 C.2   130  THR130      0.2313
     36  O        -25.5280   59.8450   -5.7430 O.2   130  THR130     -0.2863
     37  CB       -22.5700   60.4550   -7.1600 C.3   130  THR130      0.1794
     38  OG1      -21.9450   61.3710   -8.0660 O.3   130  THR130     -0.2208
     39  CG2      -23.2080   59.3250   -7.9540 C.3   130  THR130      0.0378
     40  N        -27.5950   61.9160   -4.0280 N.3   133  LEU133     -0.1231
     41  CA       -28.6460   62.0300   -5.0320 C.3   133  LEU133      0.1693
     42  C        -29.2670   60.6660   -5.3060 C.2   133  LEU133      0.2592
     43  O        -30.4870   60.5420   -5.4450 O.2   133  LEU133     -0.2718
     44  CB       -28.0930   62.6350   -6.3240 C.3   133  LEU133      0.0284
     45  CG       -27.6350   64.0920   -6.2320 C.3   133  LEU133      0.0019
     46  CD1      -27.1030   64.5730   -7.5680 C.3   133  LEU133      0.0001
     47  CD2      -28.7750   64.9790   -5.7580 C.3   133  LEU133      0.0001
     48  N        -28.4190   59.6440   -5.3730 N.am  134  PHE134     -0.1976
     49  CA       -28.8880   58.2790   -5.5670 C.3   134  PHE134      0.1639
     50  C        -29.8190   57.8510   -4.4360 C.2   134  PHE134      0.2290
     51  O        -30.9350   57.3920   -4.6780 O.2   134  PHE134     -0.2864
     52  CB       -27.7080   57.3150   -5.6650 C.3   134  PHE134      0.0560
     53  CG       -28.1100   55.8730   -5.7360 C.ar  134  PHE134     -0.0200
     54  CD1      -28.5370   55.3180   -6.9310 C.ar  134  PHE134     -0.0042
     55  CD2      -28.0570   55.0700   -4.6070 C.ar  134  PHE134     -0.0042
     56  CE1      -28.9070   53.9890   -7.0000 C.ar  134  PHE134     -0.0003
     57  CE2      -28.4250   53.7410   -4.6680 C.ar  134  PHE134     -0.0003
     58  CZ       -28.8500   53.1980   -5.8660 C.ar  134  PHE134     -0.0000
     59  N        -31.4240   59.6620   -2.3480 N.3   136  THR136     -0.1203
     60  CA       -32.6220   60.4910   -2.3270 C.3   136  THR136      0.1994
     61  C        -33.6330   60.0000   -3.3560 C.2   136  THR136      0.2617
     62  O        -34.8270   59.8860   -3.0660 O.2   136  THR136     -0.2717
     63  CB       -32.2890   61.9680   -2.5990 C.3   136  THR136      0.1784
     64  OG1      -31.3480   62.4330   -1.6250 O.3   136  THR136     -0.2211
     65  CG2      -33.5460   62.8220   -2.5300 C.3   136  THR136      0.0376
     66  N        -33.1440   59.7060   -4.5570 N.am  137  LEU137     -0.1979
     67  CA       -34.0010   59.2030   -5.6250 C.3   137  LEU137      0.1596
     68  C        -34.6170   57.8580   -5.2430 C.2   137  LEU137      0.2287
     69  O        -35.7960   57.6080   -5.5000 O.2   137  LEU137     -0.2864
     70  CB       -33.2130   59.0750   -6.9280 C.3   137  LEU137      0.0297
     71  CG       -34.0290   58.7550   -8.1790 C.3   137  LEU137      0.0022
     72  CD1      -35.0110   59.8780   -8.4710 C.3   137  LEU137      0.0001
     73  CD2      -33.1140   58.5130   -9.3700 C.3   137  LEU137      0.0001
     74  N        -37.3360   58.4630   -2.5960 N.3   140  LEU140     -0.1245
     75  CA       -38.5580   58.9300   -3.2450 C.3   140  LEU140      0.1561
     76  C        -39.2590   57.7890   -3.9790 C.2   140  LEU140      0.2260
     77  O        -40.4860   57.7010   -3.9810 O.2   140  LEU140     -0.2867
     78  CB       -38.2500   60.0690   -4.2170 C.3   140  LEU140      0.0270
     79  CG       -37.8100   61.3890   -3.5820 C.3   140  LEU140      0.0019
     80  CD1      -37.3040   62.3530   -4.6430 C.3   140  LEU140      0.0001
     81  CD2      -38.9610   62.0030   -2.7990 C.3   140  LEU140      0.0001
@<TRIPOS>BOND
     1    73    71    1
     2    16    14   ar
     3    16    18   ar
     4    14    13   ar
     5    18    17   ar
     6    72    71    1
     7    71    70    1
     8    38    37    1
     9    39    37    1
    10    23    24    1
    11    23    20    1
    12    13    12    1
    13    13    15   ar
    14    46    45    1
    15    24    25    1
    16    11    10    2
    17    17    15   ar
    18    37    34    1
    19    12     9    1
    20    56    54   ar
    21    56    58   ar
    22    54    53   ar
    23    70    67    1
    24    20    21    1
    25    20    19    1
    26     9    10    1
    27     9     8    1
    28    22    21    2
    29    34    33    1
    30    34    35    1
    31    44    45    1
    32    44    41    1
    33    45    47    1
    34    58    57   ar
    35    25    19    1
    36    36    35    2
    37    53    52    1
    38    53    55   ar
    39    52    49    1
    40    67    68    1
    41    67    66    1
    42    49    48    1
    43    49    50    1
    44    33    28   am
    45    32    30    1
    46    69    68    2
    47    43    42    2
    48    48    42   am
    49    42    41    1
    50     8     3   am
    51    41    40    1
    52     4     3    2
    53    30    31    1
    54    30    27    1
    55    28    29    2
    56    28    27    1
    57    51    50    2
    58    57    55   ar
    59    80    79    1
    60    66    61   am
    61     3     2    1
    62    78    79    1
    63    78    75    1
    64    77    76    2
    65    76    75    1
    66    27    26    1
    67    79    81    1
    68     5     2    1
    69     5     6    1
    70    61    62    2
    71    61    60    1
    72    75    74    1
    73     2     1    1
    74    63    65    1
    75    63    60    1
    76    63    64    1
    77     1     7    1
    78    59    60    1
    79     6     7    1
