@<TRIPOS>MOLECULE
tmp/4ogqB06.pdb
 92 91 0 0 0
SMALL
GASTEIGER

@<TRIPOS>ATOM
      1  N        -46.7540   60.1480    5.7110 N.3    78  TRP78      -0.1227
      2  CA       -45.9280   60.1700    4.5050 C.3    78  TRP78       0.1737
      3  C        -44.4490   59.8880    4.7600 C.2    78  TRP78       0.2595
      4  O        -43.8200   59.1550    4.0000 O.2    78  TRP78      -0.2718
      5  CB       -46.0700   61.5200    3.8000 C.3    78  TRP78       0.0564
      6  CG       -45.7360   62.6950    4.6740 C.ar   78  TRP78       0.0003
      7  CD1      -46.5760   63.3420    5.5340 C.ar   78  TRP78       0.0946
      8  CD2      -44.4730   63.3640    4.7680 C.ar   78  TRP78       0.0152
      9  NE1      -45.9150   64.3710    6.1580 N.ar   78  TRP78      -0.2442
     10  CE2      -44.6230   64.4060    5.7070 C.ar   78  TRP78       0.0810
     11  CE3      -43.2310   63.1840    4.1510 C.ar   78  TRP78       0.0012
     12  CZ2      -43.5770   65.2640    6.0430 C.ar   78  TRP78       0.0191
     13  CZ3      -42.1940   64.0350    4.4880 C.ar   78  TRP78       0.0001
     14  CH2      -42.3730   65.0630    5.4240 C.ar   78  TRP78       0.0015
     15  N        -43.8980   60.4520    5.8310 N.am   79  TYR79      -0.1976
     16  CA       -42.4630   60.3330    6.0910 C.3    79  TYR79       0.1639
     17  C        -42.0410   58.9120    6.4670 C.2    79  TYR79       0.2290
     18  O        -40.8530   58.6360    6.6310 O.2    79  TYR79      -0.2864
     19  CB       -42.0320   61.3110    7.1910 C.3    79  TYR79       0.0560
     20  CG       -42.9180   61.3070    8.4110 C.ar   79  TYR79      -0.0198
     21  CD1      -42.7430   60.3660    9.4180 C.ar   79  TYR79      -0.0009
     22  CD2      -43.9280   62.2490    8.5610 C.ar   79  TYR79      -0.0009
     23  CE1      -43.5540   60.3600   10.5370 C.ar   79  TYR79       0.0417
     24  CE2      -44.7420   62.2530    9.6740 C.ar   79  TYR79       0.0417
     25  CZ       -44.5510   61.3050   10.6590 C.ar   79  TYR79       0.1957
     26  OH       -45.3620   61.3060   11.7670 O.3    79  TYR79      -0.2866
     27  N        -43.4030   56.3380    4.5650 N.3    81  TYR81      -0.1228
     28  CA       -43.6770   55.5950    3.3340 C.3    81  TYR81       0.1721
     29  C        -42.4850   54.7560    2.8440 C.2    81  TYR81       0.2437
     30  O        -42.6770   53.5950    2.4860 O.2    81  TYR81      -0.2733
     31  CB       -44.1340   56.5420    2.2120 C.3    81  TYR81       0.0547
     32  CG       -45.5730   57.0020    2.3230 C.ar   81  TYR81      -0.0200
     33  CD1      -46.3860   56.5710    3.3640 C.ar   81  TYR81      -0.0009
     34  CD2      -46.1210   57.8580    1.3770 C.ar   81  TYR81      -0.0009
     35  CE1      -47.7020   56.9880    3.4640 C.ar   81  TYR81       0.0417
     36  CE2      -47.4360   58.2790    1.4670 C.ar   81  TYR81       0.0417
     37  CZ       -48.2220   57.8420    2.5130 C.ar   81  TYR81       0.1957
     38  OH       -49.5320   58.2600    2.6060 O.3    81  TYR81      -0.2866
     39  N        -41.2600   55.3280    2.8140 N.am   82  PRO82      -0.2729
     40  CA       -40.1410   54.4950    2.3480 C.3    82  PRO82       0.1401
     41  C        -39.9270   53.2390    3.1940 C.2    82  PRO82       0.2269
     42  O        -39.9900   52.1250    2.6630 O.2    82  PRO82      -0.2865
     43  CB       -38.9350   55.4340    2.4600 C.3    82  PRO82       0.0296
     44  CG       -39.5110   56.7950    2.3360 C.3    82  PRO82       0.0237
     45  CD       -40.8330   56.7230    3.0390 C.3    82  PRO82       0.0939
     46  N        -31.4240   59.6620   -2.3480 N.3   136  THR136     -0.1218
     47  CA       -32.6220   60.4910   -2.3270 C.3   136  THR136      0.1862
     48  C        -33.6330   60.0000   -3.3560 C.2   136  THR136      0.2287
     49  O        -34.8270   59.8860   -3.0660 O.2   136  THR136     -0.2866
     50  CB       -32.2890   61.9680   -2.5990 C.3   136  THR136      0.1770
     51  OG1      -31.3480   62.4330   -1.6250 O.3   136  THR136     -0.2211
     52  CG2      -33.5460   62.8220   -2.5300 C.3   136  THR136      0.0375
     53  N        -35.0970   56.8200   -2.1600 N.3   139  THR139     -0.1203
     54  CA       -36.0260   57.0970   -1.0720 C.3   139  THR139      0.1994
     55  C        -37.3750   57.5670   -1.6140 C.2   139  THR139      0.2617
     56  O        -38.4300   57.1160   -1.1580 O.2   139  THR139     -0.2717
     57  CB       -35.4520   58.1510   -0.1060 C.3   139  THR139      0.1784
     58  OG1      -34.2430   57.6510    0.4800 O.3   139  THR139     -0.2211
     59  CG2      -36.4440   58.4600    0.9980 C.3   139  THR139      0.0376
     60  N        -37.3360   58.4630   -2.5960 N.am  140  LEU140     -0.1979
     61  CA       -38.5580   58.9300   -3.2450 C.3   140  LEU140      0.1596
     62  C        -39.2590   57.7890   -3.9790 C.2   140  LEU140      0.2287
     63  O        -40.4860   57.7010   -3.9810 O.2   140  LEU140     -0.2864
     64  CB       -38.2500   60.0690   -4.2170 C.3   140  LEU140      0.0297
     65  CG       -37.8100   61.3890   -3.5820 C.3   140  LEU140      0.0022
     66  CD1      -37.3040   62.3530   -4.6430 C.3   140  LEU140      0.0001
     67  CD2      -38.9610   62.0030   -2.7990 C.3   140  LEU140      0.0001
     68  N        -40.9690   55.7010   -1.3920 N.3   143  GLY143     -0.1210
     69  CA       -42.0730   56.4600   -0.8320 C.3   143  GLY143      0.1956
     70  C        -43.2860   56.5000   -1.7430 C.2   143  GLY143      0.2611
     71  O        -44.4190   56.3320   -1.2930 O.2   143  GLY143     -0.2717
     72  N        -43.0460   56.7310   -3.0280 N.am  144  ILE144     -0.1979
     73  CA       -44.1170   56.7290   -4.0140 C.3   144  ILE144      0.1595
     74  C        -44.6450   55.3100   -4.1870 C.2   144  ILE144      0.2287
     75  O        -45.8490   55.0950   -4.3390 O.2   144  ILE144     -0.2864
     76  CB       -43.6390   57.2910   -5.3680 C.3   144  ILE144      0.0276
     77  CG1      -43.2180   58.7540   -5.2110 C.3   144  ILE144      0.0022
     78  CG2      -44.7300   57.1710   -6.4210 C.3   144  ILE144      0.0022
     79  CD1      -42.6760   59.3720   -6.4780 C.3   144  ILE144      0.0001
     80  N        -47.5370   53.9240   -1.8080 N.3   147  ALA147     -0.1231
     81  CA       -48.9390   54.2650   -2.0390 C.3   147  ALA147      0.1694
     82  C        -49.5390   53.4870   -3.2070 C.2   147  ALA147      0.2591
     83  O        -50.7030   53.6800   -3.5590 O.2   147  ALA147     -0.2718
     84  CB       -49.0810   55.7620   -2.2790 C.3   147  ALA147      0.0304
     85  N        -48.7410   52.6090   -3.8030 N.am  148  LEU148     -0.1980
     86  CA       -49.1810   51.8240   -4.9500 C.3   148  LEU148      0.1596
     87  C        -49.3400   50.3550   -4.5700 C.2   148  LEU148      0.2287
     88  O        -48.8360   49.9290   -3.5290 O.2   148  LEU148     -0.2864
     89  CB       -48.1860   51.9700   -6.1040 C.3   148  LEU148      0.0297
     90  CG       -47.9220   53.3950   -6.5830 C.3   148  LEU148      0.0022
     91  CD1      -47.0500   53.3780   -7.8260 C.3   148  LEU148      0.0001
     92  CD2      -49.2290   54.1280   -6.8440 C.3   148  LEU148      0.0001
@<TRIPOS>BOND
     1    91    90    1
     2    92    90    1
     3    90    89    1
     4    79    77    1
     5    78    76    1
     6    89    86    1
     7    76    77    1
     8    76    73    1
     9    86    87    1
    10    86    85    1
    11    66    65    1
    12    87    88    2
    13    75    74    2
    14    64    65    1
    15    64    61    1
    16    74    73    1
    17    73    72    1
    18    63    62    2
    19    62    61    1
    20    85    82   am
    21    65    67    1
    22    83    82    2
    23    48    49    2
    24    48    47    1
    25    61    60    1
    26    82    81    1
    27    72    70   am
    28    50    52    1
    29    50    47    1
    30    50    51    1
    31    60    55   am
    32    46    47    1
    33    84    81    1
    34    53    54    1
    35    81    80    1
    36    70    71    2
    37    70    69    1
    38    55    56    2
    39    55    54    1
    40    68    69    1
    41    54    57    1
    42    57    58    1
    43    57    59    1
    44    34    36   ar
    45    34    32   ar
    46    36    37   ar
    47    31    32    1
    48    31    28    1
    49    32    33   ar
    50    44    43    1
    51    44    45    1
    52    40    43    1
    53    40    39    1
    54    40    41    1
    55    30    29    2
    56    37    38    1
    57    37    35   ar
    58    42    41    2
    59    39    29   am
    60    39    45    1
    61    29    28    1
    62    28    27    1
    63    33    35   ar
    64     5     2    1
    65     5     6    1
    66     4     3    2
    67    11    13   ar
    68    11     8   ar
    69    13    14   ar
    70     2     3    1
    71     2     1    1
    72     6     8   ar
    73     6     7   ar
    74     3    15   am
    75     8    10   ar
    76    14    12   ar
    77     7     9   ar
    78    10    12   ar
    79    10     9   ar
    80    15    16    1
    81    16    17    1
    82    16    19    1
    83    17    18    2
    84    19    20    1
    85    20    22   ar
    86    20    21   ar
    87    22    24   ar
    88    21    23   ar
    89    24    25   ar
    90    23    25   ar
    91    25    26    1
