@<TRIPOS>MOLECULE
tmp/4ogqA12.pdb
 132 127 0 0 0
SMALL
GASTEIGER

@<TRIPOS>ATOM
      1  N        -37.5890   74.2280   14.7640 N.3    40  LEU40      -0.1231
      2  CA       -37.8290   74.5460   16.1660 C.3    40  LEU40       0.1693
      3  C        -39.1650   75.2540   16.3180 C.2    40  LEU40       0.2591
      4  O        -39.9500   74.9200   17.2130 O.2    40  LEU40      -0.2718
      5  CB       -36.7030   75.4120   16.7400 C.3    40  LEU40       0.0284
      6  CG       -36.9080   75.9020   18.1770 C.3    40  LEU40       0.0019
      7  CD1      -37.1070   74.7280   19.1290 C.3    40  LEU40       0.0001
      8  CD2      -35.7410   76.7630   18.6320 C.3    40  LEU40       0.0001
      9  N        -39.4360   76.2030   15.4210 N.am   41  VAL41      -0.1980
     10  CA       -40.6770   76.9640   15.4980 C.3    41  VAL41       0.1595
     11  C        -41.8380   75.9870   15.4960 C.2    41  VAL41       0.2287
     12  O        -42.7180   76.0490   16.3640 O.2    41  VAL41      -0.2864
     13  CB       -40.8290   77.9640   14.3370 C.3    41  VAL41       0.0276
     14  CG1      -42.2060   78.6100   14.3720 C.3    41  VAL41       0.0022
     15  CG2      -39.7400   79.0240   14.4020 C.3    41  VAL41       0.0022
     16  N        -41.9000   72.8920   16.3260 N.3    43  PHE43      -0.1227
     17  CA       -41.9720   72.1520   17.5730 C.3    43  PHE43       0.1736
     18  C        -42.6150   72.9950   18.6660 C.2    43  PHE43       0.2595
     19  O        -43.4290   72.4920   19.4460 O.2    43  PHE43      -0.2718
     20  CB       -40.5970   71.6800   18.0360 C.3    43  PHE43       0.0547
     21  CG       -40.6190   71.0690   19.4040 C.ar   43  PHE43      -0.0202
     22  CD1      -41.1040   69.7880   19.5920 C.ar   43  PHE43      -0.0042
     23  CD2      -40.1910   71.7880   20.5080 C.ar   43  PHE43      -0.0042
     24  CE1      -41.1460   69.2290   20.8500 C.ar   43  PHE43      -0.0003
     25  CE2      -40.2320   71.2320   21.7720 C.ar   43  PHE43      -0.0003
     26  CZ       -40.7100   69.9520   21.9410 C.ar   43  PHE43      -0.0000
     27  N        -42.2610   74.2780   18.7140 N.am   44  LEU44      -0.1966
     28  CA       -42.8120   75.1500   19.7410 C.3    44  LEU44       0.1728
     29  C        -44.3230   75.1740   19.5870 C.2    44  LEU44       0.2616
     30  O        -45.0600   75.0700   20.5740 O.2    44  LEU44      -0.2715
     31  CB       -42.2230   76.5560   19.6500 C.3    44  LEU44       0.0311
     32  CG       -40.7280   76.6410   19.9720 C.3    44  LEU44       0.0022
     33  CD1      -40.2430   78.0810   19.9150 C.3    44  LEU44       0.0001
     34  CD2      -40.4280   76.0210   21.3340 C.3    44  LEU44       0.0001
     35  N        -44.7740   75.2550   18.3370 N.am   45  ILE45      -0.1977
     36  CA       -46.1950   75.2050   18.0480 C.3    45  ILE45       0.1596
     37  C        -46.7630   73.8980   18.6000 C.2    45  ILE45       0.2287
     38  O        -47.7440   73.9020   19.3550 O.2    45  ILE45      -0.2864
     39  CB       -46.4620   75.3320   16.5410 C.3    45  ILE45       0.0276
     40  CG1      -46.0620   76.7290   16.0610 C.3    45  ILE45       0.0022
     41  CG2      -47.9190   75.0630   16.2340 C.3    45  ILE45       0.0022
     42  CD1      -46.2030   76.9320   14.5700 C.3    45  ILE45       0.0001
     43  N        -45.6170   72.1760   20.9380 N.3    47  PHE47      -0.1227
     44  CA       -45.5680   72.1850   22.3920 C.3    47  PHE47       0.1736
     45  C        -46.7830   72.9220   22.9320 C.2    47  PHE47       0.2595
     46  O        -47.3870   72.4910   23.9130 O.2    47  PHE47      -0.2718
     47  CB       -44.2740   72.8330   22.8920 C.3    47  PHE47       0.0547
     48  CG       -44.0230   72.6580   24.3720 C.ar   47  PHE47      -0.0202
     49  CD1      -44.6200   73.5030   25.2990 C.ar   47  PHE47      -0.0042
     50  CD2      -43.1600   71.6720   24.8320 C.ar   47  PHE47      -0.0042
     51  CE1      -44.3790   73.3580   26.6590 C.ar   47  PHE47      -0.0003
     52  CE2      -42.9110   71.5200   26.1940 C.ar   47  PHE47      -0.0003
     53  CZ       -43.5230   72.3660   27.1090 C.ar   47  PHE47      -0.0000
     54  N        -47.1540   74.0190   22.2770 N.am   48  ALA48      -0.1966
     55  CA       -48.2400   74.8520   22.7840 C.3    48  ALA48       0.1728
     56  C        -49.5820   74.1490   22.5890 C.2    48  ALA48       0.2616
     57  O        -50.2380   73.7580   23.5640 O.2    48  ALA48      -0.2715
     58  CB       -48.2330   76.2140   22.1030 C.3    48  ALA48       0.0334
     59  N        -49.9640   73.9690   21.3250 N.am   49  THR49      -0.1951
     60  CA       -51.2180   73.3080   20.9710 C.3    49  THR49       0.1897
     61  C        -51.3450   71.9510   21.6560 C.2    49  THR49       0.2313
     62  O        -52.3920   71.6290   22.2270 O.2    49  THR49      -0.2863
     63  CB       -51.3480   73.1230   19.4430 C.3    49  THR49       0.1794
     64  OG1      -50.2320   72.3750   18.9460 O.3    49  THR49      -0.2208
     65  CG2      -51.3910   74.4740   18.7430 C.3    49  THR49       0.0378
     66  N        -49.9910   70.9360   24.4500 N.3    51  PHE51      -0.1241
     67  CA       -50.3120   71.1490   25.8500 C.3    51  PHE51       0.1605
     68  C        -51.7960   71.4430   25.9700 C.2    51  PHE51       0.2264
     69  O        -52.4890   70.8490   26.8010 O.2    51  PHE51      -0.2867
     70  CB       -49.4800   72.2890   26.4510 C.3    51  PHE51       0.0534
     71  CG       -50.1730   73.0180   27.5730 C.ar   51  PHE51      -0.0203
     72  CD1      -50.5520   72.3520   28.7280 C.ar   51  PHE51      -0.0042
     73  CD2      -50.4400   74.3710   27.4720 C.ar   51  PHE51      -0.0042
     74  CE1      -51.1970   73.0190   29.7480 C.ar   51  PHE51      -0.0003
     75  CE2      -51.0750   75.0450   28.4970 C.ar   51  PHE51      -0.0003
     76  CZ       -51.4540   74.3680   29.6370 C.ar   51  PHE51      -0.0000
     77  N        -59.2890   74.5520   15.5800 N.3    80  LEU80      -0.1231
     78  CA       -58.1170   75.3120   15.1760 C.3    80  LEU80       0.1693
     79  C        -56.8530   74.7550   15.8160 C.2    80  LEU80       0.2591
     80  O        -55.8730   74.4910   15.1280 O.2    80  LEU80      -0.2718
     81  CB       -58.2940   76.7860   15.5400 C.3    80  LEU80       0.0284
     82  CG       -57.1780   77.7380   15.1180 C.3    80  LEU80       0.0019
     83  CD1      -56.8880   77.5900   13.6320 C.3    80  LEU80       0.0001
     84  CD2      -57.5600   79.1710   15.4550 C.3    80  LEU80       0.0001
     85  N        -56.8850   74.5680   17.1310 N.am   81  ILE81      -0.1980
     86  CA       -55.7260   74.0660   17.8630 C.3    81  ILE81       0.1595
     87  C        -55.3170   72.6810   17.3490 C.2    81  ILE81       0.2287
     88  O        -54.1300   72.4240   17.1060 O.2    81  ILE81      -0.2864
     89  CB       -55.9990   74.0170   19.3930 C.3    81  ILE81       0.0276
     90  CG1      -55.5970   75.3360   20.0590 C.3    81  ILE81       0.0022
     91  CG2      -55.2160   72.8990   20.0590 C.3    81  ILE81       0.0022
     92  CD1      -56.3620   76.5440   19.5850 C.3    81  ILE81       0.0001
     93  N        -54.0400   72.8800   13.5860 N.3    84  ILE84      -0.1245
     94  CA       -52.7080   73.4600   13.6930 C.3    84  ILE84       0.1561
     95  C        -51.7160   72.4000   14.1540 C.2    84  ILE84       0.2260
     96  O        -50.6080   72.3180   13.6350 O.2    84  ILE84      -0.2867
     97  CB       -52.6780   74.6560   14.6700 C.3    84  ILE84       0.0252
     98  CG1      -53.3130   75.8920   14.0320 C.3    84  ILE84       0.0019
     99  CG2      -51.2570   74.9870   15.0780 C.3    84  ILE84       0.0019
    100  CD1      -53.3840   77.0850   14.9630 C.3    84  ILE84       0.0001
    101  N        -36.2240   67.6460   24.4830 N.3   195  ALA195     -0.1245
    102  CA       -35.7080   68.8380   25.1460 C.3   195  ALA195      0.1562
    103  C        -34.2220   68.6790   25.4190 C.2   195  ALA195      0.2260
    104  O        -33.4320   69.5740   25.1190 O.2   195  ALA195     -0.2867
    105  CB       -36.4580   69.1120   26.4410 C.3   195  ALA195      0.0290
    106  N        -32.2530   68.5430   22.0380 N.3   198  MET198     -0.1230
    107  CA       -32.2560   69.8700   21.4230 C.3   198  MET198      0.1702
    108  C        -31.3100   70.7910   22.1770 C.2   198  MET198      0.2592
    109  O        -30.6330   71.6260   21.5750 O.2   198  MET198     -0.2718
    110  CB       -33.6530   70.4880   21.3970 C.3   198  MET198      0.0401
    111  CG       -34.4800   70.1570   20.1700 C.3   198  MET198      0.0596
    112  SD       -36.0090   71.1140   20.1390 S.3   198  MET198     -0.1393
    113  CE       -36.8480   70.3750   18.7440 C.3   198  MET198      0.0692
    114  N        -31.2710   70.6350   23.4960 N.am  199  LEU199     -0.1980
    115  CA       -30.3810   71.4340   24.3280 C.3   199  LEU199      0.1596
    116  C        -28.9280   71.1580   23.9650 C.2   199  LEU199      0.2287
    117  O        -28.1430   72.0870   23.7800 O.2   199  LEU199     -0.2864
    118  CB       -30.6190   71.1520   25.8110 C.3   199  LEU199      0.0297
    119  CG       -29.7730   71.9780   26.7820 C.3   199  LEU199      0.0022
    120  CD1      -30.0820   73.4600   26.6320 C.3   199  LEU199      0.0001
    121  CD2      -29.9910   71.5200   28.2170 C.3   199  LEU199      0.0001
    122  N        -28.2160   72.6900   20.4080 N.3   202  PHE202     -0.1241
    123  CA       -28.0910   74.1380   20.3910 C.3   202  PHE202      0.1605
    124  C        -26.8470   74.6090   21.1380 C.2   202  PHE202      0.2264
    125  O        -26.1770   75.5430   20.6990 O.2   202  PHE202     -0.2867
    126  CB       -29.3440   74.7840   20.9910 C.3   202  PHE202      0.0534
    127  CG       -30.6120   74.4520   20.2520 C.ar  202  PHE202     -0.0203
    128  CD1      -30.5730   74.0260   18.9330 C.ar  202  PHE202     -0.0042
    129  CD2      -31.8420   74.5670   20.8760 C.ar  202  PHE202     -0.0042
    130  CE1      -31.7350   73.7180   18.2540 C.ar  202  PHE202     -0.0003
    131  CE2      -33.0090   74.2600   20.2010 C.ar  202  PHE202     -0.0003
    132  CZ       -32.9550   73.8350   18.8880 C.ar  202  PHE202     -0.0000
@<TRIPOS>BOND
     1    93    94    1
     2    83    82    1
     3    96    95    2
     4    94    95    1
     5    94    97    1
     6    98    97    1
     7    98   100    1
     8    13    14    1
     9    13    15    1
    10    13    10    1
    11    42    40    1
    12    97    99    1
    13     1     2    1
    14    82    84    1
    15    82    81    1
    16    80    79    2
    17    78    81    1
    18    78    77    1
    19    78    79    1
    20     9    10    1
    21     9     3   am
    22    11    10    1
    23    11    12    2
    24    79    85   am
    25    40    39    1
    26     2     3    1
    27     2     5    1
    28    41    39    1
    29     3     4    2
    30    16    17    1
    31    39    36    1
    32     5     6    1
    33    88    87    2
    34    85    86    1
    35    87    86    1
    36    17    20    1
    37    17    18    1
    38    86    89    1
    39    20    21    1
    40    36    35    1
    41    36    37    1
    42     6     8    1
    43     6     7    1
    44   130   132   ar
    45   130   128   ar
    46    35    29   am
    47    37    38    2
    48    18    27   am
    49    18    19    2
    50    27    28    1
    51    65    63    1
    52   113   112    1
    53   132   131   ar
    54   128   127   ar
    55    64    63    1
    56    89    91    1
    57    89    90    1
    58    21    22   ar
    59    21    23   ar
    60    63    60    1
    61    92    90    1
    62    29    28    1
    63    29    30    2
    64    22    24   ar
    65    31    28    1
    66    31    32    1
    67    33    32    1
    68    32    34    1
    69   112   111    1
    70   111   110    1
    71   131   129   ar
    72   127   129   ar
    73   127   126    1
    74   123   122    1
    75   123   126    1
    76   123   124    1
    77    23    25   ar
    78   125   124    2
    79    24    26   ar
    80    43    44    1
    81    60    59    1
    82    60    61    1
    83    59    56   am
    84   110   107    1
    85   107   106    1
    86   107   108    1
    87   109   108    2
    88    61    62    2
    89    25    26   ar
    90    58    55    1
    91   108   114   am
    92    54    55    1
    93    54    45   am
    94    44    47    1
    95    44    45    1
    96    56    55    1
    97    56    57    2
    98    47    48    1
    99    45    46    2
   100   114   115    1
   101   117   116    2
   102   116   115    1
   103   115   118    1
   104    48    50   ar
   105    48    49   ar
   106    66    67    1
   107   101   102    1
   108    50    52   ar
   109   104   103    2
   110   102   103    1
   111   102   105    1
   112    49    51   ar
   113   118   119    1
   114    67    68    1
   115    67    70    1
   116    68    69    2
   117    52    53   ar
   118    70    71    1
   119   120   119    1
   120    51    53   ar
   121   119   121    1
   122    73    71   ar
   123    73    75   ar
   124    71    72   ar
   125    75    76   ar
   126    72    74   ar
   127    76    74   ar
