@<TRIPOS>MOLECULE
tmp/4ogrD00.pdb
 146 139 0 0 0
SMALL
GASTEIGER

@<TRIPOS>ATOM
      1  N        112.2410  -35.0580  -16.4800 N.3    18  ILE18      -0.1231
      2  CA       111.0430  -35.2610  -17.2900 C.3    18  ILE18       0.1692
      3  C        111.2260  -34.4770  -18.5880 C.2    18  ILE18       0.2592
      4  O        112.2410  -33.8030  -18.7700 O.2    18  ILE18      -0.2718
      5  CB       109.7460  -34.8100  -16.5930 C.3    18  ILE18       0.0266
      6  CG1      110.0090  -34.4440  -15.1290 C.3    18  ILE18       0.0019
      7  CG2      108.6910  -35.9070  -16.7240 C.3    18  ILE18       0.0020
      8  CD1      108.7690  -34.0220  -14.3650 C.3    18  ILE18       0.0001
      9  N        110.2410  -34.5570  -19.4790 N.am   19  GLY19      -0.1957
     10  CA       110.2440  -33.7720  -20.7030 C.3    19  GLY19       0.1869
     11  C        111.5010  -33.9320  -21.5380 C.2    19  GLY19       0.2309
     12  O        112.2170  -34.9260  -21.4200 O.2    19  GLY19      -0.2863
     13  N        113.1070  -30.1470  -18.1780 N.3    22  VAL22      -0.1245
     14  CA       112.0290  -30.2190  -17.1940 C.3    22  VAL22       0.1561
     15  C        112.3380  -31.1820  -16.0480 C.2    22  VAL22       0.2260
     16  O        112.7850  -32.3080  -16.2710 O.2    22  VAL22      -0.2867
     17  CB       110.7060  -30.6510  -17.8590 C.3    22  VAL22       0.0252
     18  CG1      109.5530  -30.5690  -16.8690 C.3    22  VAL22       0.0019
     19  CG2      110.4200  -29.7910  -19.0820 C.3    22  VAL22       0.0019
     20  N        106.5670  -28.8190  -11.0770 N.3    35  ALA35      -0.1245
     21  CA       107.3520  -29.1110  -12.2720 C.3    35  ALA35       0.1562
     22  C        108.1340  -27.8730  -12.7000 C.2    35  ALA35       0.2260
     23  O        107.5440  -26.8340  -13.0010 O.2    35  ALA35      -0.2867
     24  CB       106.4500  -29.5910  -13.3960 C.3    35  ALA35       0.0290
     25  N        110.2160  -26.0400  -15.4200 N.3    37  LYS37      -0.1245
     26  CA       110.5420  -25.9710  -16.8440 C.3    37  LYS37       0.1561
     27  C        111.5940  -24.9010  -17.1150 C.2    37  LYS37       0.2260
     28  O        111.3330  -23.7120  -16.9390 O.2    37  LYS37      -0.2867
     29  CB       109.2960  -25.6770  -17.6810 C.3    37  LYS37       0.0271
     30  CG       109.5800  -25.6400  -19.1760 C.3    37  LYS37       0.0035
     31  CD       108.3130  -25.6210  -20.0130 C.3    37  LYS37       0.0206
     32  CE       108.6380  -25.2980  -21.4650 C.3    37  LYS37       0.1093
     33  NZ       107.4180  -25.0920  -22.2900 N.3    37  LYS37      -0.1314
     34  N         96.7070  -26.3810  -17.3170 N.3    68  VAL68      -0.1245
     35  CA        97.7620  -26.4760  -16.3160 C.3    68  VAL68       0.1561
     36  C         97.9760  -25.1180  -15.6500 C.2    68  VAL68       0.2260
     37  O         97.7290  -24.0740  -16.2590 O.2    68  VAL68      -0.2867
     38  CB        99.0860  -26.9850  -16.9360 C.3    68  VAL68       0.0252
     39  CG1       99.8120  -25.8750  -17.6960 C.3    68  VAL68       0.0019
     40  CG2       99.9810  -27.5650  -15.8570 C.3    68  VAL68       0.0019
     41  N        105.3350  -25.0420  -12.4790 N.3    84  PHE84      -0.1227
     42  CA       103.9710  -25.5450  -12.6260 C.3    84  PHE84       0.1736
     43  C        103.5510  -26.4270  -11.4530 C.2    84  PHE84       0.2595
     44  O        104.3910  -26.9810  -10.7430 O.2    84  PHE84      -0.2718
     45  CB       103.8390  -26.3520  -13.9180 C.3    84  PHE84       0.0547
     46  CG       104.1310  -25.5680  -15.1620 C.ar   84  PHE84      -0.0202
     47  CD1      105.4340  -25.3850  -15.5930 C.ar   84  PHE84      -0.0042
     48  CD2      103.1000  -25.0400  -15.9190 C.ar   84  PHE84      -0.0042
     49  CE1      105.7040  -24.6740  -16.7450 C.ar   84  PHE84      -0.0003
     50  CE2      103.3650  -24.3300  -17.0710 C.ar   84  PHE84      -0.0003
     51  CZ       104.6690  -24.1470  -17.4860 C.ar   84  PHE84      -0.0000
     52  N        102.2410  -26.5490  -11.2580 N.am   85  ASP85      -0.1960
     53  CA       101.6890  -27.5720  -10.3810 C.3    85  ASP85       0.1840
     54  C        101.9840  -28.9360  -10.9910 C.2    85  ASP85       0.2622
     55  O        101.7710  -29.1430  -12.1870 O.2    85  ASP85      -0.2715
     56  CB       100.1830  -27.3820  -10.1960 C.3    85  ASP85       0.1450
     57  CG        99.8450  -26.4440   -9.0520 C.2    85  ASP85       0.3671
     58  OD1      100.4320  -26.5940   -7.9580 O.co2  85  ASP85      -0.2456
     59  OD2       98.9850  -25.5590   -9.2480 O.co2  85  ASP85      -0.2456
     60  N        102.4650  -29.8690  -10.1770 N.am   86  PHE86      -0.1960
     61  CA       102.8850  -31.1680  -10.6910 C.3    86  PHE86       0.1771
     62  C        101.6940  -32.0830  -10.9830 C.2    86  PHE86       0.2620
     63  O        100.7120  -32.0980  -10.2390 O.2    86  PHE86      -0.2715
     64  CB       103.8300  -31.8460   -9.6980 C.3    86  PHE86       0.0574
     65  CG       104.2560  -33.2240  -10.1150 C.ar   86  PHE86      -0.0200
     66  CD1      105.0670  -33.4080  -11.2210 C.ar   86  PHE86      -0.0042
     67  CD2      103.8410  -34.3380   -9.4020 C.ar   86  PHE86      -0.0042
     68  CE1      105.4580  -34.6760  -11.6070 C.ar   86  PHE86      -0.0003
     69  CE2      104.2290  -35.6070   -9.7840 C.ar   86  PHE86      -0.0003
     70  CZ       105.0380  -35.7760  -10.8880 C.ar   86  PHE86      -0.0000
     71  N        101.8000  -32.8410  -12.0730 N.am   87  CYS87      -0.1954
     72  CA       100.7980  -33.8390  -12.4440 C.3    87  CYS87       0.1843
     73  C        101.4440  -35.2160  -12.5540 C.2    87  CYS87       0.2625
     74  O        102.4890  -35.3710  -13.1880 O.2    87  CYS87      -0.2714
     75  CB       100.1300  -33.4690  -13.7680 C.3    87  CYS87       0.0997
     76  SG        99.3310  -31.8530  -13.7700 S.3    87  CYS87      -0.0797
     77  N        100.8160  -36.2130  -11.9420 N.am   88  GLU88      -0.1963
     78  CA       101.3870  -37.5540  -11.8800 C.3    88  GLU88       0.1733
     79  C        101.5620  -38.2020  -13.2510 C.2    88  GLU88       0.2616
     80  O        102.5670  -38.8720  -13.4940 O.2    88  GLU88      -0.2715
     81  CB       100.5130  -38.4520  -11.0050 C.3    88  GLU88       0.0429
     82  CG       101.0860  -39.8410  -10.7640 C.3    88  GLU88       0.1163
     83  CD       102.3950  -39.8070  -10.0030 C.2    88  GLU88       0.3649
     84  OE1      102.4550  -39.1250   -8.9580 O.co2  88  GLU88      -0.2457
     85  OE2      103.3630  -40.4570  -10.4540 O.co2  88  GLU88      -0.2457
     86  N        100.5910  -38.0000  -14.1390 N.am   89  HIS89      -0.1959
     87  CA       100.5680  -38.7000  -15.4210 C.3    89  HIS89       0.1787
     88  C        100.4880  -37.7700  -16.6230 C.2    89  HIS89       0.2620
     89  O        100.0900  -36.6090  -16.5100 O.2    89  HIS89      -0.2715
     90  CB        99.3790  -39.6650  -15.4760 C.3    89  HIS89       0.0785
     91  CG        99.2310  -40.5160  -14.2550 C.ar   89  HIS89       0.0821
     92  ND1       98.3280  -40.2280  -13.2540 N.ar   89  HIS89      -0.2267
     93  CD2       99.8670  -41.6480  -13.8740 C.ar   89  HIS89       0.1154
     94  CE1       98.4150  -41.1470  -12.3080 C.ar   89  HIS89       0.1986
     95  NE2       99.3420  -42.0200  -12.6600 N.ar   89  HIS89      -0.2212
     96  N        100.8860  -38.3060  -17.7730 N.am   90  ASP90      -0.1971
     97  CA       100.6050  -37.6970  -19.0650 C.3    90  ASP90       0.1709
     98  C         99.9100  -38.7550  -19.9140 C.2    90  ASP90       0.2293
     99  O        100.1850  -39.9460  -19.7690 O.2    90  ASP90      -0.2864
    100  CB       101.8830  -37.1870  -19.7370 C.3    90  ASP90       0.1436
    101  CG       102.8410  -38.3030  -20.0960 C.2    90  ASP90       0.3671
    102  OD1      103.5490  -38.7970  -19.1920 O.co2  90  ASP90      -0.2456
    103  OD2      102.8940  -38.6790  -21.2850 O.co2  90  ASP90      -0.2456
    104  N         99.1120  -32.8920  -28.6170 N.3   132  LYS132     -0.1245
    105  CA        99.5820  -34.2660  -28.7110 C.3   132  LYS132      0.1561
    106  C         99.4140  -34.9290  -27.3520 C.2   132  LYS132      0.2260
    107  O         99.3500  -34.2450  -26.3290 O.2   132  LYS132     -0.2867
    108  CB       101.0370  -34.3080  -29.1870 C.3   132  LYS132      0.0271
    109  CG       101.9980  -33.4650  -28.3600 C.3   132  LYS132      0.0035
    110  CD       103.3950  -33.4620  -28.9710 C.3   132  LYS132      0.0206
    111  CE       104.4290  -32.8560  -28.0340 C.3   132  LYS132      0.1093
    112  NZ       105.8210  -33.1260  -28.4850 N.3   132  LYS132     -0.1314
    113  N        101.2880  -36.4250  -25.3800 N.3   134  ALA134     -0.1231
    114  CA       102.3340  -36.1510  -24.4000 C.3   134  ALA134      0.1694
    115  C        102.1740  -34.7770  -23.7520 C.2   134  ALA134      0.2592
    116  O        102.7740  -34.5110  -22.7110 O.2   134  ALA134     -0.2718
    117  CB       103.7010  -36.2630  -25.0510 C.3   134  ALA134      0.0304
    118  N        101.3800  -33.9060  -24.3730 N.am  135  ASN135     -0.1974
    119  CA       101.1110  -32.5800  -23.8190 C.3   135  ASN135      0.1688
    120  C         99.7600  -32.5260  -23.1130 C.2   135  ASN135      0.2292
    121  O         99.2710  -31.4480  -22.7690 O.2   135  ASN135     -0.2864
    122  CB       101.1650  -31.5190  -24.9200 C.3   135  ASN135      0.1181
    123  CG       102.5850  -31.1430  -25.3000 C.2   135  ASN135      0.2629
    124  OD1      103.5350  -31.3970  -24.5550 O.2   135  ASN135     -0.2716
    125  ND2      102.7350  -30.5230  -26.4650 N.am  135  ASN135     -0.0877
    126  N         98.1500  -33.7770  -19.7370 N.3   137  LEU137     -0.1245
    127  CA        98.4480  -34.3200  -18.4200 C.3   137  LEU137      0.1561
    128  C         97.1720  -34.7060  -17.6940 C.2   137  LEU137      0.2260
    129  O         96.1000  -34.1760  -17.9810 O.2   137  LEU137     -0.2867
    130  CB        99.2410  -33.3110  -17.5910 C.3   137  LEU137      0.0270
    131  CG       100.4110  -32.6410  -18.3130 C.3   137  LEU137      0.0019
    132  CD1      101.1190  -31.6670  -17.3850 C.3   137  LEU137      0.0001
    133  CD2      101.3850  -33.6780  -18.8570 C.3   137  LEU137      0.0001
    134  N         98.6950  -28.7890  -21.4390 N.3   147  ALA147     -0.1231
    135  CA       100.0040  -28.3220  -20.9880 C.3   147  ALA147      0.1694
    136  C        100.9530  -28.0210  -22.1460 C.2   147  ALA147      0.2592
    137  O        100.6540  -28.3010  -23.3060 O.2   147  ALA147     -0.2718
    138  CB       100.6250  -29.3490  -20.0600 C.3   147  ALA147      0.0304
    139  N        102.1000  -27.4420  -21.8010 N.am  148  ASP148     -0.1974
    140  CA       103.1170  -27.0380  -22.7680 C.3   148  ASP148      0.1709
    141  C        102.5580  -26.0280  -23.7670 C.2   148  ASP148      0.2293
    142  O        102.3340  -26.3430  -24.9370 O.2   148  ASP148     -0.2864
    143  CB       103.6770  -28.2630  -23.4990 C.3   148  ASP148      0.1436
    144  CG       104.9680  -27.9620  -24.2440 C.2   148  ASP148      0.3671
    145  OD1      105.5170  -26.8510  -24.0780 O.co2 148  ASP148     -0.2456
    146  OD2      105.4370  -28.8440  -24.9960 O.co2 148  ASP148     -0.2456
@<TRIPOS>BOND
     1   108   105    1
     2   108   109    1
     3   110   109    1
     4   110   111    1
     5   105   104    1
     6   105   106    1
     7   112   111    1
     8   106   107    2
     9   125   123   am
    10   113   114    1
    11   123   122    1
    12   123   124    2
    13   117   114    1
    14   146   144   ar
    15   142   141    2
    16   122   119    1
    17   114   115    1
    18   118   119    1
    19   118   115   am
    20   144   145   ar
    21   144   143    1
    22   119   120    1
    23   141   140    1
    24   115   116    2
    25   143   140    1
    26   137   136    2
    27   120   121    2
    28   140   139    1
    29    33    32    1
    30   136   139   am
    31   136   135    1
    32    11    12    2
    33    11    10    1
    34    32    31    1
    35   134   135    1
    36   103   101   ar
    37   135   138    1
    38    10     9    1
    39   101   100    1
    40   101   102   ar
    41    31    30    1
    42    98    99    2
    43    98    97    1
    44   126   127    1
    45   100    97    1
    46     9     3   am
    47    30    29    1
    48    19    17    1
    49    97    96    1
    50   133   131    1
    51     4     3    2
    52     3     2    1
    53   127   128    1
    54   127   130    1
    55   131   130    1
    56   131   132    1
    57    13    14    1
    58   129   128    2
    59    17    14    1
    60    17    18    1
    61    96    88   am
    62    39    38    1
    63    29    26    1
    64    51    50   ar
    65    51    49   ar
    66    34    35    1
    67     2     5    1
    68     2     1    1
    69    14    15    1
    70    27    28    2
    71    27    26    1
    72    50    48   ar
    73    38    35    1
    74    38    40    1
    75    26    25    1
    76    49    47   ar
    77     7     5    1
    78    88    89    2
    79    88    87    1
    80     5     6    1
    81    35    36    1
    82    16    15    2
    83    37    36    2
    84    48    46   ar
    85    47    46   ar
    86    90    87    1
    87    90    91    1
    88    87    86    1
    89    46    45    1
    90     6     8    1
    91    91    93   ar
    92    91    92   ar
    93    86    79   am
    94    45    42    1
    95    93    95   ar
    96    76    75    1
    97    75    72    1
    98    80    79    2
    99    24    21    1
   100    92    94   ar
   101    79    78    1
   102    74    73    2
   103    23    22    2
   104    22    21    1
   105    95    94   ar
   106    42    41    1
   107    42    43    1
   108    73    72    1
   109    73    77   am
   110    72    71    1
   111    21    20    1
   112    55    54    2
   113    71    62   am
   114    77    78    1
   115    78    81    1
   116    68    66   ar
   117    68    70   ar
   118    43    52   am
   119    43    44    2
   120    52    53    1
   121    66    65   ar
   122    81    82    1
   123    54    53    1
   124    54    60   am
   125    62    61    1
   126    62    63    2
   127    70    69   ar
   128    82    83    1
   129    61    60    1
   130    61    64    1
   131    85    83   ar
   132    53    56    1
   133    56    57    1
   134    65    64    1
   135    65    67   ar
   136    83    84   ar
   137    69    67   ar
   138    59    57   ar
   139    57    58   ar
