@<TRIPOS>MOLECULE
tmp/4ogwA00.pdb
 153 150 0 0 0
SMALL
GASTEIGER

@<TRIPOS>ATOM
      1  N        -12.9630   -7.8960   21.0920 N.3    79  LEU79      -0.1231
      2  CA       -13.8650   -9.0230   20.9360 C.3    79  LEU79       0.1693
      3  C        -13.0950  -10.2740   20.5190 C.2    79  LEU79       0.2592
      4  O        -12.4350  -10.2990   19.4800 O.2    79  LEU79      -0.2718
      5  CB       -14.9770   -8.7190   19.9260 C.3    79  LEU79       0.0284
      6  CG       -15.9710   -9.8660   19.6910 C.3    79  LEU79       0.0019
      7  CD1      -16.7420  -10.2020   20.9650 C.3    79  LEU79       0.0001
      8  CD2      -16.9220   -9.5340   18.5540 C.3    79  LEU79       0.0001
      9  N        -13.1880  -11.3040   21.3460 N.am   80  LEU80      -0.1966
     10  CA       -12.6210  -12.6020   21.0220 C.3    80  LEU80       0.1728
     11  C        -13.7290  -13.5150   20.5080 C.2    80  LEU80       0.2616
     12  O        -14.9170  -13.2140   20.6580 O.2    80  LEU80      -0.2715
     13  CB       -11.9210  -13.2110   22.2450 C.3    80  LEU80       0.0311
     14  CG       -10.7670  -12.4190   22.8810 C.3    80  LEU80       0.0022
     15  CD1      -10.1850  -13.1850   24.0640 C.3    80  LEU80       0.0001
     16  CD2       -9.6620  -12.0690   21.8710 C.3    80  LEU80       0.0001
     17  N        -13.3390  -14.6130   19.8720 N.am   81  TRP81      -0.1960
     18  CA       -14.3040  -15.6010   19.3900 C.3    81  TRP81       0.1771
     19  C        -13.6650  -16.9790   19.3830 C.2    81  TRP81       0.2620
     20  O        -12.4580  -17.1050   19.5810 O.2    81  TRP81      -0.2715
     21  CB       -14.8530  -15.2270   17.9990 C.3    81  TRP81       0.0590
     22  CG       -13.7980  -15.0240   16.9380 C.ar   81  TRP81       0.0006
     23  CD1      -13.1800  -13.8450   16.6050 C.ar   81  TRP81       0.0946
     24  CD2      -13.2460  -16.0240   16.0710 C.ar   81  TRP81       0.0152
     25  NE1      -12.2750  -14.0550   15.5930 N.ar   81  TRP81      -0.2442
     26  CE2      -12.2970  -15.3800   15.2420 C.ar   81  TRP81       0.0810
     27  CE3      -13.4570  -17.4030   15.9160 C.ar   81  TRP81       0.0012
     28  CZ2      -11.5550  -16.0700   14.2730 C.ar   81  TRP81       0.0191
     29  CZ3      -12.7210  -18.0900   14.9470 C.ar   81  TRP81       0.0001
     30  CH2      -11.7810  -17.4180   14.1390 C.ar   81  TRP81       0.0015
     31  N        -14.4770  -18.0100   19.1900 N.am   82  SER82      -0.1936
     32  CA       -13.9630  -19.3680   19.0770 C.3    82  SER82       0.2055
     33  C        -14.8030  -20.1610   18.0880 C.2    82  SER82       0.2642
     34  O        -16.0360  -20.1670   18.1730 O.2    82  SER82      -0.2714
     35  CB       -13.9310  -20.0610   20.4400 C.3    82  SER82       0.2130
     36  OG       -13.1090  -21.2180   20.4010 O.3    82  SER82      -0.2179
     37  N        -14.1150  -20.8100   17.1480 N.am   83  ARG83      -0.1977
     38  CA       -14.7250  -21.6360   16.0920 C.3    83  ARG83       0.1597
     39  C        -15.3840  -20.8120   14.9820 C.2    83  ARG83       0.2287
     40  O        -15.0170  -20.9500   13.8170 O.2    83  ARG83      -0.2864
     41  CB       -15.6970  -22.6860   16.6670 C.3    83  ARG83       0.0334
     42  CG       -15.0700  -23.6610   17.6580 C.3    83  ARG83       0.0492
     43  CD       -13.8930  -24.4080   17.0370 C.3    83  ARG83       0.2205
     44  NE       -14.2600  -24.9640   15.7510 N.pl3  83  ARG83      -0.0865
     45  CZ       -13.3220  -25.1720   14.8320 C.cat  83  ARG83       0.5346
     46  NH1      -12.0500  -24.8800   15.0950 N.pl3  83  ARG83       0.1354
     47  NH2      -13.6670  -25.6260   13.6310 N.pl3  83  ARG83       0.1354
     48  N        -16.5020  -16.9600   13.3760 N.3    85  LYS85      -0.1245
     49  CA       -16.0640  -15.5590   13.3590 C.3    85  LYS85       0.1561
     50  C        -17.0180  -14.6400   12.5940 C.2    85  LYS85       0.2260
     51  O        -16.9370  -13.4150   12.7210 O.2    85  LYS85      -0.2867
     52  CB       -14.6520  -15.4520   12.7700 C.3    85  LYS85       0.0271
     53  CG       -14.5400  -15.8380   11.2950 C.3    85  LYS85       0.0035
     54  CD       -13.0910  -15.9530   10.8530 C.3    85  LYS85       0.0206
     55  CE       -12.9880  -16.0670    9.3440 C.3    85  LYS85       0.1093
     56  NZ       -11.6620  -16.5990    8.9140 N.3    85  LYS85      -0.1314
     57  N         -9.2830   -9.7110   16.3910 N.3   101  LEU101     -0.1231
     58  CA        -7.9100   -9.8270   15.8920 C.3   101  LEU101      0.1693
     59  C         -7.8500   -9.5630   14.3880 C.2   101  LEU101      0.2591
     60  O         -6.8970   -8.9650   13.8880 O.2   101  LEU101     -0.2718
     61  CB        -7.3360  -11.2170   16.2170 C.3   101  LEU101      0.0284
     62  CG        -6.0000  -11.6510   15.5940 C.3   101  LEU101      0.0019
     63  CD1       -4.8530  -10.7070   15.9810 C.3   101  LEU101      0.0001
     64  CD2       -5.6750  -13.0810   15.9860 C.3   101  LEU101      0.0001
     65  N         -8.8850   -9.9930   13.6790 N.am  102  GLU102     -0.1979
     66  CA        -8.9400   -9.8770   12.2260 C.3   102  GLU102      0.1602
     67  C         -9.2480   -8.4560   11.7330 C.2   102  GLU102      0.2287
     68  O         -9.2160   -8.2020   10.5270 O.2   102  GLU102     -0.2864
     69  CB        -9.9450  -10.8800   11.6520 C.3   102  GLU102      0.0415
     70  CG        -9.6140  -12.3460   11.9400 C.3   102  GLU102      0.1163
     71  CD        -9.8660  -12.7500   13.3820 C.2   102  GLU102      0.3649
     72  OE1      -10.8200  -12.2360   14.0050 O.co2 102  GLU102     -0.2457
     73  OE2       -9.1000  -13.5880   13.8970 O.co2 102  GLU102     -0.2457
     74  N         -6.1800  -13.4480    7.5000 N.3   111  ASP111     -0.1225
     75  CA        -7.4910  -14.0640    7.6690 C.3   111  ASP111      0.1805
     76  C         -7.9470  -14.7560    6.3880 C.2   111  ASP111      0.2597
     77  O         -7.9360  -14.1600    5.3090 O.2   111  ASP111     -0.2718
     78  CB        -8.5260  -13.0350    8.1260 C.3   111  ASP111      0.1424
     79  CG        -9.7480  -13.6750    8.7750 C.2   111  ASP111      0.3668
     80  OD1       -9.6900  -14.8620    9.1660 O.co2 111  ASP111     -0.2456
     81  OD2      -10.7720  -12.9760    8.9060 O.co2 111  ASP111     -0.2456
     82  N         -8.3180  -16.0290    6.5260 N.am  112  ASP112     -0.1974
     83  CA        -8.8420  -16.8480    5.4240 C.3   112  ASP112      0.1709
     84  C         -7.7720  -17.3440    4.4420 C.2   112  ASP112      0.2293
     85  O         -8.0960  -17.9460    3.4170 O.2   112  ASP112     -0.2864
     86  CB        -9.9660  -16.1140    4.6870 C.3   112  ASP112      0.1436
     87  CG       -11.0890  -15.7010    5.6120 C.2   112  ASP112      0.3671
     88  OD1      -11.6880  -16.5940    6.2350 O.co2 112  ASP112     -0.2456
     89  OD2      -11.3660  -14.4840    5.7190 O.co2 112  ASP112     -0.2456
     90  N         -0.9290  -17.8640   13.9470 N.3   145  TRP145     -0.1241
     91  CA        -2.1550  -17.5470   14.6800 C.3   145  TRP145      0.1605
     92  C         -1.9750  -17.6710   16.1860 C.2   145  TRP145      0.2264
     93  O         -2.5520  -16.8950   16.9420 O.2   145  TRP145     -0.2867
     94  CB        -3.3360  -18.3930   14.1960 C.3   145  TRP145      0.0550
     95  CG        -3.8340  -17.9800   12.8390 C.ar  145  TRP145      0.0003
     96  CD1       -3.8070  -18.7230   11.6940 C.ar  145  TRP145      0.0946
     97  CD2       -4.4220  -16.7190   12.4860 C.ar  145  TRP145      0.0152
     98  NE1       -4.3440  -18.0040   10.6490 N.ar  145  TRP145     -0.2442
     99  CE2       -4.7250  -16.7700   11.1070 C.ar  145  TRP145      0.0810
    100  CE3       -4.7160  -15.5480   13.2010 C.ar  145  TRP145      0.0012
    101  CZ2       -5.3150  -15.6990   10.4280 C.ar  145  TRP145      0.0191
    102  CZ3       -5.3040  -14.4810   12.5230 C.ar  145  TRP145      0.0001
    103  CH2       -5.5950  -14.5660   11.1500 C.ar  145  TRP145      0.0015
    104  N         -2.5450  -14.2690   18.3090 N.3   149  SER149     -0.1217
    105  CA        -3.7130  -14.4130   19.1780 C.3   149  SER149      0.1889
    106  C         -3.3760  -14.1680   20.6470 C.2   149  SER149      0.2288
    107  O         -4.1950  -13.6280   21.3940 O.2   149  SER149     -0.2866
    108  CB        -4.3470  -15.7980   19.0240 C.3   149  SER149      0.2089
    109  OG        -4.8110  -16.0010   17.7010 O.3   149  SER149     -0.2183
    110  N         -2.5280  -10.1870   21.0810 N.3   152  PHE152     -0.1241
    111  CA        -3.7920   -9.4520   21.0250 C.3   152  PHE152      0.1605
    112  C         -4.6020   -9.6010   22.3140 C.2   152  PHE152      0.2264
    113  O         -5.0910   -8.6080   22.8680 O.2   152  PHE152     -0.2867
    114  CB        -4.5960   -9.9160   19.7990 C.3   152  PHE152      0.0534
    115  CG        -5.9140   -9.2200   19.6210 C.ar  152  PHE152     -0.0203
    116  CD1       -5.9700   -7.8850   19.2210 C.ar  152  PHE152     -0.0042
    117  CD2       -7.1070   -9.9100   19.8300 C.ar  152  PHE152     -0.0042
    118  CE1       -7.1970   -7.2440   19.0450 C.ar  152  PHE152     -0.0003
    119  CE2       -8.3350   -9.2790   19.6540 C.ar  152  PHE152     -0.0003
    120  CZ        -8.3790   -7.9390   19.2620 C.ar  152  PHE152     -0.0000
    121  N         -9.0930  -25.1890   21.6370 N.3   176  SER176     -0.1202
    122  CA        -9.1110  -24.1100   20.6490 C.3   176  SER176      0.2020
    123  C         -8.0580  -23.0540   20.9940 C.2   176  SER176      0.2619
    124  O         -7.4810  -23.0840   22.0820 O.2   176  SER176     -0.2717
    125  CB       -10.4990  -23.4730   20.5780 C.3   176  SER176      0.2103
    126  OG       -10.8160  -22.8010   21.7840 O.3   176  SER176     -0.2182
    127  N         -7.8080  -22.1240   20.0700 N.am  177  THR177     -0.1938
    128  CA        -6.8810  -21.0250   20.3360 C.3   177  THR177      0.2028
    129  C         -7.3740  -20.1890   21.5210 C.2   177  THR177      0.2642
    130  O         -6.5840  -19.8100   22.3820 O.2   177  THR177     -0.2714
    131  CB        -6.6500  -20.1180   19.0990 C.3   177  THR177      0.1808
    132  OG1       -6.2290  -20.9090   17.9810 O.3   177  THR177     -0.2208
    133  CG2       -5.5850  -19.0770   19.3870 C.3   177  THR177      0.0379
    134  N         -8.6750  -19.9150   21.5740 N.am  178  PHE178     -0.1973
    135  CA        -9.2290  -19.1710   22.7050 C.3   178  PHE178      0.1639
    136  C         -9.0240  -19.9280   24.0190 C.2   178  PHE178      0.2290
    137  O         -8.5340  -19.3650   24.9950 O.2   178  PHE178     -0.2864
    138  CB       -10.7130  -18.8280   22.5070 C.3   178  PHE178      0.0560
    139  CG       -11.3680  -18.2810   23.7480 C.ar  178  PHE178     -0.0200
    140  CD1      -11.0910  -16.9850   24.1850 C.ar  178  PHE178     -0.0042
    141  CD2      -12.2330  -19.0740   24.5020 C.ar  178  PHE178     -0.0042
    142  CE1      -11.6780  -16.4810   25.3430 C.ar  178  PHE178     -0.0003
    143  CE2      -12.8240  -18.5810   25.6620 C.ar  178  PHE178     -0.0003
    144  CZ       -12.5460  -17.2810   26.0840 C.ar  178  PHE178     -0.0000
    145  N         -5.6300  -17.8780   24.5140 N.3   182  GLN182     -0.1245
    146  CA        -6.1180  -16.5380   24.8700 C.3   182  GLN182      0.1566
    147  C         -6.6130  -16.4090   26.3160 C.2   182  GLN182      0.2260
    148  O         -6.2140  -15.4860   27.0300 O.2   182  GLN182     -0.2867
    149  CB        -7.1740  -16.0620   23.8650 C.3   182  GLN182      0.0367
    150  CG        -6.6100  -15.8850   22.4530 C.3   182  GLN182      0.0905
    151  CD        -7.5960  -15.2680   21.4860 C.2   182  GLN182      0.2608
    152  OE1       -8.7460  -15.7030   21.3840 O.2   182  GLN182     -0.2717
    153  NE2       -7.1450  -14.2530   20.7550 N.am  182  GLN182     -0.0878
@<TRIPOS>BOND
     1    85    84    2
     2    84    83    1
     3    86    83    1
     4    86    87    1
     5    77    76    2
     6    83    82    1
     7    87    89   ar
     8    87    88   ar
     9    76    82   am
    10    76    75    1
    11    74    75    1
    12    75    78    1
    13    78    79    1
    14    79    81   ar
    15    79    80   ar
    16    56    55    1
    17    55    54    1
    18   101    99   ar
    19   101   103   ar
    20    68    67    2
    21    98    99   ar
    22    98    96   ar
    23    54    53    1
    24    99    97   ar
    25   103   102   ar
    26    53    52    1
    27    69    70    1
    28    69    66    1
    29    96    95   ar
    30    67    66    1
    31    70    71    1
    32    66    65    1
    33    97    95   ar
    34    97   100   ar
    35   102   100   ar
    36    50    51    2
    37    50    49    1
    38    52    49    1
    39    95    94    1
    40    49    48    1
    41    71    73   ar
    42    71    72   ar
    43    47    45    1
    44    65    59   am
    45    40    39    2
    46    60    59    2
    47    90    91    1
    48    30    28   ar
    49    30    29   ar
    50    94    91    1
    51    28    26   ar
    52    59    58    1
    53    91    92    1
    54    45    46    1
    55    45    44    2
    56    29    27   ar
    57    39    38    1
    58    26    25   ar
    59    26    24   ar
    60    25    23   ar
    61    62    63    1
    62    62    64    1
    63    62    61    1
    64    44    43    1
    65    58    61    1
    66    58    57    1
    67    27    24   ar
    68    24    22   ar
    69    38    41    1
    70    38    37    1
    71    92    93    2
    72    23    22   ar
    73    41    42    1
    74    22    21    1
    75    43    42    1
    76    37    33   am
    77   109   108    1
    78   132   131    1
    79    21    18    1
    80    33    34    2
    81    33    32    1
    82   104   105    1
    83     8     6    1
    84   108   105    1
    85   118   116   ar
    86   118   120   ar
    87    32    31    1
    88    32    35    1
    89   131   133    1
    90   131   128    1
    91   105   106    1
    92    31    19   am
    93   116   115   ar
    94   120   119   ar
    95    19    18    1
    96    19    20    2
    97    18    17    1
    98     4     3    2
    99   115   114    1
   100   115   117   ar
   101   119   117   ar
   102     6     5    1
   103     6     7    1
   104   114   111    1
   105    17    11   am
   106     5     2    1
   107   127   128    1
   108   127   123   am
   109   128   129    1
   110    36    35    1
   111    11    12    2
   112    11    10    1
   113     3     2    1
   114     3     9   am
   115   125   122    1
   116   125   126    1
   117   106   107    2
   118   122   123    1
   119   122   121    1
   120   153   151   am
   121     2     1    1
   122   123   124    2
   123    10     9    1
   124    10    13    1
   125   111   110    1
   126   111   112    1
   127   152   151    2
   128   151   150    1
   129   129   134   am
   130   129   130    2
   131   134   135    1
   132    16    14    1
   133    13    14    1
   134   112   113    2
   135   150   149    1
   136   138   135    1
   137   138   139    1
   138   135   136    1
   139    14    15    1
   140   139   140   ar
   141   139   141   ar
   142   149   146    1
   143   136   137    2
   144   140   142   ar
   145   141   143   ar
   146   145   146    1
   147   146   147    1
   148   142   144   ar
   149   143   144   ar
   150   147   148    2
