@<TRIPOS>MOLECULE
tmp/4ogzA02.pdb
 102 96 0 0 0
SMALL
GASTEIGER

@<TRIPOS>ATOM
      1  N         71.1290   98.8540   31.3610 N.3    22  PRO22      -0.2102
      2  CA        71.0490   99.6110   32.5760 C.3    22  PRO22       0.1504
      3  C         71.6550   98.8530   33.7420 C.2    22  PRO22       0.2576
      4  O         71.4560   97.6350   33.8500 O.2    22  PRO22      -0.2718
      5  CB        69.5020   99.8190   32.7500 C.3    22  PRO22       0.0282
      6  CG        69.0240   99.9360   31.3320 C.3    22  PRO22       0.0208
      7  CD        69.8840   98.9570   30.5660 C.3    22  PRO22       0.0893
      8  N         72.3700   99.5990   34.6040 N.am   23  PHE23      -0.1963
      9  CA        72.9970   99.1150   35.8360 C.3    23  PHE23       0.1771
     10  C         72.4890   99.8970   37.0360 C.2    23  PHE23       0.2619
     11  O         72.4750  101.1350   37.0160 O.2    23  PHE23      -0.2715
     12  CB        74.4870   99.3330   35.8110 C.3    23  PHE23       0.0574
     13  CG        75.2490   98.7190   36.9950 C.ar   23  PHE23      -0.0200
     14  CD1       75.3820   99.3880   38.2090 C.ar   23  PHE23      -0.0042
     15  CD2       75.8880   97.4820   36.8510 C.ar   23  PHE23      -0.0042
     16  CE1       76.1090   98.8130   39.2600 C.ar   23  PHE23      -0.0003
     17  CE2       76.5770   96.9000   37.8940 C.ar   23  PHE23      -0.0003
     18  CZ        76.6650   97.5450   39.1100 C.ar   23  PHE23      -0.0000
     19  N         72.1140   99.1660   38.0830 N.am   24  LEU24      -0.1977
     20  CA        71.6110   99.7290   39.3120 C.3    24  LEU24       0.1596
     21  C         72.0580   98.8710   40.5070 C.2    24  LEU24       0.2287
     22  O         71.8620   97.6420   40.5150 O.2    24  LEU24      -0.2864
     23  CB        70.0640   99.7850   39.2770 C.3    24  LEU24       0.0297
     24  CG        69.4640  100.4500   40.4980 C.3    24  LEU24       0.0022
     25  CD1       69.8180  101.9170   40.5440 C.3    24  LEU24       0.0001
     26  CD2       67.9290  100.2510   40.5070 C.3    24  LEU24       0.0001
     27  N         74.7190  103.7610   39.5860 N.3    56  LYS56      -0.1245
     28  CA        73.7810  103.7930   38.4790 C.3    56  LYS56       0.1561
     29  C         74.5440  104.0940   37.1900 C.2    56  LYS56       0.2260
     30  O         75.4790  104.8690   37.1890 O.2    56  LYS56      -0.2867
     31  CB        72.7250  104.8530   38.7900 C.3    56  LYS56       0.0271
     32  CG        71.8270  105.2580   37.6570 C.3    56  LYS56       0.0035
     33  CD        70.8050  106.3210   38.0830 C.3    56  LYS56       0.0206
     34  CE        69.6200  106.4960   37.0750 C.3    56  LYS56       0.1093
     35  NZ        68.7160  105.3250   36.7770 N.3    56  LYS56      -0.1314
     36  N         55.3640  100.4840   34.9720 N.3   158  LYS158     -0.1245
     37  CA        56.5830  101.3160   34.9300 C.3   158  LYS158      0.1561
     38  C         56.6530  102.2970   36.1150 C.2   158  LYS158      0.2260
     39  O         57.7210  102.5900   36.6770 O.2   158  LYS158     -0.2867
     40  CB        56.6520  102.1160   33.6520 C.3   158  LYS158      0.0271
     41  CG        58.0320  102.7430   33.5030 C.3   158  LYS158      0.0035
     42  CD        58.0590  103.7360   32.3900 C.3   158  LYS158      0.0206
     43  CE        59.4730  104.0930   32.0360 C.3   158  LYS158      0.1093
     44  NZ        60.2240  104.5740   33.2020 N.3   158  LYS158     -0.1314
     45  N         59.8300  102.4990   38.4100 N.3   162  ASP162     -0.1239
     46  CA        60.5570  103.7480   38.5940 C.3   162  ASP162      0.1674
     47  C         60.7710  104.0010   40.0800 C.2   162  ASP162      0.2266
     48  O         61.8760  104.3830   40.5350 O.2   162  ASP162     -0.2867
     49  CB        59.8100  104.9020   37.9430 C.3   162  ASP162      0.1410
     50  CG        59.9690  104.9270   36.4030 C.2   162  ASP162      0.3668
     51  OD1       60.7420  104.1090   35.8450 O.co2 162  ASP162     -0.2456
     52  OD2       59.2940  105.7510   35.7420 O.co2 162  ASP162     -0.2456
     53  N         63.3440  101.5250   41.4810 N.3   165  HIS165     -0.1241
     54  CA        64.7340  101.8500   41.0320 C.3   165  HIS165      0.1621
     55  C         65.2950  103.0860   41.7200 C.2   165  HIS165      0.2264
     56  O         66.4860  103.1400   42.0330 O.2   165  HIS165     -0.2867
     57  CB        64.7600  102.0560   39.5300 C.3   165  HIS165      0.0745
     58  CG        64.4460  100.8410   38.7450 C.ar  165  HIS165      0.0817
     59  ND1       63.9350  100.8940   37.4620 N.ar  165  HIS165     -0.2268
     60  CD2       64.5500   99.5380   39.0480 C.ar  165  HIS165      0.1154
     61  CE1       63.7280   99.6680   37.0200 C.ar  165  HIS165      0.1986
     62  NE2       64.0780   98.8340   37.9710 N.ar  165  HIS165     -0.2212
     63  N         64.9380   96.1580   42.5310 N.3   170  LYS170     -0.1245
     64  CA        64.6740   95.5560   41.2510 C.3   170  LYS170      0.1561
     65  C         63.2360   95.1100   41.2190 C.2   170  LYS170      0.2260
     66  O         62.6720   94.7160   42.2640 O.2   170  LYS170     -0.2867
     67  CB        65.5700   94.3510   41.0230 C.3   170  LYS170      0.0271
     68  CG        67.0790   94.6400   41.0680 C.3   170  LYS170      0.0035
     69  CD        67.5140   95.5460   39.9380 C.3   170  LYS170      0.0206
     70  CE        68.8980   96.1390   40.1740 C.3   170  LYS170      0.1093
     71  NZ        69.9330   95.0910   40.3510 N.3   170  LYS170     -0.1314
     72  N         60.7120   98.6570   32.5290 N.3   203  GLY203     -0.1225
     73  CA        61.8190   98.6220   33.4900 C.3   203  GLY203      0.1811
     74  C         61.8840   97.3840   34.3510 C.2   203  GLY203      0.2280
     75  O         62.5160   97.3890   35.4120 O.2   203  GLY203     -0.2866
     76  N         63.0480   93.9140   35.8240 N.3   205  ASP205     -0.1239
     77  CA        64.3420   93.3590   36.0490 C.3   205  ASP205      0.1674
     78  C         64.3580   91.8370   36.1940 C.2   205  ASP205      0.2266
     79  O         65.4360   91.2050   36.1470 O.2   205  ASP205     -0.2867
     80  CB        64.9020   93.9730   37.3280 C.3   205  ASP205      0.1410
     81  CG        64.9940   95.4690   37.2350 C.2   205  ASP205      0.3668
     82  OD1       65.6460   95.9770   36.2630 O.co2 205  ASP205     -0.2456
     83  OD2       64.4130   96.1460   38.1030 O.co2 205  ASP205     -0.2456
     84  N         66.7380   95.3800   25.5470 N.3   234  ASP234     -0.1225
     85  CA        67.8580   96.2720   25.9130 C.3   234  ASP234      0.1805
     86  C         68.2440   96.2420   27.4160 C.2   234  ASP234      0.2597
     87  O         68.9230   97.1320   27.8960 O.2   234  ASP234     -0.2718
     88  CB        67.5370   97.7300   25.4460 C.3   234  ASP234      0.1424
     89  CG        66.2520   98.3370   26.1150 C.2   234  ASP234      0.3668
     90  OD1       65.5880   97.6720   26.9320 O.co2 234  ASP234     -0.2456
     91  OD2       65.9070   99.5040   25.8070 O.co2 234  ASP234     -0.2456
     92  N         67.7690   95.2450   28.1560 N.am  235  ARG235     -0.1979
     93  CA        67.9720   95.1250   29.5920 C.3   235  ARG235      0.1597
     94  C         68.5170   93.7920   30.0240 C.2   235  ARG235      0.2287
     95  O         68.2870   92.7810   29.3860 O.2   235  ARG235     -0.2864
     96  CB        66.6490   95.2350   30.3800 C.3   235  ARG235      0.0334
     97  CG        66.0270   96.5600   30.3990 C.3   235  ARG235      0.0492
     98  CD        64.7260   96.5190   31.2090 C.3   235  ARG235      0.2205
     99  NE        64.8550   96.8000   32.6440 N.pl3 235  ARG235     -0.0865
    100  CZ        65.2570   97.9560   33.1670 C.cat 235  ARG235      0.5346
    101  NH1       65.6710   98.9680   32.3830 N.pl3 235  ARG235      0.1354
    102  NH2       65.3180   98.0830   34.4940 N.pl3 235  ARG235      0.1354
@<TRIPOS>BOND
     1    88    85    1
     2    88    89    1
     3    84    85    1
     4    91    89   ar
     5    85    86    1
     6    89    90   ar
     7    86    87    2
     8    86    92   am
     9    92    93    1
    10    95    94    2
    11    93    94    1
    12    93    96    1
    13    96    97    1
    14    97    98    1
    15     7     6    1
    16     7     1    1
    17    98    99    1
    18     6     5    1
    19     1     2    1
    20    43    42    1
    21    43    44    1
    22   101   100    1
    23    42    41    1
    24    72    73    1
    25     2     5    1
    26     2     3    1
    27    99   100    2
    28   100   102    1
    29    73    74    1
    30    41    40    1
    31    40    37    1
    32     3     4    2
    33     3     8   am
    34    74    75    2
    35     8     9    1
    36    37    36    1
    37    37    38    1
    38    52    50   ar
    39    12     9    1
    40    12    13    1
    41    76    77    1
    42     9    10    1
    43    51    50   ar
    44    77    78    1
    45    77    80    1
    46    38    39    2
    47    79    78    2
    48    82    81   ar
    49    50    49    1
    50    35    34    1
    51    15    13   ar
    52    15    17   ar
    53    13    14   ar
    54    11    10    2
    55    61    59   ar
    56    61    62   ar
    57    10    19   am
    58    34    33    1
    59    30    29    2
    60    29    28    1
    61    81    80    1
    62    81    83   ar
    63    59    58   ar
    64    32    33    1
    65    32    31    1
    66    17    18   ar
    67    49    46    1
    68    62    60   ar
    69    19    20    1
    70    14    16   ar
    71    45    46    1
    72    28    31    1
    73    28    27    1
    74    46    47    1
    75    58    60   ar
    76    58    57    1
    77    18    16   ar
    78    23    20    1
    79    23    24    1
    80    20    21    1
    81    57    54    1
    82    69    70    1
    83    69    68    1
    84    47    48    2
    85    70    71    1
    86    24    26    1
    87    24    25    1
    88    21    22    2
    89    67    68    1
    90    67    64    1
    91    54    53    1
    92    54    55    1
    93    65    64    1
    94    65    66    2
    95    64    63    1
    96    55    56    2
