@<TRIPOS>MOLECULE
tmp/4ogzB04.pdb
 77 71 0 0 0
SMALL
GASTEIGER

@<TRIPOS>ATOM
      1  N         59.8520  125.7550   72.2600 N.3   362  ASP362     -0.1239
      2  CA        59.7050  127.0180   72.9740 C.3   362  ASP362      0.1674
      3  C         59.3530  128.1110   71.9900 C.2   362  ASP362      0.2266
      4  O         58.4500  128.9290   72.2530 O.2   362  ASP362     -0.2867
      5  CB        60.9770  127.3870   73.7390 C.3   362  ASP362      0.1410
      6  CG        61.2810  126.4220   74.8830 C.2   362  ASP362      0.3668
      7  OD1       60.3330  125.8540   75.4790 O.co2 362  ASP362     -0.2456
      8  OD2       62.4960  126.2160   75.1770 O.co2 362  ASP362     -0.2456
      9  N         55.8310  127.4400   70.9990 N.3   365  ALA365     -0.1231
     10  CA        55.0250  127.9300   72.0930 C.3   365  ALA365      0.1694
     11  C         54.7730  129.4390   71.9970 C.2   365  ALA365      0.2591
     12  O         53.6820  129.8870   72.2620 O.2   365  ALA365     -0.2718
     13  CB        55.6690  127.5860   73.4180 C.3   365  ALA365      0.0304
     14  N         55.7600  130.2000   71.5660 N.am  366  ILE366     -0.1980
     15  CA        55.5930  131.6280   71.3400 C.3   366  ILE366      0.1595
     16  C         54.5830  131.8210   70.2160 C.2   366  ILE366      0.2287
     17  O         53.5970  132.5440   70.3890 O.2   366  ILE366     -0.2864
     18  CB        56.9620  132.2950   71.0150 C.3   366  ILE366      0.0276
     19  CG1       57.8320  132.3100   72.2620 C.3   366  ILE366      0.0022
     20  CG2       56.7910  133.7230   70.5230 C.3   366  ILE366      0.0022
     21  CD1       59.2740  132.7080   72.0180 C.3   366  ILE366      0.0001
     22  N         50.9920  131.1800   71.2520 N.3   369  ASP369     -0.1239
     23  CA        50.5040  131.8570   72.4400 C.3   369  ASP369      0.1674
     24  C         49.0790  132.2860   72.1760 C.2   369  ASP369      0.2266
     25  O         48.8220  132.9240   71.1920 O.2   369  ASP369     -0.2867
     26  CB        51.3460  133.0830   72.7710 C.3   369  ASP369      0.1410
     27  CG        50.8900  133.7550   74.0470 C.2   369  ASP369      0.3668
     28  OD1       51.3390  133.3170   75.1150 O.co2 369  ASP369     -0.2456
     29  OD2       50.0500  134.6840   73.9830 O.co2 369  ASP369     -0.2456
     30  N         53.2080  138.0330   75.8510 N.3   391  LEU391     -0.1231
     31  CA        52.6860  136.6600   76.0170 C.3   391  LEU391      0.1693
     32  C         51.5760  136.6160   77.0840 C.2   391  LEU391      0.2593
     33  O         51.4010  137.5700   77.8700 O.2   391  LEU391     -0.2718
     34  CB        53.8240  135.6730   76.3780 C.3   391  LEU391      0.0284
     35  CG        55.0170  135.6790   75.3880 C.3   391  LEU391      0.0019
     36  CD1       56.1690  134.7890   75.8210 C.3   391  LEU391      0.0001
     37  CD2       54.5990  135.2650   73.9800 C.3   391  LEU391      0.0001
     38  N         50.8520  135.5070   77.1300 N.am  392  SER392     -0.1938
     39  CA        49.5890  135.4400   77.8700 C.3   392  SER392      0.2055
     40  C         49.7720  135.3550   79.3860 C.2   392  SER392      0.2643
     41  O         48.8550  135.6530   80.1260 O.2   392  SER392     -0.2714
     42  CB        48.7460  134.2700   77.3710 C.3   392  SER392      0.2130
     43  OG        49.4580  133.0830   77.5360 O.3   392  SER392     -0.2179
     44  N         50.9510  135.0100   79.8580 N.am  393  ASP393     -0.1971
     45  CA        51.2370  135.0420   81.2790 C.3   393  ASP393      0.1709
     46  C         51.7980  136.3960   81.7330 C.2   393  ASP393      0.2293
     47  O         52.2920  136.4930   82.8310 O.2   393  ASP393     -0.2864
     48  CB        52.2410  133.9600   81.6380 C.3   393  ASP393      0.1436
     49  CG        53.5920  134.1960   80.9900 C.2   393  ASP393      0.3671
     50  OD1       53.6880  135.0760   80.1030 O.co2 393  ASP393     -0.2456
     51  OD2       54.5550  133.5320   81.3740 O.co2 393  ASP393     -0.2456
     52  N         54.5400  137.8600   80.5950 N.3   395  SER395     -0.1217
     53  CA        55.9140  138.0230   80.1350 C.3   395  SER395      0.1889
     54  C         55.9380  138.5920   78.7240 C.2   395  SER395      0.2288
     55  O         54.8720  138.7700   78.0810 O.2   395  SER395     -0.2866
     56  CB        56.6590  136.6890   80.1880 C.3   395  SER395      0.2089
     57  OG        56.1100  135.7670   79.2410 O.3   395  SER395     -0.2183
     58  N         64.9520  134.0140   79.9070 N.3   426  TYR426     -0.1241
     59  CA        65.1390  132.6570   79.4170 C.3   426  TYR426      0.1605
     60  C         65.5570  132.7160   77.9550 C.2   426  TYR426      0.2264
     61  O         64.8890  133.3450   77.1520 O.2   426  TYR426     -0.2867
     62  CB        63.8420  131.8830   79.6290 C.3   426  TYR426      0.0534
     63  CG        63.8620  130.4750   79.1380 C.ar  426  TYR426     -0.0201
     64  CD1       64.4580  129.4650   79.8830 C.ar  426  TYR426     -0.0009
     65  CD2       63.2560  130.1380   77.9380 C.ar  426  TYR426     -0.0009
     66  CE1       64.4640  128.1600   79.4380 C.ar  426  TYR426      0.0417
     67  CE2       63.2680  128.8340   77.4820 C.ar  426  TYR426      0.0417
     68  CZ        63.8670  127.8490   78.2430 C.ar  426  TYR426      0.1957
     69  OH        63.8720  126.5460   77.7820 O.3   426  TYR426     -0.2866
     70  N         62.7600  135.2070   76.6200 N.3   454  ILE454     -0.1245
     71  CA        61.4870  135.4640   77.3020 C.3   454  ILE454      0.1561
     72  C         61.7920  136.1270   78.6260 C.2   454  ILE454      0.2260
     73  O         62.5750  135.6070   79.4160 O.2   454  ILE454     -0.2867
     74  CB        60.7230  134.1710   77.4860 C.3   454  ILE454      0.0252
     75  CG1       60.2460  133.7020   76.0980 C.3   454  ILE454      0.0019
     76  CG2       59.5470  134.3600   78.4220 C.3   454  ILE454      0.0019
     77  CD1       59.5230  132.3920   76.1120 C.3   454  ILE454      0.0001
@<TRIPOS>BOND
     1    16    17    2
     2    16    15    1
     3    20    18    1
     4     9    10    1
     5    18    15    1
     6    18    19    1
     7    25    24    2
     8    22    23    1
     9    15    14    1
    10    14    11   am
    11     3     4    2
    12     3     2    1
    13    11    10    1
    14    11    12    2
    15    21    19    1
    16    10    13    1
    17    24    23    1
    18     1     2    1
    19    23    26    1
    20    26    27    1
    21     2     5    1
    22     5     6    1
    23    37    35    1
    24    29    27   ar
    25    27    28   ar
    26     6     8   ar
    27     6     7   ar
    28    35    36    1
    29    35    34    1
    30    30    31    1
    31    31    34    1
    32    31    32    1
    33    75    77    1
    34    75    74    1
    35    70    71    1
    36    32    38   am
    37    32    33    2
    38    38    39    1
    39    61    60    2
    40    71    74    1
    41    71    72    1
    42    42    43    1
    43    42    39    1
    44    67    65   ar
    45    67    68   ar
    46    74    76    1
    47    69    68    1
    48    39    40    1
    49    65    63   ar
    50    60    59    1
    51    55    54    2
    52    68    66   ar
    53    72    73    2
    54    54    53    1
    55    63    62    1
    56    63    64   ar
    57    57    56    1
    58    40    44   am
    59    40    41    2
    60    59    62    1
    61    59    58    1
    62    66    64   ar
    63    44    45    1
    64    50    49   ar
    65    53    56    1
    66    53    52    1
    67    49    51   ar
    68    49    48    1
    69    45    48    1
    70    45    46    1
    71    46    47    2
