@<TRIPOS>MOLECULE
tmp/4ogzB00.pdb
 107 103 0 0 0
SMALL
GASTEIGER

@<TRIPOS>ATOM
      1  N         60.3590  112.0910   72.2640 N.3     8  PHE8       -0.1241
      2  CA        59.7550  110.8300   72.6820 C.3     8  PHE8        0.1605
      3  C         60.4490  110.2120   73.8780 C.2     8  PHE8        0.2264
      4  O         60.5760  109.0190   73.9690 O.2     8  PHE8       -0.2867
      5  CB        59.7590  109.8710   71.4880 C.3     8  PHE8        0.0534
      6  CG        59.0050  110.4010   70.3130 C.ar    8  PHE8       -0.0203
      7  CD1       57.7000  110.7580   70.4460 C.ar    8  PHE8       -0.0042
      8  CD2       59.6170  110.5650   69.0820 C.ar    8  PHE8       -0.0042
      9  CE1       56.9910  111.2860   69.3860 C.ar    8  PHE8       -0.0003
     10  CE2       58.9080  111.0870   68.0130 C.ar    8  PHE8       -0.0003
     11  CZ        57.5830  111.4480   68.1670 C.ar    8  PHE8       -0.0000
     12  N         44.2610  116.1150   67.0000 N.3    31  TYR31      -0.1241
     13  CA        45.2130  115.2820   67.6700 C.3    31  TYR31       0.1605
     14  C         45.9080  116.1260   68.7300 C.2    31  TYR31       0.2264
     15  O         46.4150  117.2070   68.4440 O.2    31  TYR31      -0.2867
     16  CB        46.2570  114.7330   66.7060 C.3    31  TYR31       0.0534
     17  CG        47.4010  114.0510   67.4190 C.ar   31  TYR31      -0.0201
     18  CD1       47.2700  112.7680   67.9170 C.ar   31  TYR31      -0.0009
     19  CD2       48.6350  114.7020   67.5980 C.ar   31  TYR31      -0.0009
     20  CE1       48.3320  112.1300   68.5710 C.ar   31  TYR31       0.0417
     21  CE2       49.7030  114.0740   68.2410 C.ar   31  TYR31       0.0417
     22  CZ        49.5310  112.7830   68.7410 C.ar   31  TYR31       0.1957
     23  OH        50.5640  112.1380   69.3530 O.3    31  TYR31      -0.2866
     24  N         56.7840  106.7020   74.5830 N.3    38  ARG38      -0.1245
     25  CA        55.6750  105.8910   74.1660 C.3    38  ARG38       0.1563
     26  C         55.7620  104.4910   74.7690 C.2    38  ARG38       0.2260
     27  O         56.8390  104.0320   75.1020 O.2    38  ARG38      -0.2867
     28  CB        55.6700  105.7660   72.6470 C.3    38  ARG38       0.0307
     29  CG        54.8150  106.7850   71.9430 C.3    38  ARG38       0.0489
     30  CD        55.0550  108.2140   72.3700 C.3    38  ARG38       0.2205
     31  NE        54.0850  109.0810   71.6930 N.pl3  38  ARG38      -0.0865
     32  CZ        54.0130  110.3980   71.8350 C.cat  38  ARG38       0.5346
     33  NH1       54.8720  111.0560   72.6330 N.pl3  38  ARG38       0.1354
     34  NH2       53.0830  111.0540   71.1660 N.pl3  38  ARG38       0.1354
     35  N         51.7770  106.0790   75.0150 N.3    40  ILE40      -0.1245
     36  CA        50.9790  107.0400   75.7700 C.3    40  ILE40       0.1561
     37  C         49.4850  106.6930   75.6860 C.2    40  ILE40       0.2260
     38  O         49.0130  106.2190   74.6740 O.2    40  ILE40      -0.2867
     39  CB        51.2570  108.4610   75.2400 C.3    40  ILE40       0.0252
     40  CG1       52.6390  108.9030   75.7510 C.3    40  ILE40       0.0019
     41  CG2       50.1900  109.4720   75.6310 C.3    40  ILE40       0.0019
     42  CD1       53.0820  110.2440   75.2790 C.3    40  ILE40       0.0001
     43  N         45.6130  108.6490   76.5830 N.3    42  TRP42      -0.1241
     44  CA        45.0640  109.9450   76.7980 C.3    42  TRP42       0.1605
     45  C         43.7290  109.8370   77.4790 C.2    42  TRP42       0.2264
     46  O         43.0320  108.8270   77.3480 O.2    42  TRP42      -0.2867
     47  CB        44.8580  110.6530   75.4870 C.3    42  TRP42       0.0550
     48  CG        46.0620  111.1940   74.8730 C.ar   42  TRP42       0.0003
     49  CD1       46.5720  112.4580   75.0310 C.ar   42  TRP42       0.0946
     50  CD2       46.9140  110.5240   73.9510 C.ar   42  TRP42       0.0152
     51  NE1       47.6670  112.6100   74.2610 N.ar   42  TRP42      -0.2442
     52  CE2       47.9040  111.4450   73.5720 C.ar   42  TRP42       0.0810
     53  CE3       46.9040  109.2430   73.3710 C.ar   42  TRP42       0.0012
     54  CZ2       48.8960  111.1250   72.6580 C.ar   42  TRP42       0.0191
     55  CZ3       47.8930  108.9170   72.4750 C.ar   42  TRP42       0.0001
     56  CH2       48.8820  109.8580   72.1190 C.ar   42  TRP42       0.0015
     57  N         43.6810  105.6080   72.7670 N.3    56  GLU56      -0.1231
     58  CA        44.8760  104.9920   72.2650 C.3    56  GLU56       0.1699
     59  C         45.5630  105.8410   71.2080 C.2    56  GLU56       0.2592
     60  O         46.7470  105.7060   71.0500 O.2    56  GLU56      -0.2718
     61  CB        44.5750  103.5740   71.7300 C.3    56  GLU56       0.0402
     62  CG        44.7320  102.5290   72.8460 C.3    56  GLU56       0.1161
     63  CD        44.0610  101.1980   72.5700 C.2    56  GLU56       0.3649
     64  OE1       44.1050  100.7580   71.3930 O.co2  56  GLU56      -0.2457
     65  OE2       43.5140  100.5920   73.5370 O.co2  56  GLU56      -0.2457
     66  N         44.8550  106.7260   70.5150 N.am   57  THR57      -0.1953
     67  CA        45.4930  107.5080   69.4750 C.3    57  THR57       0.1897
     68  C         45.6260  108.9730   69.7880 C.2    57  THR57       0.2313
     69  O         46.3410  109.6760   69.0760 O.2    57  THR57      -0.2863
     70  CB        44.7410  107.3730   68.1380 C.3    57  THR57       0.1794
     71  OG1       43.4360  107.9540   68.2560 O.3    57  THR57      -0.2208
     72  CG2       44.6230  105.9130   67.7670 C.3    57  THR57       0.0378
     73  N         54.1140  111.9990   61.9600 N.3   123  VAL123     -0.1231
     74  CA        53.7240  111.1440   63.0750 C.3   123  VAL123      0.1692
     75  C         54.9440  110.6960   63.8530 C.2   123  VAL123      0.2591
     76  O         54.9690  110.7700   65.0720 O.2   123  VAL123     -0.2718
     77  CB        52.9520  109.9230   62.5590 C.3   123  VAL123      0.0266
     78  CG1       52.9260  108.8090   63.5880 C.3   123  VAL123      0.0020
     79  CG2       51.5580  110.3500   62.1660 C.3   123  VAL123      0.0020
     80  N         55.9880  110.3150   63.1280 N.am  124  GLU124     -0.1979
     81  CA        57.1090  109.6220   63.7240 C.3   124  GLU124      0.1602
     82  C         58.2470  110.5290   64.1170 C.2   124  GLU124      0.2287
     83  O         59.0820  110.1210   64.9080 O.2   124  GLU124     -0.2864
     84  CB        57.6480  108.5630   62.7410 C.3   124  GLU124      0.0415
     85  CG        56.7070  107.3890   62.4670 C.3   124  GLU124      0.1163
     86  CD        57.0290  106.6750   61.1500 C.2   124  GLU124      0.3649
     87  OE1       58.2080  106.7060   60.6970 O.co2 124  GLU124     -0.2457
     88  OE2       56.1000  106.0660   60.5520 O.co2 124  GLU124     -0.2457
     89  N         54.1730  116.2430   64.5080 N.3   127  ARG127     -0.1231
     90  CA        52.7650  116.1330   64.9300 C.3   127  ARG127      0.1694
     91  C         52.6130  116.4310   66.4310 C.2   127  ARG127      0.2592
     92  O         51.6240  117.0470   66.8680 O.2   127  ARG127     -0.2718
     93  CB        52.1840  114.7520   64.6150 C.3   127  ARG127      0.0321
     94  CG        50.7020  114.6500   64.8360 C.3   127  ARG127      0.0489
     95  CD        50.1170  113.3080   64.4130 C.3   127  ARG127      0.2205
     96  NE        50.5380  112.2230   65.2940 N.pl3 127  ARG127     -0.0865
     97  CZ        49.8090  111.1450   65.5620 C.cat 127  ARG127      0.5346
     98  NH1       48.6130  110.9610   64.9910 N.pl3 127  ARG127      0.1354
     99  NH2       50.2860  110.2380   66.3840 N.pl3 127  ARG127      0.1354
    100  N         53.5990  116.0100   67.2190 N.am  128  ASP128     -0.1974
    101  CA        53.5290  116.2250   68.6690 C.3   128  ASP128      0.1709
    102  C         53.9380  117.6440   69.1160 C.2   128  ASP128      0.2293
    103  O         53.7640  117.9890   70.2980 O.2   128  ASP128     -0.2864
    104  CB        54.3280  115.1310   69.3910 C.3   128  ASP128      0.1436
    105  CG        53.6300  113.8020   69.2770 C.2   128  ASP128      0.3671
    106  OD1       52.4900  113.7450   69.7680 O.co2 128  ASP128     -0.2456
    107  OD2       54.1510  112.8620   68.6500 O.co2 128  ASP128     -0.2456
@<TRIPOS>BOND
     1    88    86   ar
     2    87    86   ar
     3    86    85    1
     4    73    74    1
     5    79    77    1
     6    85    84    1
     7    77    74    1
     8    77    78    1
     9    84    81    1
    10    74    75    1
    11    80    81    1
    12    80    75   am
    13    81    82    1
    14    75    76    2
    15    82    83    2
    16    95    94    1
    17    95    96    1
    18    89    90    1
    19    93    94    1
    20    93    90    1
    21    90    91    1
    22    98    97    1
    23    96    97    2
    24    97    99    1
    25    91    92    2
    26    91   100   am
    27    16    17    1
    28    16    13    1
    29    12    13    1
    30   100   101    1
    31    17    19   ar
    32    17    18   ar
    33    19    21   ar
    34    13    14    1
    35    72    70    1
    36    18    20   ar
    37    10    11   ar
    38    10     8   ar
    39    70    71    1
    40    70    67    1
    41    11     9   ar
    42    21    22   ar
    43    15    14    2
    44    20    22   ar
    45   107   105   ar
    46   101   102    1
    47   101   104    1
    48    22    23    1
    49    69    68    2
    50     8     6   ar
    51   102   103    2
    52   105   104    1
    53   105   106   ar
    54     9     7   ar
    55    67    68    1
    56    67    66    1
    57     6     7   ar
    58     6     5    1
    59    66    59   am
    60    60    59    2
    61    34    32    1
    62    59    58    1
    63    64    63   ar
    64     5     2    1
    65    31    32    2
    66    31    30    1
    67    61    58    1
    68    61    62    1
    69    32    33    1
    70    29    30    1
    71    29    28    1
    72    56    55   ar
    73    56    54   ar
    74     1     2    1
    75    58    57    1
    76    55    53   ar
    77    63    62    1
    78    63    65   ar
    79    28    25    1
    80    54    52   ar
    81     2     3    1
    82    53    50   ar
    83    52    50   ar
    84    52    51   ar
    85     3     4    2
    86    50    48   ar
    87    25    24    1
    88    25    26    1
    89    51    49   ar
    90    38    37    2
    91    26    27    2
    92    48    49   ar
    93    48    47    1
    94    35    36    1
    95    39    41    1
    96    39    40    1
    97    39    36    1
    98    42    40    1
    99    47    44    1
   100    37    36    1
   101    43    44    1
   102    44    45    1
   103    46    45    2
