@<TRIPOS>MOLECULE
tmp/4ogzA00.pdb
 151 146 0 0 0
SMALL
GASTEIGER

@<TRIPOS>ATOM
      1  N         75.9380   91.6690   48.7960 N.3    12  PRO12      -0.2116
      2  CA        76.9440   91.0370   47.9360 C.3    12  PRO12       0.1372
      3  C         78.1210   91.9500   47.5740 C.2    12  PRO12       0.2244
      4  O         77.9340   93.1770   47.3660 O.2    12  PRO12      -0.2868
      5  CB        76.1590   90.7150   46.6720 C.3    12  PRO12       0.0268
      6  CG        75.0450   91.7200   46.6450 C.3    12  PRO12       0.0207
      7  CD        74.7070   92.0380   48.0610 C.3    12  PRO12       0.0892
      8  N         78.7750   91.5080   41.7920 N.3    15  VAL15      -0.1231
      9  CA        77.5340   91.6950   41.0770 C.3    15  VAL15       0.1692
     10  C         77.8030   91.5840   39.5880 C.2    15  VAL15       0.2593
     11  O         78.8590   91.9930   39.1090 O.2    15  VAL15      -0.2718
     12  CB        76.8840   93.0490   41.4030 C.3    15  VAL15       0.0266
     13  CG1       76.6600   93.1550   42.8800 C.3    15  VAL15       0.0020
     14  CG2       77.7590   94.1950   40.9420 C.3    15  VAL15       0.0020
     15  N         76.8830   90.9670   38.8590 N.am   16  GLY16      -0.1942
     16  CA        77.0210   90.8150   37.4270 C.3    16  GLY16       0.2014
     17  C         75.8830   91.5140   36.7080 C.2    16  GLY16       0.2638
     18  O         74.7740   91.6720   37.2590 O.2    16  GLY16      -0.2714
     19  N         76.1750   91.9640   35.4990 N.am   17  ASN17      -0.1972
     20  CA        75.2080   92.5900   34.6350 C.3    17  ASN17       0.1688
     21  C         75.6260   92.3980   33.1990 C.2    17  ASN17       0.2292
     22  O         76.8490   92.3360   32.9180 O.2    17  ASN17      -0.2864
     23  CB        75.1140   94.0910   34.9780 C.3    17  ASN17       0.1181
     24  CG        73.8250   94.7330   34.4790 C.2    17  ASN17       0.2629
     25  OD1       72.7600   94.1860   34.6440 O.2    17  ASN17      -0.2716
     26  ND2       73.9390   95.9160   33.8640 N.am   17  ASN17      -0.0877
     27  N         71.1290   98.8540   31.3610 N.3    22  PRO22      -0.2102
     28  CA        71.0490   99.6110   32.5760 C.3    22  PRO22       0.1504
     29  C         71.6550   98.8530   33.7420 C.2    22  PRO22       0.2576
     30  O         71.4560   97.6350   33.8500 O.2    22  PRO22      -0.2718
     31  CB        69.5020   99.8190   32.7500 C.3    22  PRO22       0.0282
     32  CG        69.0240   99.9360   31.3320 C.3    22  PRO22       0.0208
     33  CD        69.8840   98.9570   30.5660 C.3    22  PRO22       0.0893
     34  N         72.3700   99.5990   34.6040 N.am   23  PHE23      -0.1963
     35  CA        72.9970   99.1150   35.8360 C.3    23  PHE23       0.1771
     36  C         72.4890   99.8970   37.0360 C.2    23  PHE23       0.2619
     37  O         72.4750  101.1350   37.0160 O.2    23  PHE23      -0.2715
     38  CB        74.4870   99.3330   35.8110 C.3    23  PHE23       0.0574
     39  CG        75.2490   98.7190   36.9950 C.ar   23  PHE23      -0.0200
     40  CD1       75.3820   99.3880   38.2090 C.ar   23  PHE23      -0.0042
     41  CD2       75.8880   97.4820   36.8510 C.ar   23  PHE23      -0.0042
     42  CE1       76.1090   98.8130   39.2600 C.ar   23  PHE23      -0.0003
     43  CE2       76.5770   96.9000   37.8940 C.ar   23  PHE23      -0.0003
     44  CZ        76.6650   97.5450   39.1100 C.ar   23  PHE23      -0.0000
     45  N         72.1140   99.1660   38.0830 N.am   24  LEU24      -0.1963
     46  CA        71.6110   99.7290   39.3120 C.3    24  LEU24       0.1728
     47  C         72.0580   98.8710   40.5070 C.2    24  LEU24       0.2616
     48  O         71.8620   97.6420   40.5150 O.2    24  LEU24      -0.2715
     49  CB        70.0640   99.7850   39.2770 C.3    24  LEU24       0.0311
     50  CG        69.4640  100.4500   40.4980 C.3    24  LEU24       0.0022
     51  CD1       69.8180  101.9170   40.5440 C.3    24  LEU24       0.0001
     52  CD2       67.9290  100.2510   40.5070 C.3    24  LEU24       0.0001
     53  N         72.6420   99.5000   41.5230 N.am   25  PHE25      -0.1974
     54  CA        73.0260   98.7870   42.7590 C.3    25  PHE25       0.1639
     55  C         73.0760   99.7280   43.9500 C.2    25  PHE25       0.2290
     56  O         73.7880  100.7460   43.9390 O.2    25  PHE25      -0.2864
     57  CB        74.3680   98.0870   42.5830 C.3    25  PHE25       0.0560
     58  CG        74.7780   97.2400   43.7700 C.ar   25  PHE25      -0.0200
     59  CD1       74.1300   96.0540   44.0610 C.ar   25  PHE25      -0.0042
     60  CD2       75.8030   97.6410   44.5860 C.ar   25  PHE25      -0.0042
     61  CE1       74.4960   95.2910   45.1720 C.ar   25  PHE25      -0.0003
     62  CE2       76.1860   96.8810   45.6830 C.ar   25  PHE25      -0.0003
     63  CZ        75.5480   95.6890   45.9750 C.ar   25  PHE25      -0.0000
     64  N         74.0920   86.8130   35.0700 N.3    89  LEU89      -0.1231
     65  CA        73.3960   87.5480   36.1160 C.3    89  LEU89       0.1693
     66  C         73.3670   86.7090   37.4070 C.2    89  LEU89       0.2591
     67  O         73.5550   85.4970   37.3900 O.2    89  LEU89      -0.2718
     68  CB        72.0020   87.9160   35.6520 C.3    89  LEU89       0.0284
     69  CG        71.8420   88.6640   34.3430 C.3    89  LEU89       0.0019
     70  CD1       70.3780   88.9630   34.1190 C.3    89  LEU89       0.0001
     71  CD2       72.6760   89.9620   34.2770 C.3    89  LEU89       0.0001
     72  N         73.0960   87.3600   38.5320 N.am   90  LEU90      -0.1980
     73  CA        72.9580   86.6850   39.8210 C.3    90  LEU90       0.1596
     74  C         74.2120   85.9030   40.2140 C.2    90  LEU90       0.2287
     75  O         74.1740   84.6820   40.4200 O.2    90  LEU90      -0.2864
     76  CB        71.7430   85.7640   39.8140 C.3    90  LEU90       0.0297
     77  CG        70.4410   86.4150   39.4260 C.3    90  LEU90       0.0022
     78  CD1       69.2730   85.4470   39.6760 C.3    90  LEU90       0.0001
     79  CD2       70.2450   87.7140   40.2000 C.3    90  LEU90       0.0001
     80  N         75.5030   86.1020   42.9610 N.3    92  THR92      -0.1218
     81  CA        75.0690   85.5860   44.2320 C.3    92  THR92       0.1862
     82  C         73.5590   85.3310   44.1330 C.2    92  THR92       0.2287
     83  O         72.9100   85.8690   43.2530 O.2    92  THR92      -0.2866
     84  CB        75.3990   86.5760   45.3730 C.3    92  THR92       0.1770
     85  OG1       74.6270   87.7820   45.2400 O.3    92  THR92      -0.2211
     86  CG2       76.9320   86.9430   45.3360 C.3    92  THR92       0.0375
     87  N         69.6760   85.7460   44.3440 N.3    94  PRO94      -0.2116
     88  CA        68.8040   86.8670   44.4690 C.3    94  PRO94       0.1372
     89  C         68.1410   86.8770   45.8360 C.2    94  PRO94       0.2244
     90  O         67.7760   85.8220   46.3310 O.2    94  PRO94      -0.2868
     91  CB        67.7460   86.6280   43.3630 C.3    94  PRO94       0.0268
     92  CG        67.6920   85.1670   43.1990 C.3    94  PRO94       0.0207
     93  CD        69.0960   84.6920   43.4840 C.3    94  PRO94       0.0892
     94  N         66.8370   93.0290   47.5950 N.3   127  ALA127     -0.1231
     95  CA        66.6810   94.0090   46.5350 C.3   127  ALA127      0.1694
     96  C         65.5250   93.7710   45.5730 C.2   127  ALA127      0.2592
     97  O         65.0460   94.7190   44.9580 O.2   127  ALA127     -0.2718
     98  CB        68.0130   94.0480   45.7170 C.3   127  ALA127      0.0304
     99  N         65.2170   92.5100   45.2720 N.am  128  TYR128     -0.1976
    100  CA        64.2030   92.1850   44.2590 C.3   128  TYR128      0.1639
    101  C         62.8400   92.2890   44.8950 C.2   128  TYR128      0.2290
    102  O         62.5820   91.6680   45.9200 O.2   128  TYR128     -0.2864
    103  CB        64.3880   90.7850   43.6270 C.3   128  TYR128      0.0560
    104  CG        65.5460   90.7470   42.6480 C.ar  128  TYR128     -0.0198
    105  CD1       66.8600   90.5680   43.1000 C.ar  128  TYR128     -0.0009
    106  CD2       65.3490   90.9580   41.3140 C.ar  128  TYR128     -0.0009
    107  CE1       67.9270   90.6070   42.2280 C.ar  128  TYR128      0.0417
    108  CE2       66.4070   91.0210   40.4430 C.ar  128  TYR128      0.0417
    109  CZ        67.6990   90.8350   40.8950 C.ar  128  TYR128      0.1957
    110  OH        68.7520   90.8540   39.9700 O.3   128  TYR128     -0.2866
    111  N         64.9380   96.1580   42.5310 N.3   170  LYS170     -0.1245
    112  CA        64.6740   95.5560   41.2510 C.3   170  LYS170      0.1561
    113  C         63.2360   95.1100   41.2190 C.2   170  LYS170      0.2260
    114  O         62.6720   94.7160   42.2640 O.2   170  LYS170     -0.2867
    115  CB        65.5700   94.3510   41.0230 C.3   170  LYS170      0.0271
    116  CG        67.0790   94.6400   41.0680 C.3   170  LYS170      0.0035
    117  CD        67.5140   95.5460   39.9380 C.3   170  LYS170      0.0206
    118  CE        68.8980   96.1390   40.1740 C.3   170  LYS170      0.1093
    119  NZ        69.9330   95.0910   40.3510 N.3   170  LYS170     -0.1314
    120  N         63.0480   93.9140   35.8240 N.3   205  ASP205     -0.1239
    121  CA        64.3420   93.3590   36.0490 C.3   205  ASP205      0.1674
    122  C         64.3580   91.8370   36.1940 C.2   205  ASP205      0.2266
    123  O         65.4360   91.2050   36.1470 O.2   205  ASP205     -0.2867
    124  CB        64.9020   93.9730   37.3280 C.3   205  ASP205      0.1410
    125  CG        64.9940   95.4690   37.2350 C.2   205  ASP205      0.3668
    126  OD1       65.6460   95.9770   36.2630 O.co2 205  ASP205     -0.2456
    127  OD2       64.4130   96.1460   38.1030 O.co2 205  ASP205     -0.2456
    128  N         67.7690   95.2450   28.1560 N.3   235  ARG235     -0.1231
    129  CA        67.9720   95.1250   29.5920 C.3   235  ARG235      0.1694
    130  C         68.5170   93.7920   30.0240 C.2   235  ARG235      0.2592
    131  O         68.2870   92.7810   29.3860 O.2   235  ARG235     -0.2718
    132  CB        66.6490   95.2350   30.3800 C.3   235  ARG235      0.0321
    133  CG        66.0270   96.5600   30.3990 C.3   235  ARG235      0.0489
    134  CD        64.7260   96.5190   31.2090 C.3   235  ARG235      0.2205
    135  NE        64.8550   96.8000   32.6440 N.pl3 235  ARG235     -0.0865
    136  CZ        65.2570   97.9560   33.1670 C.cat 235  ARG235      0.5346
    137  NH1       65.6710   98.9680   32.3830 N.pl3 235  ARG235      0.1354
    138  NH2       65.3180   98.0830   34.4940 N.pl3 235  ARG235      0.1354
    139  N         69.1490   93.7930   31.1810 N.am  236  SER236     -0.1952
    140  CA        69.4800   92.5640   31.8820 C.3   236  SER236      0.1924
    141  C         68.2530   92.0970   32.6860 C.2   236  SER236      0.2314
    142  O         67.9910   92.6200   33.7630 O.2   236  SER236     -0.2863
    143  CB        70.6780   92.8110   32.8090 C.3   236  SER236      0.2116
    144  OG        71.8360   93.0430   32.0110 O.3   236  SER236     -0.2180
    145  N         66.4500   89.0010   34.6480 N.3   238  VAL238     -0.1245
    146  CA        66.5890   87.7000   35.2800 C.3   238  VAL238      0.1561
    147  C         65.4550   86.7990   34.8200 C.2   238  VAL238      0.2260
    148  O         64.2630   87.1890   34.8060 O.2   238  VAL238     -0.2867
    149  CB        66.6130   87.8130   36.8290 C.3   238  VAL238      0.0252
    150  CG1       66.5360   86.4510   37.4980 C.3   238  VAL238      0.0019
    151  CG2       67.8570   88.5570   37.2870 C.3   238  VAL238      0.0019
@<TRIPOS>BOND
     1   128   129    1
     2   131   130    2
     3   129   130    1
     4   129   132    1
     5   130   139   am
     6   132   133    1
     7   133   134    1
     8    33    32    1
     9    33    27    1
    10   139   140    1
    11   134   135    1
    12    32    31    1
    13    27    28    1
    14   140   141    1
    15   140   143    1
    16   144   143    1
    17   137   136    1
    18    28    31    1
    19    28    29    1
    20   135   136    2
    21   141   142    2
    22    22    21    2
    23   136   138    1
    24    21    20    1
    25    29    30    2
    26    29    34   am
    27    26    24   am
    28    70    69    1
    29    71    69    1
    30    69    68    1
    31    24    25    2
    32    24    23    1
    33    34    35    1
    34    20    23    1
    35    20    19    1
    36   145   146    1
    37   148   147    2
    38   147   146    1
    39    64    65    1
    40   146   149    1
    41    19    17   am
    42    68    65    1
    43    38    35    1
    44    38    39    1
    45   120   121    1
    46    35    36    1
    47   121   122    1
    48   121   124    1
    49    65    66    1
    50   123   122    2
    51   126   125   ar
    52    17    18    2
    53    17    16    1
    54   149   151    1
    55   149   150    1
    56    41    39   ar
    57    41    43   ar
    58    39    40   ar
    59    37    36    2
    60    36    45   am
    61   125   124    1
    62   125   127   ar
    63    67    66    2
    64    66    72   am
    65    16    15    1
    66    43    44   ar
    67    45    46    1
    68    40    42   ar
    69    72    73    1
    70    15    10   am
    71    11    10    2
    72    44    42   ar
    73    49    46    1
    74    49    50    1
    75    46    47    1
    76    77    78    1
    77    77    76    1
    78    77    79    1
    79    10     9    1
    80    76    73    1
    81    73    74    1
    82   117   118    1
    83   117   116    1
    84   110   109    1
    85   118   119    1
    86    74    75    2
    87   108   109   ar
    88   108   106   ar
    89    50    52    1
    90    50    51    1
    91    47    48    2
    92    47    53   am
    93   109   107   ar
    94    14    12    1
    95   115   116    1
    96   115   112    1
    97     9    12    1
    98     9     8    1
    99   113   112    1
   100   113   114    2
   101   112   111    1
   102   106   104   ar
   103    12    13    1
   104    53    54    1
   105   107   105   ar
   106    57    54    1
   107    57    58    1
   108   104   105   ar
   109   104   103    1
   110    54    55    1
   111    80    81    1
   112    92    91    1
   113    92    93    1
   114    83    82    2
   115    91    88    1
   116    93    87    1
   117   103   100    1
   118    58    59   ar
   119    58    60   ar
   120    56    55    2
   121    59    61   ar
   122    82    81    1
   123    81    84    1
   124   100   101    1
   125   100    99    1
   126    87    88    1
   127    88    89    1
   128    60    62   ar
   129   101   102    2
   130    97    96    2
   131    61    63   ar
   132    85    84    1
   133    99    96   am
   134    86    84    1
   135    96    95    1
   136    62    63   ar
   137    98    95    1
   138    89    90    2
   139    95    94    1
   140     6     5    1
   141     6     7    1
   142     5     2    1
   143     4     3    2
   144     3     2    1
   145     2     1    1
   146     7     1    1
