@<TRIPOS>MOLECULE
tmp/4ogzB01.pdb
 114 111 0 0 0
SMALL
GASTEIGER

@<TRIPOS>ATOM
      1  N         48.6650  123.7230   70.4720 N.3    17  PRO17      -0.2116
      2  CA        47.7580  124.7550   70.9570 C.3    17  PRO17       0.1372
      3  C         46.8540  124.2610   72.0690 C.2    17  PRO17       0.2244
      4  O         46.3710  123.1060   72.0300 O.2    17  PRO17      -0.2868
      5  CB        46.9020  125.1050   69.7230 C.3    17  PRO17       0.0268
      6  CG        46.9380  123.8820   68.8680 C.3    17  PRO17       0.0207
      7  CD        48.2740  123.2080   69.1500 C.3    17  PRO17       0.0892
      8  N         41.5030  125.9490   70.5270 N.3    20  VAL20      -0.1231
      9  CA        41.1660  125.5930   69.1680 C.3    20  VAL20       0.1692
     10  C         39.7310  126.0620   68.8680 C.2    20  VAL20       0.2593
     11  O         38.8740  126.0300   69.7310 O.2    20  VAL20      -0.2718
     12  CB        41.2830  124.0800   68.9250 C.3    20  VAL20       0.0266
     13  CG1       42.6660  123.6240   69.2640 C.3    20  VAL20       0.0020
     14  CG2       40.2770  123.3080   69.7560 C.3    20  VAL20       0.0020
     15  N         39.4890  126.5020   67.6390 N.am   21  GLY21      -0.1942
     16  CA        38.1450  126.9270   67.2340 C.3    21  GLY21       0.2014
     17  C         37.6500  126.0970   66.0890 C.2    21  GLY21       0.2638
     18  O         38.4390  125.6030   65.2890 O.2    21  GLY21      -0.2714
     19  N         36.3380  125.9290   66.0020 N.am   22  ASN22      -0.1972
     20  CA        35.7130  125.2650   64.8900 C.3    22  ASN22       0.1688
     21  C         34.3270  125.8230   64.7130 C.2    22  ASN22       0.2292
     22  O         33.7300  126.2930   65.7060 O.2    22  ASN22      -0.2864
     23  CB        35.6590  123.7700   65.1840 C.3    22  ASN22       0.1181
     24  CG        35.4420  122.9130   63.9490 C.2    22  ASN22       0.2629
     25  OD1       36.1000  123.0820   62.9120 O.2    22  ASN22      -0.2716
     26  ND2       34.5180  121.9780   64.0460 N.am   22  ASN22      -0.0877
     27  N         32.3880  118.7940   61.0440 N.3    27  PRO27      -0.2102
     28  CA        33.3650  117.8520   61.5230 C.3    27  PRO27       0.1504
     29  C         34.4760  118.5390   62.3120 C.2    27  PRO27       0.2576
     30  O         34.9240  119.6290   61.9460 O.2    27  PRO27      -0.2718
     31  CB        33.8910  117.2190   60.2360 C.3    27  PRO27       0.0282
     32  CG        32.6760  117.2220   59.3260 C.3    27  PRO27       0.0208
     33  CD        31.9880  118.5030   59.6590 C.3    27  PRO27       0.0893
     34  N         34.8330  117.9070   63.4280 N.am   28  PHE28      -0.1963
     35  CA        35.8650  118.3520   64.3430 C.3    28  PHE28       0.1771
     36  C         36.9070  117.2680   64.4060 C.2    28  PHE28       0.2619
     37  O         36.5770  116.1060   64.6200 O.2    28  PHE28      -0.2715
     38  CB        35.3060  118.5350   65.7430 C.3    28  PHE28       0.0574
     39  CG        36.3060  119.1130   66.7500 C.ar   28  PHE28      -0.0200
     40  CD1       37.1950  118.2900   67.4120 C.ar   28  PHE28      -0.0042
     41  CD2       36.2900  120.4740   67.0790 C.ar   28  PHE28      -0.0042
     42  CE1       38.0640  118.8200   68.3590 C.ar   28  PHE28      -0.0003
     43  CE2       37.1570  121.0020   68.0070 C.ar   28  PHE28      -0.0003
     44  CZ        38.0430  120.1840   68.6560 C.ar   28  PHE28      -0.0000
     45  N         38.1610  117.6560   64.2600 N.am   29  LEU29      -0.1963
     46  CA        39.2810  116.7380   64.3520 C.3    29  LEU29       0.1728
     47  C         40.4600  117.4190   65.0640 C.2    29  LEU29       0.2616
     48  O         40.8490  118.5000   64.6720 O.2    29  LEU29      -0.2715
     49  CB        39.6770  116.2770   62.9510 C.3    29  LEU29       0.0311
     50  CG        40.7870  115.2300   62.9470 C.3    29  LEU29       0.0022
     51  CD1       40.2900  113.9400   63.5790 C.3    29  LEU29       0.0001
     52  CD2       41.2990  114.9800   61.5420 C.3    29  LEU29       0.0001
     53  N         41.0120  116.8020   66.1280 N.am   30  PHE30      -0.1974
     54  CA        42.1950  117.3430   66.7790 C.3    30  PHE30       0.1639
     55  C         43.0120  116.2380   67.4380 C.2    30  PHE30       0.2290
     56  O         42.5040  115.4780   68.2550 O.2    30  PHE30      -0.2864
     57  CB        41.8220  118.3890   67.7990 C.3    30  PHE30       0.0560
     58  CG        42.9850  119.0390   68.4820 C.ar   30  PHE30      -0.0200
     59  CD1       43.7990  119.9330   67.7900 C.ar   30  PHE30      -0.0042
     60  CD2       43.2690  118.8030   69.8070 C.ar   30  PHE30      -0.0042
     61  CE1       44.8720  120.5600   68.4250 C.ar   30  PHE30      -0.0003
     62  CE2       44.3250  119.4380   70.4600 C.ar   30  PHE30      -0.0003
     63  CZ        45.1490  120.3230   69.7640 C.ar   30  PHE30      -0.0000
     64  N         37.9690  130.3610   62.9810 N.3    94  LEU94      -0.1231
     65  CA        38.9330  129.2880   62.8560 C.3    94  LEU94       0.1693
     66  C         40.3790  129.8400   63.0850 C.2    94  LEU94       0.2591
     67  O         40.6070  131.0530   63.0310 O.2    94  LEU94      -0.2718
     68  CB        38.8340  128.6320   61.4820 C.3    94  LEU94       0.0284
     69  CG        37.4980  128.1260   60.9660 C.3    94  LEU94       0.0019
     70  CD1       37.6730  127.4970   59.5870 C.3    94  LEU94       0.0001
     71  CD2       36.8150  127.1260   61.9440 C.3    94  LEU94       0.0001
     72  N         41.3160  128.9420   63.3780 N.am   95  LEU95      -0.1980
     73  CA        42.7100  129.3040   63.6250 C.3    95  LEU95       0.1596
     74  C         42.9020  130.3320   64.7650 C.2    95  LEU95       0.2287
     75  O         43.4020  131.4200   64.5510 O.2    95  LEU95      -0.2864
     76  CB        43.3170  129.8220   62.3340 C.3    95  LEU95       0.0297
     77  CG        43.1670  128.9290   61.1120 C.3    95  LEU95       0.0022
     78  CD1       44.0080  129.5020   59.9710 C.3    95  LEU95       0.0001
     79  CD2       43.5530  127.4990   61.4570 C.3    95  LEU95       0.0001
     80  N         48.4920  120.7140   59.4680 N.3   133  TYR133     -0.1241
     81  CA        47.9950  120.9220   58.1010 C.3   133  TYR133      0.1605
     82  C         48.9520  120.3470   57.1150 C.2   133  TYR133      0.2264
     83  O         50.1400  120.6930   57.1410 O.2   133  TYR133     -0.2867
     84  CB        47.7420  122.4280   57.7990 C.3   133  TYR133      0.0534
     85  CG        46.5060  122.9220   58.5060 C.ar  133  TYR133     -0.0201
     86  CD1       46.5590  123.3720   59.8470 C.ar  133  TYR133     -0.0009
     87  CD2       45.2710  122.9020   57.8810 C.ar  133  TYR133     -0.0009
     88  CE1       45.3890  123.7960   60.5380 C.ar  133  TYR133      0.0417
     89  CE2       44.1180  123.3070   58.5570 C.ar  133  TYR133      0.0417
     90  CZ        44.1800  123.7700   59.8780 C.ar  133  TYR133      0.1957
     91  OH        42.9820  124.1830   60.5430 O.3   133  TYR133     -0.2866
     92  N         45.1390  117.6570   58.8810 N.3   175  LYS175     -0.1245
     93  CA        44.1760  118.3880   58.0570 C.3   175  LYS175      0.1561
     94  C         44.7010  118.4050   56.6550 C.2   175  LYS175      0.2260
     95  O         45.9590  118.4380   56.4470 O.2   175  LYS175     -0.2867
     96  CB        43.9980  119.8240   58.5520 C.3   175  LYS175      0.0271
     97  CG        43.5380  119.9620   59.9950 C.3   175  LYS175      0.0035
     98  CD        42.1290  119.4370   60.1540 C.3   175  LYS175      0.0206
     99  CE        41.7840  119.2160   61.6070 C.3   175  LYS175      0.1093
    100  NZ        41.9110  120.4480   62.4200 N.3   175  LYS175     -0.1314
    101  N         40.1690  120.5610   54.2750 N.3   210  ASP210     -0.1239
    102  CA        40.0950  121.3880   55.4810 C.3   210  ASP210      0.1674
    103  C         40.6240  122.8030   55.2960 C.2   210  ASP210      0.2266
    104  O         40.4780  123.6520   56.1820 O.2   210  ASP210     -0.2867
    105  CB        40.9250  120.7150   56.5690 C.3   210  ASP210      0.1410
    106  CG        40.4390  119.3220   56.8870 C.2   210  ASP210      0.3668
    107  OD1       39.2320  119.1750   57.2510 O.co2 210  ASP210     -0.2456
    108  OD2       41.2610  118.3570   56.7320 O.co2 210  ASP210     -0.2456
    109  N         34.1680  123.0930   58.2740 N.3   241  SER241     -0.1217
    110  CA        34.9680  124.2280   58.6550 C.3   241  SER241      0.1889
    111  C         36.2140  124.2210   57.7600 C.2   241  SER241      0.2288
    112  O         37.1390  123.4630   57.9990 O.2   241  SER241     -0.2866
    113  CB        35.3420  124.1730   60.1350 C.3   241  SER241      0.2089
    114  OG        34.2120  124.3770   60.9380 O.3   241  SER241     -0.2183
@<TRIPOS>BOND
     1   101   102    1
     2   103   102    1
     3   103   104    2
     4   102   105    1
     5    95    94    2
     6   105   106    1
     7    94    93    1
     8   108   106   ar
     9   106   107   ar
    10    82    83    2
    11    82    81    1
    12   111   112    2
    13   111   110    1
    14    84    81    1
    15    84    85    1
    16    87    85   ar
    17    87    89   ar
    18    93    96    1
    19    93    92    1
    20    81    80    1
    21   109   110    1
    22    85    86   ar
    23    96    97    1
    24    89    90   ar
    25   110   113    1
    26    32    33    1
    27    32    31    1
    28    70    69    1
    29    33    27    1
    30    86    88   ar
    31    90    88   ar
    32    90    91    1
    33    78    77    1
    34    97    98    1
    35   113   114    1
    36    98    99    1
    37    31    28    1
    38    69    68    1
    39    69    71    1
    40    27    28    1
    41    77    79    1
    42    77    76    1
    43    68    65    1
    44    28    29    1
    45    52    50    1
    46    99   100    1
    47    30    29    2
    48    29    34   am
    49    76    73    1
    50    65    64    1
    51    65    66    1
    52    25    24    2
    53    50    49    1
    54    50    51    1
    55    49    46    1
    56    67    66    2
    57    66    72   am
    58    72    73    1
    59    34    35    1
    60    73    74    1
    61    24    26   am
    62    24    23    1
    63    45    46    1
    64    45    36   am
    65    35    36    1
    66    35    38    1
    67    46    47    1
    68    36    37    2
    69    75    74    2
    70    48    47    2
    71    21    20    1
    72    21    22    2
    73    20    23    1
    74    20    19    1
    75    47    53   am
    76    18    17    2
    77    38    39    1
    78    19    17   am
    79    17    16    1
    80    53    54    1
    81    39    41   ar
    82    39    40   ar
    83    54    55    1
    84    54    57    1
    85    41    43   ar
    86    16    15    1
    87    40    42   ar
    88    55    56    2
    89    15    10   am
    90    59    61   ar
    91    59    58   ar
    92    57    58    1
    93    43    44   ar
    94    42    44   ar
    95    61    63   ar
    96    58    60   ar
    97     6     7    1
    98     6     5    1
    99    10     9    1
   100    10    11    2
   101    12     9    1
   102    12    13    1
   103    12    14    1
   104     7     1    1
   105     9     8    1
   106     5     2    1
   107    63    62   ar
   108    60    62   ar
   109     1     2    1
   110     2     3    1
   111     4     3    2
