@<TRIPOS>MOLECULE
tmp/4oh3A00.pdb
 92 87 0 0 0
SMALL
GASTEIGER

@<TRIPOS>ATOM
      1  N         45.3200   14.1740  -46.1890 N.3   183  ASN183     -0.1240
      2  CA        46.3550   13.5580  -45.3790 C.3   183  ASN183      0.1653
      3  C         46.7600   14.4370  -44.1990 C.2   183  ASN183      0.2266
      4  O         46.8060   13.9580  -43.0670 O.2   183  ASN183     -0.2867
      5  CB        47.5660   13.2020  -46.2330 C.3   183  ASN183      0.1155
      6  CG        47.6750   11.7160  -46.4760 C.2   183  ASN183      0.2627
      7  OD1       47.8740   10.9400  -45.5310 O.2   183  ASN183     -0.2716
      8  ND2       47.5490   11.3040  -47.7340 N.am  183  ASN183     -0.0877
      9  N         43.6650   14.1760  -42.0020 N.3   186  PHE186     -0.1227
     10  CA        43.4760   12.8990  -41.3080 C.3   186  PHE186      0.1736
     11  C         44.4490   12.7340  -40.1460 C.2   186  PHE186      0.2595
     12  O         44.0750   12.2480  -39.0780 O.2   186  PHE186     -0.2718
     13  CB        43.6190   11.7330  -42.2820 C.3   186  PHE186      0.0547
     14  CG        42.3160   11.2770  -42.8730 C.ar  186  PHE186     -0.0202
     15  CD1       41.1200   11.5090  -42.2010 C.ar  186  PHE186     -0.0042
     16  CD2       42.2850   10.6030  -44.0950 C.ar  186  PHE186     -0.0042
     17  CE1       39.9030   11.0820  -42.7340 C.ar  186  PHE186     -0.0003
     18  CE2       41.0820   10.1710  -44.6430 C.ar  186  PHE186     -0.0003
     19  CZ        39.8830   10.4100  -43.9600 C.ar  186  PHE186     -0.0000
     20  N         45.6920   13.1500  -40.3570 N.am  187  PHE187     -0.1976
     21  CA        46.6550   13.2190  -39.2730 C.3   187  PHE187      0.1639
     22  C         46.1700   14.1510  -38.1290 C.2   187  PHE187      0.2290
     23  O         46.2090   13.7780  -36.9360 O.2   187  PHE187     -0.2864
     24  CB        48.0110   13.6800  -39.8060 C.3   187  PHE187      0.0560
     25  CG        48.9290   14.1670  -38.7400 C.ar  187  PHE187     -0.0200
     26  CD1       49.7730   13.2880  -38.0980 C.ar  187  PHE187     -0.0042
     27  CD2       48.9230   15.5040  -38.3540 C.ar  187  PHE187     -0.0042
     28  CE1       50.5930   13.7200  -37.0950 C.ar  187  PHE187     -0.0003
     29  CE2       49.7410   15.9420  -37.3520 C.ar  187  PHE187     -0.0003
     30  CZ        50.5840   15.0470  -36.7230 C.ar  187  PHE187     -0.0000
     31  N         43.7310   12.2890  -35.7650 N.3   190  ASN190     -0.1225
     32  CA        44.3280   11.4010  -34.7770 C.3   190  ASN190      0.1785
     33  C         45.0980   12.1640  -33.7340 C.2   190  ASN190      0.2597
     34  O         45.0630   11.8070  -32.5750 O.2   190  ASN190     -0.2718
     35  CB        45.2300   10.3950  -35.4540 C.3   190  ASN190      0.1169
     36  CG        44.6310    9.8860  -36.7080 C.2   190  ASN190      0.2627
     37  OD1       43.5930   10.3800  -37.1280 O.2   190  ASN190     -0.2716
     38  ND2       45.2720    8.9160  -37.3380 N.am  190  ASN190     -0.0877
     39  N         45.7970   13.2130  -34.1290 N.am  191  VAL191     -0.1980
     40  CA        46.3260   14.0850  -33.1140 C.3   191  VAL191      0.1595
     41  C         45.1770   14.5940  -32.2330 C.2   191  VAL191      0.2287
     42  O         45.1840   14.4120  -31.0200 O.2   191  VAL191     -0.2864
     43  CB        47.0760   15.2200  -33.7180 C.3   191  VAL191      0.0276
     44  CG1       47.2010   16.3400  -32.7010 C.3   191  VAL191      0.0022
     45  CG2       48.4210   14.7170  -34.1670 C.3   191  VAL191      0.0022
     46  N         43.6810   11.9640  -29.9900 N.3   194  LEU194     -0.1245
     47  CA        44.4180   11.6630  -28.7740 C.3   194  LEU194      0.1561
     48  C         43.9890   12.6660  -27.7170 C.2   194  LEU194      0.2260
     49  O         43.7740   12.3100  -26.5430 O.2   194  LEU194     -0.2867
     50  CB        45.9310   11.7370  -28.9980 C.3   194  LEU194      0.0270
     51  CG        46.7510   10.4980  -29.3600 C.3   194  LEU194      0.0019
     52  CD1       45.8860    9.2980  -29.5550 C.3   194  LEU194      0.0001
     53  CD2       47.5610   10.7870  -30.6060 C.3   194  LEU194      0.0001
     54  N         45.6710    3.5110  -33.5180 N.3   337  LEU337     -0.1245
     55  CA        46.4700    4.2420  -34.4970 C.3   337  LEU337      0.1561
     56  C         47.7280    3.4540  -34.8210 C.2   337  LEU337      0.2260
     57  O         48.1510    3.3730  -35.9780 O.2   337  LEU337     -0.2867
     58  CB        46.8520    5.6380  -33.9820 C.3   337  LEU337      0.0270
     59  CG        45.7220    6.5980  -33.5920 C.3   337  LEU337      0.0019
     60  CD1       46.2750    7.9440  -33.0910 C.3   337  LEU337      0.0001
     61  CD2       44.7790    6.7770  -34.7630 C.3   337  LEU337      0.0001
     62  N         47.3230    0.3490  -37.3100 N.3   340  THR340     -0.1203
     63  CA        47.2650    0.9080  -38.6740 C.3   340  THR340      0.1994
     64  C         48.6280    1.3780  -39.2240 C.2   340  THR340      0.2617
     65  O         49.0480    0.9590  -40.3070 O.2   340  THR340     -0.2717
     66  CB        46.3180    2.1070  -38.7420 C.3   340  THR340      0.1784
     67  OG1       45.1270    1.7970  -38.0360 O.3   340  THR340     -0.2211
     68  CG2       45.9780    2.4410  -40.1690 C.3   340  THR340      0.0376
     69  N         49.2930    2.2500  -38.4640 N.am  341  ALA341     -0.1979
     70  CA        50.5840    2.7980  -38.8320 C.3   341  ALA341      0.1597
     71  C         51.5120    1.6940  -39.2810 C.2   341  ALA341      0.2287
     72  O         52.1700    1.8120  -40.3090 O.2   341  ALA341     -0.2864
     73  CB        51.1890    3.5550  -37.6610 C.3   341  ALA341      0.0319
     74  N         50.1820   -0.7080  -42.4750 N.3   344  ASP344     -0.1225
     75  CA        50.3570   -0.0730  -43.7770 C.3   344  ASP344      0.1805
     76  C         51.8270   -0.0020  -44.2110 C.2   344  ASP344      0.2597
     77  O         52.1160   -0.0570  -45.4050 O.2   344  ASP344     -0.2718
     78  CB        49.7290    1.3240  -43.7720 C.3   344  ASP344      0.1424
     79  CG        48.2730    1.3040  -43.3460 C.2   344  ASP344      0.3668
     80  OD1       47.7430    2.3610  -42.9320 O.co2 344  ASP344     -0.2456
     81  OD2       47.6650    0.2180  -43.4140 O.co2 344  ASP344     -0.2456
     82  N         52.7640    0.1220  -43.2770 N.am  345  ARG345     -0.1979
     83  CA        54.1670    0.0920  -43.6850 C.3   345  ARG345      0.1597
     84  C         54.6510   -1.3370  -43.8920 C.2   345  ARG345      0.2287
     85  O         55.6300   -1.5610  -44.5990 O.2   345  ARG345     -0.2864
     86  CB        55.0700    0.7950  -42.6690 C.3   345  ARG345      0.0334
     87  CG        55.4280    2.2300  -43.0350 C.3   345  ARG345      0.0492
     88  CD        54.4180    3.1980  -42.4280 C.3   345  ARG345      0.2205
     89  NE        54.6200    4.5870  -42.8430 N.pl3 345  ARG345     -0.0865
     90  CZ        54.0570    5.6350  -42.2400 C.cat 345  ARG345      0.5346
     91  NH1       53.2700    5.4550  -41.1840 N.pl3 345  ARG345      0.1354
     92  NH2       54.2900    6.8650  -42.6860 N.pl3 345  ARG345      0.1354
@<TRIPOS>BOND
     1     8     6   am
     2     6     5    1
     3     6     7    2
     4     5     2    1
     5     1     2    1
     6    77    76    2
     7     2     3    1
     8    18    16   ar
     9    18    19   ar
    10    85    84    2
    11    76    75    1
    12    76    82   am
    13     3     4    2
    14    16    14   ar
    15    19    17   ar
    16    84    83    1
    17    75    78    1
    18    75    74    1
    19    78    79    1
    20    83    82    1
    21    83    86    1
    22    81    79   ar
    23    79    80   ar
    24    87    86    1
    25    87    88    1
    26    14    13    1
    27    14    15   ar
    28    89    88    1
    29    89    90    2
    30    17    15   ar
    31    92    90    1
    32    13    10    1
    33    90    91    1
    34     9    10    1
    35    10    11    1
    36    20    11   am
    37    20    21    1
    38    72    71    2
    39    65    64    2
    40    68    66    1
    41    11    12    2
    42    24    21    1
    43    24    25    1
    44    71    70    1
    45    21    22    1
    46    64    63    1
    47    64    69   am
    48    70    69    1
    49    70    73    1
    50    66    63    1
    51    66    67    1
    52    25    27   ar
    53    25    26   ar
    54    63    62    1
    55    27    29   ar
    56    22    23    2
    57    26    28   ar
    58    29    30   ar
    59    38    36   am
    60    37    36    2
    61    28    30   ar
    62    36    35    1
    63    57    56    2
    64    31    32    1
    65    35    32    1
    66    56    55    1
    67    32    33    1
    68    61    59    1
    69    55    58    1
    70    55    54    1
    71    45    43    1
    72    39    33   am
    73    39    40    1
    74    58    59    1
    75    33    34    2
    76    43    40    1
    77    43    44    1
    78    59    60    1
    79    40    41    1
    80    41    42    2
    81    53    51    1
    82    46    47    1
    83    52    51    1
    84    51    50    1
    85    50    47    1
    86    47    48    1
    87    48    49    2
