@<TRIPOS>MOLECULE
tmp/4oh3B00.pdb
 100 95 0 0 0
SMALL
GASTEIGER

@<TRIPOS>ATOM
      1  N         -1.6730   39.0180  -37.5160 N.3   183  ASN183     -0.1240
      2  CA        -2.2530   39.8680  -36.4720 C.3   183  ASN183      0.1653
      3  C         -2.1710   39.2000  -35.1080 C.2   183  ASN183      0.2266
      4  O         -2.1720   39.8710  -34.0740 O.2   183  ASN183     -0.2867
      5  CB        -3.7060   40.2160  -36.7840 C.3   183  ASN183      0.1155
      6  CG        -3.8500   40.9580  -38.0760 C.2   183  ASN183      0.2627
      7  OD1       -2.8660   41.4500  -38.6350 O.2   183  ASN183     -0.2716
      8  ND2       -5.0780   41.0470  -38.5680 N.am  183  ASN183     -0.0877
      9  N          2.0380   39.4630  -34.2930 N.3   186  PHE186     -0.1227
     10  CA         2.6600   40.6970  -33.8760 C.3   186  PHE186      0.1736
     11  C          2.2730   41.0800  -32.4620 C.2   186  PHE186      0.2595
     12  O          3.0610   41.7300  -31.7760 O.2   186  PHE186     -0.2718
     13  CB         2.3040   41.8130  -34.8380 C.3   186  PHE186      0.0547
     14  CG         2.9020   41.6400  -36.2010 C.ar  186  PHE186     -0.0202
     15  CD1        4.2730   41.6950  -36.3800 C.ar  186  PHE186     -0.0042
     16  CD2        2.0920   41.4410  -37.3040 C.ar  186  PHE186     -0.0042
     17  CE1        4.8250   41.5460  -37.6330 C.ar  186  PHE186     -0.0003
     18  CE2        2.6360   41.2920  -38.5570 C.ar  186  PHE186     -0.0003
     19  CZ         4.0040   41.3440  -38.7230 C.ar  186  PHE186     -0.0000
     20  N          1.0760   40.6820  -32.0230 N.am  187  PHE187     -0.1976
     21  CA         0.6820   40.9520  -30.6440 C.3   187  PHE187      0.1639
     22  C          1.7540   40.3610  -29.7670 C.2   187  PHE187      0.2290
     23  O          2.1630   40.9550  -28.7720 O.2   187  PHE187     -0.2864
     24  CB        -0.6960   40.3750  -30.2810 C.3   187  PHE187      0.0560
     25  CG        -1.1120   40.6680  -28.8600 C.ar  187  PHE187     -0.0200
     26  CD1       -1.5720   41.9310  -28.5010 C.ar  187  PHE187     -0.0042
     27  CD2       -1.0190   39.6960  -27.8790 C.ar  187  PHE187     -0.0042
     28  CE1       -1.9430   42.2240  -27.1910 C.ar  187  PHE187     -0.0003
     29  CE2       -1.3890   39.9790  -26.5680 C.ar  187  PHE187     -0.0003
     30  CZ        -1.8580   41.2500  -26.2240 C.ar  187  PHE187     -0.0000
     31  N          5.1210   42.3820  -30.0620 N.3   190  ASN190     -0.1225
     32  CA         4.8280   43.5350  -29.2410 C.3   190  ASN190      0.1785
     33  C          4.9230   43.1850  -27.7510 C.2   190  ASN190      0.2597
     34  O          5.8610   43.6110  -27.0650 O.2   190  ASN190     -0.2718
     35  CB         3.4520   44.0870  -29.6060 C.3   190  ASN190      0.1169
     36  CG         3.4030   44.6110  -31.0390 C.2   190  ASN190      0.2627
     37  OD1        4.4380   44.8880  -31.6390 O.2   190  ASN190     -0.2716
     38  ND2        2.2010   44.7510  -31.5860 N.am  190  ASN190     -0.0877
     39  N          3.9790   42.3750  -27.2710 N.am  191  VAL191     -0.1980
     40  CA         3.9680   41.8950  -25.8850 C.3   191  VAL191      0.1595
     41  C          5.3130   41.2910  -25.4970 C.2   191  VAL191      0.2287
     42  O          5.7640   41.4270  -24.3660 O.2   191  VAL191     -0.2864
     43  CB         2.8460   40.8590  -25.6810 C.3   191  VAL191      0.0276
     44  CG1        3.0990   40.0110  -24.4530 C.3   191  VAL191      0.0022
     45  CG2        1.5010   41.5630  -25.6090 C.3   191  VAL191      0.0022
     46  N          8.0420   44.1650  -25.2000 N.3   194  LEU194     -0.1245
     47  CA         7.8050   44.7220  -23.8590 C.3   194  LEU194      0.1561
     48  C          8.5000   43.8750  -22.8030 C.2   194  LEU194      0.2260
     49  O          8.9510   44.3880  -21.7760 O.2   194  LEU194     -0.2867
     50  CB         6.3090   44.7950  -23.5270 C.3   194  LEU194      0.0270
     51  CG         5.4150   45.8550  -24.1540 C.3   194  LEU194      0.0019
     52  CD1        3.9700   45.5090  -23.8790 C.3   194  LEU194      0.0001
     53  CD2        5.7610   47.2230  -23.6150 C.3   194  LEU194      0.0001
     54  N          3.8270   51.3090  -29.0970 N.3   357  LEU357     -0.1231
     55  CA         2.6960   50.3960  -29.1350 C.3   357  LEU357      0.1693
     56  C          1.3810   51.1110  -28.9370 C.2   357  LEU357      0.2591
     57  O          0.3770   50.7880  -29.5780 O.2   357  LEU357     -0.2718
     58  CB         2.8680   49.3330  -28.0580 C.3   357  LEU357      0.0284
     59  CG         4.0550   48.4150  -28.3050 C.3   357  LEU357      0.0019
     60  CD1        4.4260   47.6330  -27.0640 C.3   357  LEU357      0.0001
     61  CD2        3.6780   47.4910  -29.4190 C.3   357  LEU357      0.0001
     62  N          1.4030   52.0780  -28.0270 N.am  358  LEU358     -0.1980
     63  CA         0.2150   52.8200  -27.6390 C.3   358  LEU358      0.1596
     64  C         -0.1670   53.7720  -28.7560 C.2   358  LEU358      0.2287
     65  O         -1.3140   53.7720  -29.2030 O.2   358  LEU358     -0.2864
     66  CB         0.4690   53.5740  -26.3400 C.3   358  LEU358      0.0297
     67  CG        -0.6950   53.8590  -25.4180 C.3   358  LEU358      0.0022
     68  CD1       -0.1390   53.9370  -24.0220 C.3   358  LEU358      0.0001
     69  CD2       -1.3880   55.1620  -25.7860 C.3   358  LEU358      0.0001
     70  N          0.7830   53.7900  -32.0110 N.3   360  THR360     -0.1203
     71  CA         0.3370   53.0010  -33.1450 C.3   360  THR360      0.1994
     72  C         -1.1260   52.5990  -32.9550 C.2   360  THR360      0.2617
     73  O         -1.9300   52.7260  -33.8820 O.2   360  THR360     -0.2717
     74  CB         1.2090   51.7310  -33.3490 C.3   360  THR360      0.1784
     75  OG1        2.5150   52.1120  -33.7920 O.3   360  THR360     -0.2211
     76  CG2        0.5910   50.7960  -34.3880 C.3   360  THR360      0.0376
     77  N         -1.4690   52.1690  -31.7390 N.am  361  ALA361     -0.1979
     78  CA        -2.8040   51.6450  -31.4230 C.3   361  ALA361      0.1597
     79  C         -3.8760   52.7330  -31.4400 C.2   361  ALA361      0.2287
     80  O         -5.0080   52.5150  -31.8890 O.2   361  ALA361     -0.2864
     81  CB        -2.7840   50.9500  -30.0690 C.3   361  ALA361      0.0319
     82  N         -4.2180   53.7770  -35.3230 N.3   364  ASP364     -0.1225
     83  CA        -4.9160   52.9000  -36.2600 C.3   364  ASP364      0.1805
     84  C         -6.4280   52.9860  -36.1390 C.2   364  ASP364      0.2597
     85  O         -7.1480   52.8200  -37.1230 O.2   364  ASP364     -0.2718
     86  CB        -4.4640   51.4620  -36.0780 C.3   364  ASP364      0.1424
     87  CG        -3.0970   51.2190  -36.6580 C.2   364  ASP364      0.3668
     88  OD1       -2.7180   50.0380  -36.8130 O.co2 364  ASP364     -0.2456
     89  OD2       -2.4100   52.2150  -36.9680 O.co2 364  ASP364     -0.2456
     90  N         -6.9090   53.2210  -34.9240 N.am  365  ARG365     -0.1979
     91  CA        -8.3430   53.3170  -34.6820 C.3   365  ARG365      0.1597
     92  C         -8.7870   54.7690  -34.7630 C.2   365  ARG365      0.2287
     93  O         -9.4820   55.1750  -35.6920 O.2   365  ARG365     -0.2864
     94  CB        -8.7040   52.7290  -33.3130 C.3   365  ARG365      0.0334
     95  CG        -8.0460   51.3880  -33.0140 C.3   365  ARG365      0.0492
     96  CD        -8.5980   50.2710  -33.8870 C.3   365  ARG365      0.2205
     97  NE        -7.5640   49.3030  -34.2450 N.pl3 365  ARG365     -0.0865
     98  CZ        -7.8010   48.1690  -34.8960 C.cat 365  ARG365      0.5346
     99  NH1       -9.0440   47.8600  -35.2450 N.pl3 365  ARG365      0.1354
    100  NH2       -6.8020   47.3440  -35.1900 N.pl3 365  ARG365      0.1354
@<TRIPOS>BOND
     1    19    18   ar
     2    19    17   ar
     3     7     6    2
     4     8     6   am
     5    18    16   ar
     6     6     5    1
     7    17    15   ar
     8     1     2    1
     9    16    14   ar
    10    85    84    2
    11    89    87   ar
    12    88    87   ar
    13     5     2    1
    14    87    86    1
    15     2     3    1
    16    15    14   ar
    17    83    84    1
    18    83    86    1
    19    83    82    1
    20    14    13    1
    21    84    90   am
    22    93    92    2
    23    99    98    1
    24   100    98    1
    25     3     4    2
    26    90    91    1
    27    98    97    2
    28    13    10    1
    29    92    91    1
    30    91    94    1
    31    76    74    1
    32     9    10    1
    33    97    96    1
    34    96    95    1
    35    73    72    2
    36    10    11    1
    37    75    74    1
    38    74    71    1
    39    94    95    1
    40    71    72    1
    41    71    70    1
    42    72    77   am
    43    11    20   am
    44    11    12    2
    45    20    21    1
    46    80    79    2
    47    77    78    1
    48    37    36    2
    49    38    36   am
    50    79    78    1
    51    78    81    1
    52    36    35    1
    53    21    24    1
    54    21    22    1
    55    24    25    1
    56    31    32    1
    57    22    23    2
    58    35    32    1
    59    57    56    2
    60    61    59    1
    61    32    33    1
    62    65    64    2
    63    55    54    1
    64    55    56    1
    65    55    58    1
    66    56    62   am
    67    25    26   ar
    68    25    27   ar
    69    64    63    1
    70    26    28   ar
    71    59    58    1
    72    59    60    1
    73    62    63    1
    74    27    29   ar
    75    33    39   am
    76    33    34    2
    77    63    66    1
    78    39    40    1
    79    28    30   ar
    80    29    30   ar
    81    66    67    1
    82    40    43    1
    83    40    41    1
    84    69    67    1
    85    43    45    1
    86    43    44    1
    87    41    42    2
    88    67    68    1
    89    46    47    1
    90    51    52    1
    91    51    53    1
    92    51    50    1
    93    47    50    1
    94    47    48    1
    95    48    49    2
