@<TRIPOS>MOLECULE
tmp/4oh4A00.pdb
 185 174 0 0 0
SMALL
GASTEIGER

@<TRIPOS>ATOM
      1  N        -18.7090   16.6750  117.0240 N.3    38  ILE38      -0.1231
      2  CA       -19.8490   15.7730  116.8780 C.3    38  ILE38       0.1692
      3  C        -19.3830   14.3040  116.7610 C.2    38  ILE38       0.2593
      4  O        -20.2090   13.3740  116.6820 O.2    38  ILE38      -0.2718
      5  CB       -20.7360   16.1510  115.6560 C.3    38  ILE38       0.0266
      6  CG1      -19.9410   16.0650  114.3470 C.3    38  ILE38       0.0019
      7  CG2      -21.3200   17.5520  115.8210 C.3    38  ILE38       0.0020
      8  CD1      -20.7260   16.4920  113.1060 C.3    38  ILE38       0.0001
      9  N        -18.0580   14.1230  116.7480 N.am   39  GLY39      -0.1942
     10  CA       -17.4210   12.8220  116.6260 C.3    39  GLY39       0.2014
     11  C        -15.9780   12.8090  117.0970 C.2    39  GLY39       0.2639
     12  O        -15.1670   13.6470  116.6660 O.2    39  GLY39      -0.2714
     13  N        -15.6460   11.8320  117.9450 N.am   40  SER40      -0.1949
     14  CA       -14.3710   11.8450  118.6680 C.3    40  SER40       0.1924
     15  C        -13.6530   10.5020  118.6850 C.2    40  SER40       0.2314
     16  O        -14.2380    9.4790  119.0710 O.2    40  SER40      -0.2863
     17  CB       -14.5670   12.3120  120.1190 C.3    40  SER40       0.2116
     18  OG       -13.3170   12.5700  120.7430 O.3    40  SER40      -0.2180
     19  N        -11.9820    8.0790  116.6040 N.3    42  GLY42      -0.1210
     20  CA       -11.7150    6.9890  115.6510 C.3    42  GLY42       0.1956
     21  C        -10.6430    6.9680  114.5440 C.2    42  GLY42       0.2612
     22  O         -9.9150    5.9800  114.4440 O.2    42  GLY42      -0.2717
     23  N        -10.5090    8.0260  113.7410 N.am   43  PHE43      -0.1962
     24  CA        -9.2880    8.3260  113.0030 C.3    43  PHE43       0.1771
     25  C         -9.1060    9.8270  112.9430 C.2    43  PHE43       0.2620
     26  O         -8.0450   10.3420  112.5750 O.2    43  PHE43      -0.2715
     27  CB        -9.3620    7.7270  111.6080 C.3    43  PHE43       0.0574
     28  CG        -9.0690    6.2520  111.5710 C.ar   43  PHE43      -0.0200
     29  CD1       -9.8330    5.3470  112.3030 C.ar   43  PHE43      -0.0042
     30  CD2       -8.0260    5.7720  110.8010 C.ar   43  PHE43      -0.0042
     31  CE1       -9.5620    3.9960  112.2620 C.ar   43  PHE43      -0.0003
     32  CE2       -7.7460    4.4230  110.7540 C.ar   43  PHE43      -0.0003
     33  CZ        -8.5180    3.5330  111.4830 C.ar   43  PHE43      -0.0000
     34  N        -10.1780   10.5120  113.3160 N.am   44  GLY44      -0.1954
     35  CA       -10.1280   11.9240  113.6000 C.3    44  GLY44       0.1869
     36  C        -11.3000   12.3760  114.4470 C.2    44  GLY44       0.2309
     37  O        -12.0860   11.5730  114.9730 O.2    44  GLY44      -0.2863
     38  N        -14.6680   14.9920  114.3020 N.3    46  VAL46      -0.1245
     39  CA       -15.5680   15.5850  113.3360 C.3    46  VAL46       0.1561
     40  C        -16.2970   16.7320  113.9860 C.2    46  VAL46       0.2260
     41  O        -16.8490   16.5620  115.0740 O.2    46  VAL46      -0.2867
     42  CB       -16.5770   14.5510  112.8000 C.3    46  VAL46       0.0252
     43  CG1      -17.4940   15.1760  111.7480 C.3    46  VAL46       0.0019
     44  CG2      -15.8260   13.3720  112.1950 C.3    46  VAL46       0.0019
     45  N        -19.7710   19.0770  107.7960 N.3    58  ALA58      -0.1245
     46  CA       -19.0880   18.3350  108.8450 C.3    58  ALA58       0.1562
     47  C        -17.6260   18.2760  108.4090 C.2    58  ALA58       0.2260
     48  O        -17.3250   17.8760  107.2680 O.2    58  ALA58      -0.2867
     49  CB       -19.6720   16.9210  108.9880 C.3    58  ALA58       0.0290
     50  N        -14.0490   16.7120  109.1580 N.3    60  LYS60      -0.1245
     51  CA       -13.3080   15.6560  109.8380 C.3    60  LYS60       0.1561
     52  C        -11.8370   16.0210  109.8710 C.2    60  LYS60       0.2260
     53  O        -11.2160   16.1810  108.8290 O.2    60  LYS60      -0.2867
     54  CB       -13.5170   14.3040  109.1330 C.3    60  LYS60       0.0271
     55  CG       -12.6750   13.1650  109.7150 C.3    60  LYS60       0.0035
     56  CD       -13.4010   11.7980  109.6620 C.3    60  LYS60       0.0206
     57  CE       -13.8420   11.4240  108.2620 C.3    60  LYS60       0.1093
     58  NZ       -14.4410   10.0410  108.1150 N.3    60  LYS60      -0.1314
     59  N        -22.5890    9.8330  101.0610 N.3    89  VAL89      -0.1245
     60  CA       -22.3080   11.1500  101.6270 C.3    89  VAL89       0.1561
     61  C        -21.5460   11.9800  100.6080 C.2    89  VAL89       0.2260
     62  O        -20.6880   11.4590   99.8760 O.2    89  VAL89      -0.2867
     63  CB       -21.4860   11.0470  102.9390 C.3    89  VAL89       0.0252
     64  CG1      -20.0750   10.4910  102.6640 C.3    89  VAL89       0.0019
     65  CG2      -21.4350   12.4080  103.7050 C.3    89  VAL89       0.0019
     66  N        -17.4540   17.1910  104.5810 N.3   105  TYR105     -0.1227
     67  CA       -18.6350   16.5950  104.0040 C.3   105  TYR105      0.1736
     68  C        -19.7840   17.5620  104.0850 C.2   105  TYR105      0.2595
     69  O        -19.8310   18.3960  104.9720 O.2   105  TYR105     -0.2718
     70  CB       -19.0300   15.3330  104.7720 C.3   105  TYR105      0.0548
     71  CG       -17.9140   14.3620  104.9340 C.ar  105  TYR105     -0.0200
     72  CD1      -17.5880   13.4820  103.9220 C.ar  105  TYR105     -0.0009
     73  CD2      -17.1740   14.3310  106.1000 C.ar  105  TYR105     -0.0009
     74  CE1      -16.5390   12.5840  104.0660 C.ar  105  TYR105      0.0417
     75  CE2      -16.1250   13.4460  106.2660 C.ar  105  TYR105      0.0417
     76  CZ       -15.8120   12.5710  105.2420 C.ar  105  TYR105      0.1957
     77  OH       -14.7770   11.6860  105.4100 O.3   105  TYR105     -0.2866
     78  N        -20.7360   17.4250  103.1720 N.am  106  GLU106     -0.1965
     79  CA       -22.0110   18.0940  103.3450 C.3   106  GLU106      0.1733
     80  C        -22.6080   17.5530  104.6460 C.2   106  GLU106      0.2616
     81  O        -22.5150   16.3620  104.9160 O.2   106  GLU106     -0.2715
     82  CB       -22.9170   17.8300  102.1310 C.3   106  GLU106      0.0429
     83  CG       -24.3290   18.3930  102.2510 C.3   106  GLU106      0.1163
     84  CD       -25.0950   18.3730  100.9290 C.2   106  GLU106      0.3649
     85  OE1      -26.3520   18.2810  100.9730 O.co2 106  GLU106     -0.2457
     86  OE2      -24.4410   18.4620   99.8540 O.co2 106  GLU106     -0.2457
     87  N        -23.1770   18.4320  105.4670 N.am  107  PHE107     -0.1960
     88  CA       -23.7520   18.0110  106.7420 C.3   107  PHE107      0.1771
     89  C        -25.0970   17.3140  106.5600 C.2   107  PHE107      0.2619
     90  O        -26.0210   17.8630  105.9500 O.2   107  PHE107     -0.2715
     91  CB       -23.9160   19.1900  107.7220 C.3   107  PHE107      0.0574
     92  CG       -24.4330   18.7670  109.0760 C.ar  107  PHE107     -0.0200
     93  CD1      -25.7910   18.6940  109.3250 C.ar  107  PHE107     -0.0042
     94  CD2      -23.5570   18.4010  110.0820 C.ar  107  PHE107     -0.0042
     95  CE1      -26.2720   18.2740  110.5570 C.ar  107  PHE107     -0.0003
     96  CE2      -24.0330   17.9810  111.3120 C.ar  107  PHE107     -0.0003
     97  CZ       -25.3920   17.9160  111.5470 C.ar  107  PHE107     -0.0000
     98  N        -25.2100   16.1170  107.1200 N.am  108  MET108     -0.1977
     99  CA       -26.4310   15.3300  106.9990 C.3   108  MET108      0.1605
    100  C        -27.2980   15.5230  108.2300 C.2   108  MET108      0.2287
    101  O        -26.9500   15.0720  109.3160 O.2   108  MET108     -0.2864
    102  CB       -26.1040   13.8490  106.8050 C.3   108  MET108      0.0413
    103  CG       -25.2680   13.5650  105.5590 C.3   108  MET108      0.0598
    104  SD       -26.2280   13.7000  104.0540 S.3   108  MET108     -0.1393
    105  CE       -25.7010   15.2750  103.3740 C.3   108  MET108      0.0692
    106  N        -27.5680   13.2900  111.4070 N.3   111  GLY111     -0.1210
    107  CA       -26.3850   12.5600  111.8280 C.3   111  GLY111      0.1956
    108  C        -26.5120   11.0900  111.4670 C.2   111  GLY111      0.2612
    109  O        -27.0660   10.7600  110.4180 O.2   111  GLY111     -0.2717
    110  N        -26.0360   10.1980  112.3310 N.am  112  SER112     -0.1952
    111  CA       -25.9200    8.7910  111.9410 C.3   112  SER112      0.1924
    112  C        -27.1020    7.9580  112.3830 C.2   112  SER112      0.2314
    113  O        -27.7690    8.2890  113.3710 O.2   112  SER112     -0.2863
    114  CB       -24.6170    8.1780  112.4600 C.3   112  SER112      0.2116
    115  OG       -24.7450    7.7370  113.7930 O.3   112  SER112     -0.2180
    116  N        -27.1940    5.0210  113.8170 N.3   114  GLU114     -0.1231
    117  CA       -26.9950    4.5240  115.1760 C.3   114  GLU114      0.1699
    118  C        -27.5050    5.5200  116.2330 C.2   114  GLU114      0.2592
    119  O        -28.3260    5.1720  117.0820 O.2   114  GLU114     -0.2718
    120  CB       -25.5130    4.2370  115.3860 C.3   114  GLU114      0.0402
    121  CG       -25.1650    3.7160  116.7480 C.3   114  GLU114      0.1161
    122  CD       -23.7500    4.0980  117.1510 C.2   114  GLU114      0.3649
    123  OE1      -22.8100    3.3300  116.8500 O.co2 114  GLU114     -0.2457
    124  OE2      -23.5790    5.1750  117.7650 O.co2 114  GLU114     -0.2457
    125  N        -27.0190    6.7570  116.1480 N.am  115  ASP115     -0.1974
    126  CA       -27.4580    7.8550  117.0050 C.3   115  ASP115      0.1709
    127  C        -28.9790    7.9680  117.0630 C.2   115  ASP115      0.2293
    128  O        -29.5480    8.2270  118.1240 O.2   115  ASP115     -0.2864
    129  CB       -26.8740    9.1830  116.5130 C.3   115  ASP115      0.1436
    130  CG       -25.3920    9.3370  116.8420 C.2   115  ASP115      0.3671
    131  OD1      -24.9190    8.6480  117.7780 O.co2 115  ASP115     -0.2456
    132  OD2      -24.7090   10.1560  116.1750 O.co2 115  ASP115     -0.2456
    133  N        -15.9390   -1.0340  106.3180 N.3   152  ASP152     -0.1239
    134  CA       -16.4170   -0.6840  107.6470 C.3   152  ASP152      0.1674
    135  C        -17.8790   -0.2630  107.6630 C.2   152  ASP152      0.2266
    136  O        -18.2440    0.7010  108.3350 O.2   152  ASP152     -0.2867
    137  CB       -15.5540    0.4070  108.3000 C.3   152  ASP152      0.1410
    138  CG       -15.5510    0.3080  109.8330 C.2   152  ASP152      0.3668
    139  OD1      -16.3400   -0.5060  110.3880 O.co2 152  ASP152     -0.2456
    140  OD2      -14.7760    1.0460  110.4850 O.co2 152  ASP152     -0.2456
    141  N        -21.3790    0.0340  108.9390 N.3   154  LYS154     -0.1245
    142  CA       -22.0140   -0.0940  110.2520 C.3   154  LYS154      0.1561
    143  C        -23.0670    1.0050  110.4200 C.2   154  LYS154      0.2260
    144  O        -23.1710    1.9110  109.5870 O.2   154  LYS154     -0.2867
    145  CB       -20.9800   -0.0550  111.3770 C.3   154  LYS154      0.0271
    146  CG       -20.0080    1.1160  111.2930 C.3   154  LYS154      0.0035
    147  CD       -19.1370    1.1730  112.5470 C.3   154  LYS154      0.0206
    148  CE       -18.0320    2.2380  112.4210 C.3   154  LYS154      0.1093
    149  NZ       -17.1090    2.1910  113.5790 N.3   154  LYS154     -0.1314
    150  N        -23.2830    3.4140  112.2880 N.3   156  SER156     -0.1202
    151  CA       -22.7550    4.7440  112.5330 C.3   156  SER156      0.2020
    152  C        -22.1960    5.3430  111.2520 C.2   156  SER156      0.2618
    153  O        -21.9890    6.5550  111.1710 O.2   156  SER156     -0.2717
    154  CB       -21.6820    4.7340  113.6190 C.3   156  SER156      0.2103
    155  OG       -20.5520    3.9900  113.2230 O.3   156  SER156     -0.2182
    156  N        -21.9600    4.4930  110.2510 N.am  157  ASN157     -0.1974
    157  CA       -21.4890    4.9490  108.9440 C.3   157  ASN157      0.1688
    158  C        -22.6120    5.0040  107.9250 C.2   157  ASN157      0.2292
    159  O        -22.3780    5.0430  106.7140 O.2   157  ASN157     -0.2864
    160  CB       -20.3470    4.0790  108.4550 C.3   157  ASN157      0.1181
    161  CG       -19.0950    4.3060  109.2600 C.2   157  ASN157      0.2629
    162  OD1      -19.0060    5.2960  109.9990 O.2   157  ASN157     -0.2716
    163  ND2      -18.1210    3.3960  109.1460 N.am  157  ASN157     -0.0877
    164  N        -25.3860    7.6700  107.4290 N.3   159  LEU159     -0.1245
    165  CA       -25.9410    8.9690  107.7850 C.3   159  LEU159      0.1561
    166  C        -27.3680    9.1170  107.2450 C.2   159  LEU159      0.2260
    167  O        -27.7830    8.3840  106.3340 O.2   159  LEU159     -0.2867
    168  CB       -25.0360   10.0870  107.2520 C.3   159  LEU159      0.0270
    169  CG       -23.5880    9.9370  107.7450 C.3   159  LEU159      0.0019
    170  CD1      -22.6980   11.0230  107.1660 C.3   159  LEU159      0.0001
    171  CD2      -23.5360    9.9940  109.2630 C.3   159  LEU159      0.0001
    172  N        -21.2250    6.5220  104.5780 N.3   169  SER169     -0.1202
    173  CA       -20.0900    7.4130  104.7670 C.3   169  SER169      0.2020
    174  C        -18.9020    6.7210  105.4260 C.2   169  SER169      0.2618
    175  O        -18.9040    5.4940  105.5860 O.2   169  SER169     -0.2717
    176  CB       -20.4930    8.6380  105.5910 C.3   169  SER169      0.2103
    177  OG       -21.1060    8.2210  106.8050 O.3   169  SER169     -0.2182
    178  N        -17.9060    7.5470  105.7940 N.am  170  ASP170     -0.1973
    179  CA       -16.6470    7.1240  106.4150 C.3   170  ASP170      0.1709
    180  C        -15.8770    6.1810  105.5060 C.2   170  ASP170      0.2293
    181  O        -15.9280    4.9620  105.6640 O.2   170  ASP170     -0.2864
    182  CB       -16.8920    6.4600  107.7730 C.3   170  ASP170      0.1436
    183  CG       -15.6500    6.4590  108.6630 C.2   170  ASP170      0.3671
    184  OD1      -14.5380    6.7450  108.1440 O.co2 170  ASP170     -0.2456
    185  OD2      -15.8010    6.1700  109.8860 O.co2 170  ASP170     -0.2456
@<TRIPOS>BOND
     1    86    84   ar
     2    62    61    2
     3    61    60    1
     4    84    85   ar
     5    84    83    1
     6    59    60    1
     7    60    63    1
     8    82    83    1
     9    82    79    1
    10    64    63    1
    11    63    65    1
    12    78    79    1
    13    78    68   am
    14    79    80    1
    15   105   104    1
    16    72    74   ar
    17    72    71   ar
    18    67    68    1
    19    67    66    1
    20    67    70    1
    21   104   103    1
    22    74    76   ar
    23    68    69    2
    24   172   173    1
    25    80    81    2
    26    80    87   am
    27   173   174    1
    28   173   176    1
    29    70    71    1
    30    71    73   ar
    31    76    77    1
    32    76    75   ar
    33   174   175    2
    34   174   178   am
    35    87    88    1
    36   180   181    2
    37   180   179    1
    38   103   102    1
    39   176   177    1
    40   178   179    1
    41    90    89    2
    42    73    75   ar
    43   133   134    1
    44   167   166    2
    45   179   182    1
    46    89    88    1
    47    89    98   am
    48   159   158    2
    49    88    91    1
    50   102    99    1
    51    99    98    1
    52    99   100    1
    53   170   169    1
    54   166   165    1
    55   168   169    1
    56   168   165    1
    57    48    47    2
    58   164   165    1
    59   134   135    1
    60   134   137    1
    61   135   136    2
    62    91    92    1
    63   169   171    1
    64   182   183    1
    65    45    46    1
    66   158   157    1
    67    58    57    1
    68   184   183   ar
    69   100   101    2
    70    57    56    1
    71   137   138    1
    72    47    46    1
    73   160   157    1
    74   160   161    1
    75   183   185   ar
    76    53    52    2
    77    46    49    1
    78   141   142    1
    79   157   156    1
    80    92    93   ar
    81    92    94   ar
    82    54    55    1
    83    54    51    1
    84   163   161   am
    85    50    51    1
    86   161   162    2
    87    93    95   ar
    88   144   143    2
    89    56    55    1
    90   138   139   ar
    91   138   140   ar
    92    51    52    1
    93    94    96   ar
    94   156   152   am
    95   142   143    1
    96   142   145    1
    97   109   108    2
    98    95    97   ar
    99    32    30   ar
   100    32    33   ar
   101    30    28   ar
   102   153   152    2
   103   152   151    1
   104   146   145    1
   105   146   147    1
   106    96    97   ar
   107   106   107    1
   108   108   107    1
   109   108   110   am
   110    33    31   ar
   111    28    27    1
   112    28    29   ar
   113    27    24    1
   114    43    42    1
   115   111   110    1
   116   111   112    1
   117   111   114    1
   118    44    42    1
   119    31    29   ar
   120   150   151    1
   121   112   113    2
   122   148   147    1
   123   148   149    1
   124   114   115    1
   125   151   154    1
   126    26    25    2
   127    42    39    1
   128    25    24    1
   129    25    34   am
   130    24    23    1
   131     8     6    1
   132   155   154    1
   133    34    35    1
   134    39    40    1
   135    39    38    1
   136    35    36    1
   137    23    21   am
   138   116   117    1
   139    40    41    2
   140     6     5    1
   141    22    21    2
   142    36    37    2
   143    21    20    1
   144   117   120    1
   145   117   118    1
   146   120   121    1
   147    20    19    1
   148     5     7    1
   149     5     2    1
   150   125   118   am
   151   125   126    1
   152   132   130   ar
   153   118   119    2
   154   129   130    1
   155   129   126    1
   156    10     9    1
   157    10    11    1
   158    12    11    2
   159     4     3    2
   160   121   122    1
   161     9     3   am
   162     3     2    1
   163   130   131   ar
   164   123   122   ar
   165     2     1    1
   166   126   127    1
   167   127   128    2
   168    11    13   am
   169   122   124   ar
   170    13    14    1
   171    14    15    1
   172    14    17    1
   173    15    16    2
   174    17    18    1
