@<TRIPOS>MOLECULE
tmp/4oh5A01.pdb
 187 175 0 0 0
SMALL
GASTEIGER

@<TRIPOS>ATOM
      1  N         32.0470    0.0110   -3.3600 N.3    31  LEU31      -0.1245
      2  CA        32.1670   -0.2280   -1.9520 C.3    31  LEU31       0.1561
      3  C         33.3100    0.4910   -1.2720 C.2    31  LEU31       0.2260
      4  O         33.1360    0.9630   -0.1610 O.2    31  LEU31      -0.2867
      5  CB        32.2160   -1.7160   -1.7040 C.3    31  LEU31       0.0270
      6  CG        30.7680   -2.1770   -1.7130 C.3    31  LEU31       0.0019
      7  CD1       30.7010   -3.5840   -2.2240 C.3    31  LEU31       0.0001
      8  CD2       30.1900   -2.0900   -0.3060 C.3    31  LEU31       0.0001
      9  N         31.6140    3.6590   -0.6660 N.3    34  LEU34      -0.1231
     10  CA        30.6560    3.6010    0.4920 C.3    34  LEU34       0.1693
     11  C         31.3890    3.5930    1.7850 C.2    34  LEU34       0.2592
     12  O         30.8900    4.1140    2.7490 O.2    34  LEU34      -0.2718
     13  CB        29.7050    2.3950    0.4030 C.3    34  LEU34       0.0284
     14  CG        28.5560    2.4260   -0.6250 C.3    34  LEU34       0.0019
     15  CD1       27.9390    1.0430   -0.9350 C.3    34  LEU34       0.0001
     16  CD2       27.4690    3.3610   -0.1030 C.3    34  LEU34       0.0001
     17  N         32.5870    2.9610    1.8140 N.am   35  ASN35      -0.1974
     18  CA        33.3690    2.7990    3.0210 C.3    35  ASN35       0.1688
     19  C         33.9630    4.1650    3.3640 C.2    35  ASN35       0.2292
     20  O         33.7970    4.6240    4.4730 O.2    35  ASN35      -0.2864
     21  CB        34.4860    1.7980    2.8280 C.3    35  ASN35       0.1181
     22  CG        34.0080    0.3550    2.8830 C.2    35  ASN35       0.2629
     23  OD1       32.8980    0.0380    3.3390 O.2    35  ASN35      -0.2716
     24  ND2       34.9000   -0.5350    2.5250 N.am   35  ASN35      -0.0877
     25  N         32.6600    7.0680    2.3950 N.3    37  LEU37      -0.1231
     26  CA        31.4960    7.8650    2.7880 C.3    37  LEU37       0.1693
     27  C         31.0790    7.5270    4.2010 C.2    37  LEU37       0.2592
     28  O         30.7190    8.4130    4.9800 O.2    37  LEU37      -0.2718
     29  CB        30.3280    7.6560    1.8170 C.3    37  LEU37       0.0284
     30  CG        29.0870    8.5160    2.0870 C.3    37  LEU37       0.0019
     31  CD1       29.3710   10.0270    2.0530 C.3    37  LEU37       0.0001
     32  CD2       28.0240    8.1890    1.0780 C.3    37  LEU37       0.0001
     33  N         31.1370    6.2400    4.5550 N.am   38  GLY38      -0.1957
     34  CA        30.8450    5.8320    5.9520 C.3    38  GLY38       0.1869
     35  C         31.7310    6.5990    6.9410 C.2    38  GLY38       0.2309
     36  O         31.2600    7.1050    7.9560 O.2    38  GLY38      -0.2863
     37  N         30.7360   10.3560    7.1010 N.3    41  GLN41      -0.1245
     38  CA        29.5080   10.5630    7.8220 C.3    41  GLN41       0.1566
     39  C         29.6490   10.2620    9.3040 C.2    41  GLN41       0.2260
     40  O         29.0170   10.9190   10.0960 O.2    41  GLN41      -0.2867
     41  CB        28.3700    9.7560    7.2220 C.3    41  GLN41       0.0367
     42  CG        27.9520   10.2680    5.8570 C.3    41  GLN41       0.0905
     43  CD        26.9670    9.3610    5.1950 C.2    41  GLN41       0.2608
     44  OE1       26.5540    9.5960    4.0560 O.2    41  GLN41      -0.2717
     45  NE2       26.5270    8.3350    5.9270 N.am   41  GLN41      -0.0878
     46  N         25.5700    4.2580   14.9060 N.3    71  TRP71      -0.1227
     47  CA        26.0280    4.8960   13.6950 C.3    71  TRP71       0.1737
     48  C         25.3020    4.3840   12.4010 C.2    71  TRP71       0.2595
     49  O         24.8560    5.1640   11.5960 O.2    71  TRP71      -0.2718
     50  CB        27.5610    4.6360   13.6210 C.3    71  TRP71       0.0564
     51  CG        28.1360    4.6240   12.3210 C.ar   71  TRP71       0.0003
     52  CD1       28.3380    5.6920   11.4890 C.ar   71  TRP71       0.0946
     53  CD2       28.6330    3.4760   11.6370 C.ar   71  TRP71       0.0152
     54  NE1       28.9490    5.2760   10.3370 N.ar   71  TRP71      -0.2442
     55  CE2       29.1190    3.9150   10.3900 C.ar   71  TRP71       0.0810
     56  CE3       28.7600    2.1130   11.9830 C.ar   71  TRP71       0.0012
     57  CZ2       29.6800    3.0340    9.4560 C.ar   71  TRP71       0.0191
     58  CZ3       29.3060    1.2420   11.0660 C.ar   71  TRP71       0.0001
     59  CH2       29.7800    1.7050    9.8170 C.ar   71  TRP71       0.0015
     60  N         25.3240    3.0690   12.1570 N.am   72  MET72      -0.1979
     61  CA        24.6480    2.4860   10.9560 C.3    72  MET72       0.1605
     62  C         23.1690    2.8580   10.8100 C.2    72  MET72       0.2287
     63  O         22.7580    3.2940    9.7480 O.2    72  MET72      -0.2864
     64  CB        24.8620    0.9480   10.8940 C.3    72  MET72       0.0413
     65  CG        24.4170    0.2720    9.6090 C.3    72  MET72       0.0598
     66  SD        25.2940    0.8970    8.1930 S.3    72  MET72      -0.1393
     67  CE        26.8890    0.0500    8.3560 C.3    72  MET72       0.0692
     68  N         22.6790    6.5580    9.9250 N.3    75  MET75      -0.1230
     69  CA        23.0460    6.7900    8.5340 C.3    75  MET75       0.1702
     70  C         21.9110    6.2990    7.6160 C.2    75  MET75       0.2592
     71  O         21.5650    6.9750    6.6420 O.2    75  MET75      -0.2718
     72  CB        24.3480    6.0460    8.1660 C.3    75  MET75       0.0401
     73  CG        25.7020    6.5980    8.7090 C.3    75  MET75       0.0596
     74  SD        27.1420    6.0560    7.7550 S.3    75  MET75      -0.1393
     75  CE        27.0070    4.2460    7.6840 C.3    75  MET75       0.0692
     76  N         21.3950    5.0850    7.9130 N.am   76  VAL76      -0.1980
     77  CA        20.3050    4.4890    7.1620 C.3    76  VAL76       0.1595
     78  C         19.1260    5.4310    7.1800 C.2    76  VAL76       0.2287
     79  O         18.6190    5.7470    6.1280 O.2    76  VAL76      -0.2864
     80  CB        19.8830    3.0910    7.7270 C.3    76  VAL76       0.0276
     81  CG1       18.5500    2.6900    7.1530 C.3    76  VAL76       0.0022
     82  CG2       20.9460    2.0820    7.3950 C.3    76  VAL76       0.0022
     83  N         19.7520    8.7220    5.2320 N.3    79  MET79      -0.1245
     84  CA        19.8810    8.4750    3.8430 C.3    79  MET79       0.1570
     85  C         18.4950    8.2860    3.2570 C.2    79  MET79       0.2261
     86  O         18.2170    8.8290    2.1940 O.2    79  MET79      -0.2867
     87  CB        20.7510    7.2820    3.5860 C.3    79  MET79       0.0387
     88  CG        21.1480    7.0230    2.1480 C.3    79  MET79       0.0595
     89  SD        19.9720    6.1080    1.1000 S.3    79  MET79      -0.1393
     90  CE        20.1170    4.4760    1.7740 C.3    79  MET79       0.0692
     91  N         17.1280   11.6300    2.7920 N.3    82  ARG82      -0.1245
     92  CA        17.7260   12.3530    1.6060 C.3    82  ARG82       0.1563
     93  C         17.1950   11.7970    0.3130 C.2    82  ARG82       0.2260
     94  O         17.0220   12.5220   -0.6800 O.2    82  ARG82      -0.2867
     95  CB        19.2450   12.1710    1.5190 C.3    82  ARG82       0.0307
     96  CG        20.0340   12.8310    2.5910 C.3    82  ARG82       0.0489
     97  CD        21.5190   12.9070    2.2460 C.3    82  ARG82       0.2205
     98  NE        22.1870   11.6020    2.3060 N.pl3  82  ARG82      -0.0865
     99  CZ        22.5260   10.9680    3.4260 C.cat  82  ARG82       0.5346
    100  NH1       22.2790   11.4710    4.6080 N.pl3  82  ARG82       0.1354
    101  NH2       23.1920    9.8310    3.3530 N.pl3  82  ARG82       0.1354
    102  N         22.8260    8.1650   -1.4050 N.3    94  PHE94      -0.1241
    103  CA        23.9050    8.0660   -0.4480 C.3    94  PHE94       0.1605
    104  C         24.6410    9.4310   -0.2820 C.2    94  PHE94       0.2264
    105  O         24.8590    9.8910    0.8520 O.2    94  PHE94      -0.2867
    106  CB        24.8630    6.9740   -0.8320 C.3    94  PHE94       0.0534
    107  CG        24.3210    5.5920   -0.6480 C.ar   94  PHE94      -0.0203
    108  CD1       23.8140    4.9140   -1.7190 C.ar   94  PHE94      -0.0042
    109  CD2       24.2280    5.0230    0.6040 C.ar   94  PHE94      -0.0042
    110  CE1       23.3630    3.5930   -1.5710 C.ar   94  PHE94      -0.0003
    111  CE2       23.7820    3.7110    0.7720 C.ar   94  PHE94      -0.0003
    112  CZ        23.3200    3.0070   -0.3180 C.ar   94  PHE94      -0.0000
    113  N         24.4810   -5.4800   -2.7700 N.3   110  MET110     -0.1196
    114  CA        23.7070   -5.0300   -1.6160 C.3   110  MET110      0.1786
    115  C         22.2950   -4.8360   -2.0340 C.2   110  MET110      0.2306
    116  O         21.5260   -4.0850   -1.4140 O.2   110  MET110     -0.2863
    117  CB        24.2150   -3.6780   -1.0580 C.2   110  MET110      0.0070
    118  CG        25.6190   -3.6620   -0.5750 C.2   110  MET110      0.0282
    119  SD        26.2620   -2.0140   -0.0920 S.3   110  MET110     -0.1125
    120  CE        25.1340   -1.6890    1.2500 C.3   110  MET110      0.0742
    121  N         16.1080   -0.3790    2.1300 N.3   117  MET117     -0.1245
    122  CA        16.2740    1.0790    2.4130 C.3   117  MET117      0.1570
    123  C         15.4230    1.9880    1.5520 C.2   117  MET117      0.2261
    124  O         14.9200    3.0450    2.0150 O.2   117  MET117     -0.2867
    125  CB        17.7490    1.4590    2.2550 C.3   117  MET117      0.0387
    126  CG        18.6340    0.8070    3.3060 C.3   117  MET117      0.0595
    127  SD        20.3240    1.4160    3.3030 S.3   117  MET117     -0.1393
    128  CE        21.0950    0.4930    2.0180 C.3   117  MET117      0.0692
    129  N         22.8320   -4.4340    7.3210 N.3   196  LEU196     -0.1245
    130  CA        23.9840   -3.6430    6.8990 C.3   196  LEU196      0.1561
    131  C         25.1950   -4.0010    7.7330 C.2   196  LEU196      0.2260
    132  O         26.2960   -4.1470    7.2240 O.2   196  LEU196     -0.2867
    133  CB        23.6090   -2.1730    6.9580 C.3   196  LEU196      0.0270
    134  CG        22.7330   -1.7990    5.7400 C.3   196  LEU196      0.0019
    135  CD1       21.9680   -0.5330    6.0190 C.3   196  LEU196      0.0001
    136  CD2       23.5840   -1.6510    4.4800 C.3   196  LEU196      0.0001
    137  N         26.6630   -7.2890    6.5080 N.3   199  PHE199     -0.1227
    138  CA        27.2840   -7.1400    5.1660 C.3   199  PHE199      0.1736
    139  C         28.6310   -6.4900    5.3020 C.2   199  PHE199      0.2595
    140  O         29.6750   -6.9010    4.6970 O.2   199  PHE199     -0.2718
    141  CB        26.3520   -6.2960    4.2540 C.3   199  PHE199      0.0547
    142  CG        26.9510   -5.9760    2.9080 C.ar  199  PHE199     -0.0202
    143  CD1       27.7540   -4.8740    2.7320 C.ar  199  PHE199     -0.0042
    144  CD2       26.7380   -6.8530    1.8160 C.ar  199  PHE199     -0.0042
    145  CE1       28.3240   -4.5810    1.4820 C.ar  199  PHE199     -0.0003
    146  CE2       27.3240   -6.5970    0.5630 C.ar  199  PHE199     -0.0003
    147  CZ        28.1220   -5.4590    0.3960 C.ar  199  PHE199     -0.0000
    148  N         28.6360   -5.4150    6.0820 N.am  200  ALA200     -0.1980
    149  CA        29.8700   -4.6660    6.3470 C.3   200  ALA200      0.1597
    150  C         30.9130   -5.5700    7.0340 C.2   200  ALA200      0.2287
    151  O         32.1110   -5.5790    6.6590 O.2   200  ALA200     -0.2864
    152  CB        29.5670   -3.4590    7.2450 C.3   200  ALA200      0.0319
    153  N         32.2900   -8.1760    4.5780 N.3   203  LEU203     -0.1245
    154  CA        33.1470   -7.5150    3.6380 C.3   203  LEU203      0.1561
    155  C         34.4780   -7.1630    4.2760 C.2   203  LEU203      0.2260
    156  O         35.5560   -7.2880    3.6640 O.2   203  LEU203     -0.2867
    157  CB        32.4350   -6.2550    3.0920 C.3   203  LEU203      0.0270
    158  CG        33.1280   -5.5420    1.9330 C.3   203  LEU203      0.0019
    159  CD1       33.3600   -6.4770    0.7650 C.3   203  LEU203      0.0001
    160  CD2       32.2890   -4.3710    1.4800 C.3   203  LEU203      0.0001
    161  N         39.1590   -0.3870    3.3630 N.3   214  PHE214     -0.1241
    162  CA        38.5050    0.1070    4.5470 C.3   214  PHE214      0.1605
    163  C         39.3350    1.1660    5.1860 C.2   214  PHE214      0.2264
    164  O         40.4880    0.9230    5.4890 O.2   214  PHE214     -0.2867
    165  CB        38.2400   -0.9980    5.5590 C.3   214  PHE214      0.0534
    166  CG        37.0420   -1.7850    5.2540 C.ar  214  PHE214     -0.0203
    167  CD1       37.0930   -2.8160    4.3520 C.ar  214  PHE214     -0.0042
    168  CD2       35.8220   -1.4820    5.8640 C.ar  214  PHE214     -0.0042
    169  CE1       35.9450   -3.5340    4.0200 C.ar  214  PHE214     -0.0003
    170  CE2       34.6860   -2.1970    5.5420 C.ar  214  PHE214     -0.0003
    171  CZ        34.7500   -3.2420    4.6390 C.ar  214  PHE214     -0.0000
    172  N         36.5740    2.7300   10.2290 N.3   218  MET218     -0.1245
    173  CA        35.5910    1.7610    9.7240 C.3   218  MET218      0.1570
    174  C         36.0720    0.3580   10.0920 C.2   218  MET218      0.2261
    175  O         35.3150   -0.4160   10.6080 O.2   218  MET218     -0.2867
    176  CB        35.3960    1.8610    8.1960 C.3   218  MET218      0.0387
    177  CG        34.6120    3.0740    7.7070 C.3   218  MET218      0.0595
    178  SD        32.8690    3.1450    8.2360 S.3   218  MET218     -0.1393
    179  CE        33.0420    4.3320    9.5830 C.3   218  MET218      0.0692
    180  N         33.8910   -1.7670   12.7930 N.3   222  ILE222     -0.1245
    181  CA        33.3090   -2.9740   12.2910 C.3   222  ILE222      0.1561
    182  C         33.9210   -4.2570   12.9340 C.2   222  ILE222      0.2260
    183  O         33.2380   -5.2340   13.0300 O.2   222  ILE222     -0.2867
    184  CB        33.4110   -3.0100   10.7550 C.3   222  ILE222      0.0252
    185  CG1       32.6790   -1.8080   10.1070 C.3   222  ILE222      0.0019
    186  CG2       32.8300   -4.3080   10.2250 C.3   222  ILE222      0.0019
    187  CD1       32.8760   -1.7270    8.6010 C.3   222  ILE222      0.0001
@<TRIPOS>BOND
     1     1     2    1
     2   113   114    1
     3     7     6    1
     4   115   114    1
     5   115   116    2
     6     2     5    1
     7     2     3    1
     8   108   110   ar
     9   108   107   ar
    10     6     5    1
    11     6     8    1
    12   114   117    1
    13   110   112   ar
    14   102   103    1
    15     3     4    2
    16   117   118    2
    17    15    14    1
    18   106   107    1
    19   106   103    1
    20    94    93    2
    21     9    10    1
    22   107   109   ar
    23    14    16    1
    24    14    13    1
    25   118   119    1
    26   103   104    1
    27   112   111   ar
    28   104   105    2
    29   119   120    1
    30    93    92    1
    31   147   146   ar
    32   147   145   ar
    33    13    10    1
    34    10    11    1
    35   146   144   ar
    36   109   111   ar
    37   159   158    1
    38    32    30    1
    39    89    90    1
    40    89    88    1
    41   160   158    1
    42   145   143   ar
    43    95    92    1
    44    95    96    1
    45   123   124    2
    46   123   122    1
    47    92    91    1
    48    11    17   am
    49    11    12    2
    50    17    18    1
    51   144   142   ar
    52    29    30    1
    53    29    26    1
    54   158   157    1
    55   128   127    1
    56    31    30    1
    57   121   122    1
    58    88    87    1
    59    86    85    2
    60    97    98    1
    61    97    96    1
    62   125   122    1
    63   125   126    1
    64    98    99    2
    65    25    26    1
    66    24    22   am
    67   143   142   ar
    68    26    27    1
    69    21    22    1
    70    21    18    1
    71    22    23    2
    72   142   141    1
    73    18    19    1
    74   157   154    1
    75    85    84    1
    76   127   126    1
    77   101    99    1
    78   161   162    1
    79    19    20    2
    80    99   100    1
    81    87    84    1
    82   154   155    1
    83   154   153    1
    84   156   155    2
    85    84    83    1
    86   169   167   ar
    87   169   171   ar
    88    44    43    2
    89    27    33   am
    90    27    28    2
    91   141   138    1
    92   167   166   ar
    93   136   134    1
    94   162   163    1
    95   162   165    1
    96    33    34    1
    97   171   170   ar
    98   140   139    2
    99   138   139    1
   100   138   137    1
   101   163   164    2
   102    43    42    1
   103    43    45   am
   104   166   165    1
   105   166   168   ar
   106   139   148   am
   107   170   168   ar
   108   134   135    1
   109   134   133    1
   110    42    41    1
   111    34    35    1
   112   148   149    1
   113    79    78    2
   114   149   150    1
   115   149   152    1
   116    71    70    2
   117   151   150    2
   118   130   133    1
   119   130   129    1
   120   130   131    1
   121    35    36    2
   122    37    38    1
   123    81    80    1
   124    77    78    1
   125    77    80    1
   126    77    76    1
   127    41    38    1
   128   132   131    2
   129    82    80    1
   130    70    76   am
   131    70    69    1
   132    75    74    1
   133   177   176    1
   134   177   178    1
   135    74    73    1
   136    38    39    1
   137    72    69    1
   138    72    73    1
   139    66    67    1
   140    66    65    1
   141   176   173    1
   142   178   179    1
   143    69    68    1
   144   187   185    1
   145    39    40    2
   146    57    59   ar
   147    57    55   ar
   148    65    64    1
   149   173   174    1
   150   173   172    1
   151    63    62    2
   152    59    58   ar
   153   174   175    2
   154   185   184    1
   155   186   184    1
   156    54    55   ar
   157    54    52   ar
   158    55    53   ar
   159   184   181    1
   160    62    61    1
   161    64    61    1
   162    61    60    1
   163    58    56   ar
   164    52    51   ar
   165    49    48    2
   166    53    56   ar
   167    53    51   ar
   168    60    48   am
   169   181   180    1
   170   181   182    1
   171    51    50    1
   172    48    47    1
   173   182   183    2
   174    50    47    1
   175    47    46    1
