@<TRIPOS>MOLECULE
tmp/4oh5A00.pdb
 115 107 0 0 0
SMALL
GASTEIGER

@<TRIPOS>ATOM
      1  N         30.4920    9.3160    9.6780 N.3    42  LEU42      -0.1231
      2  CA        30.7030    9.0650   11.1100 C.3    42  LEU42       0.1693
      3  C         31.3440   10.2990   11.8370 C.2    42  LEU42       0.2591
      4  O         31.0310   10.6130   12.9450 O.2    42  LEU42      -0.2718
      5  CB        31.6250    7.8840   11.2710 C.3    42  LEU42       0.0284
      6  CG        32.1060    7.5650   12.6900 C.3    42  LEU42       0.0019
      7  CD1       30.8750    7.2270   13.5010 C.3    42  LEU42       0.0001
      8  CD2       33.0670    6.3510   12.6460 C.3    42  LEU42       0.0001
      9  N         32.2630   10.9600   11.1760 N.am   43  VAL43      -0.1980
     10  CA        32.8160   12.2060   11.7240 C.3    43  VAL43       0.1595
     11  C         31.7120   13.2010   11.9810 C.2    43  VAL43       0.2287
     12  O         31.6830   13.8220   13.0630 O.2    43  VAL43      -0.2864
     13  CB        33.8850   12.8040   10.7740 C.3    43  VAL43       0.0276
     14  CG1       34.2170   14.2460   11.1690 C.3    43  VAL43       0.0022
     15  CG2       35.0990   11.8520   10.6530 C.3    43  VAL43       0.0022
     16  N         29.4420   12.0580   14.9880 N.3    46  VAL46      -0.1231
     17  CA        30.1060   12.3960   16.2380 C.3    46  VAL46       0.1692
     18  C         29.8880   13.8850   16.5710 C.2    46  VAL46       0.2591
     19  O         29.4940   14.2490   17.6850 O.2    46  VAL46      -0.2718
     20  CB        31.6290   12.1110   16.1740 C.3    46  VAL46       0.0266
     21  CG1       32.3410   12.6920   17.4100 C.3    46  VAL46       0.0020
     22  CG2       31.9660   10.6320   16.0250 C.3    46  VAL46       0.0020
     23  N         30.2080   14.7580   15.6490 N.am   47  LYS47      -0.1980
     24  CA        30.0730   16.2190   15.9750 C.3    47  LYS47       0.1596
     25  C         28.6440   16.6720   16.2710 C.2    47  LYS47       0.2287
     26  O         28.3780   17.5400   17.0840 O.2    47  LYS47      -0.2864
     27  CB        30.5750   17.0270   14.7770 C.3    47  LYS47       0.0298
     28  CG        32.0650   16.8600   14.4570 C.3    47  LYS47       0.0038
     29  CD        32.2510   17.2370   12.9800 C.3    47  LYS47       0.0206
     30  CE        33.5630   17.8600   12.6400 C.3    47  LYS47       0.1093
     31  NZ        33.3820   18.4700   11.2890 N.3    47  LYS47      -0.1314
     32  N         27.5620   14.8640   19.9670 N.3    50  LYS50      -0.1245
     33  CA        28.1610   15.6740   21.0390 C.3    50  LYS50       0.1561
     34  C         27.4500   17.0090   21.2810 C.2    50  LYS50       0.2260
     35  O         27.4460   17.5330   22.3840 O.2    50  LYS50      -0.2867
     36  CB        29.6630   15.8500   20.7650 C.3    50  LYS50       0.0271
     37  CG        30.4350   14.5400   20.8700 C.3    50  LYS50       0.0035
     38  CD        31.9140   14.8090   20.6670 C.3    50  LYS50       0.0206
     39  CE        32.5250   15.4270   21.9120 C.3    50  LYS50       0.1093
     40  NZ        34.0240   15.4620   21.7740 N.3    50  LYS50      -0.1314
     41  N         31.1290    9.7270   29.7230 N.3    60  VAL60      -0.1245
     42  CA        31.8110    9.8620   28.4530 C.3    60  VAL60       0.1561
     43  C         32.0650    8.5180   27.7400 C.2    60  VAL60       0.2260
     44  O         32.1890    8.5010   26.5240 O.2    60  VAL60      -0.2867
     45  CB        33.1230   10.6730   28.5960 C.3    60  VAL60       0.0252
     46  CG1       34.1760    9.8380   29.2930 C.3    60  VAL60       0.0019
     47  CG2       33.6300   11.1190   27.2490 C.3    60  VAL60       0.0019
     48  N         28.7890    7.9140   26.0550 N.3    63  GLN63      -0.1231
     49  CA        28.7410    8.8330   24.9100 C.3    63  GLN63       0.1698
     50  C         29.3460    8.1980   23.6760 C.2    63  GLN63       0.2592
     51  O         28.7110    8.1080   22.6230 O.2    63  GLN63      -0.2718
     52  CB        29.5100   10.1250   25.2300 C.3    63  GLN63       0.0381
     53  CG        28.8410   10.9740   26.2760 C.3    63  GLN63       0.0905
     54  CD        29.5740   12.2790   26.5860 C.2    63  GLN63       0.2608
     55  OE1       29.4460   12.8440   27.6610 O.2    63  GLN63      -0.2717
     56  NE2       30.2910   12.7470   25.6540 N.am   63  GLN63      -0.0878
     57  N         30.5450    7.6540   23.8440 N.am   64  MET64      -0.1979
     58  CA        31.2790    7.0540   22.7480 C.3    64  MET64       0.1605
     59  C         30.5880    5.8010   22.2630 C.2    64  MET64       0.2287
     60  O         30.3830    5.5700   21.0560 O.2    64  MET64      -0.2864
     61  CB        32.7080    6.7190   23.1740 C.3    64  MET64       0.0413
     62  CG        33.5660    7.9440   23.4560 C.3    64  MET64       0.0598
     63  SD        35.3310    7.5770   23.5780 S.3    64  MET64      -0.1393
     64  CE        35.4410    6.4180   24.9400 C.3    64  MET64       0.0692
     65  N         27.2050    6.2410   20.2100 N.3    67  ILE67      -0.1231
     66  CA        27.4690    6.6630   18.8330 C.3    67  ILE67       0.1692
     67  C         27.9060    5.5390   17.9090 C.2    67  ILE67       0.2591
     68  O         27.3940    5.3600   16.7760 O.2    67  ILE67      -0.2718
     69  CB        28.5470    7.7570   18.7860 C.3    67  ILE67       0.0266
     70  CG1       28.0260    9.0360   19.4570 C.3    67  ILE67       0.0019
     71  CG2       29.0040    7.9490   17.3450 C.3    67  ILE67       0.0020
     72  CD1       29.1420   10.0390   19.7530 C.3    67  ILE67       0.0001
     73  N         28.8830    4.8070   18.4120 N.am   68  GLN68      -0.1979
     74  CA        29.4460    3.6320   17.7560 C.3    68  GLN68       0.1601
     75  C         28.3650    2.5720   17.4570 C.2    68  GLN68       0.2287
     76  O         28.2650    2.0580   16.3310 O.2    68  GLN68      -0.2864
     77  CB        30.5230    3.0730   18.6350 C.3    68  GLN68       0.0394
     78  CG        31.8060    3.8890   18.5380 C.3    68  GLN68       0.0908
     79  CD        32.8340    3.4870   19.5510 C.2    68  GLN68       0.2608
     80  OE1       32.6540    3.6550   20.7560 O.2    68  GLN68      -0.2717
     81  NE2       33.9040    2.9500   19.0740 N.am   68  GLN68      -0.0878
     82  N         40.5590    3.4810    8.3460 N.3   216  GLU216     -0.1231
     83  CA        40.8330    3.3290    9.7750 C.3   216  GLU216      0.1699
     84  C         39.6460    3.1220   10.7300 C.2   216  GLU216      0.2592
     85  O         39.5310    2.0610   11.3610 O.2   216  GLU216     -0.2718
     86  CB        41.6190    4.5520   10.2510 C.3   216  GLU216      0.0402
     87  CG        43.0200    4.6550    9.6680 C.3   216  GLU216      0.1161
     88  CD        43.7400    5.9170   10.1060 C.2   216  GLU216      0.3649
     89  OE1       43.0880    6.7980   10.7040 O.co2 216  GLU216     -0.2457
     90  OE2       44.9570    6.0280    9.8490 O.co2 216  GLU216     -0.2457
     91  N         38.8120    4.1330   10.8930 N.am  217  MET217     -0.1979
     92  CA        37.7530    4.0760   11.8470 C.3   217  MET217      0.1605
     93  C         36.7670    2.9730   11.5260 C.2   217  MET217      0.2287
     94  O         36.1620    2.3980   12.4420 O.2   217  MET217     -0.2864
     95  CB        36.9930    5.3900   11.8700 C.3   217  MET217      0.0413
     96  CG        36.9750    6.0270   13.2250 C.3   217  MET217      0.0598
     97  SD        36.8800    7.8050   13.1910 S.3   217  MET217     -0.1393
     98  CE        36.2360    8.2280   11.5590 C.3   217  MET217      0.0692
     99  N         38.1770   -0.5400   12.4610 N.3   220  GLU220     -0.1231
    100  CA        38.1210   -0.6230   13.9180 C.3   220  GLU220      0.1699
    101  C         36.7180   -0.8360   14.4030 C.2   220  GLU220      0.2592
    102  O         36.4760   -1.7780   15.1260 O.2   220  GLU220     -0.2718
    103  CB        38.7040    0.6380   14.5630 C.3   220  GLU220      0.0402
    104  CG        38.3370    0.7930   16.0440 C.3   220  GLU220      0.1161
    105  CD        38.9900    1.9850   16.6980 C.2   220  GLU220      0.3649
    106  OE1       40.1440    1.8660   17.1540 O.co2 220  GLU220     -0.2457
    107  OE2       38.3660    3.0500   16.7550 O.co2 220  GLU220     -0.2457
    108  N         35.7730    0.0210   14.0110 N.am  221  ILE221     -0.1980
    109  CA        34.4020   -0.1070   14.4900 C.3   221  ILE221      0.1595
    110  C         33.6980   -1.3890   14.0450 C.2   221  ILE221      0.2287
    111  O         32.9660   -1.9990   14.8050 O.2   221  ILE221     -0.2864
    112  CB        33.4900    1.0850   14.0520 C.3   221  ILE221      0.0276
    113  CG1       33.7050    2.3150   14.9370 C.3   221  ILE221      0.0022
    114  CG2       32.0540    0.7160   14.1870 C.3   221  ILE221      0.0022
    115  CD1       32.7800    3.4870   14.6310 C.3   221  ILE221      0.0001
@<TRIPOS>BOND
     1    82    83    1
     2    87    88    1
     3    87    86    1
     4     1     2    1
     5    83    86    1
     6    83    84    1
     7    90    88   ar
     8    88    89   ar
     9    15    13    1
    10    84    91   am
    11    84    85    2
    12    13    14    1
    13    13    10    1
    14    91    92    1
    15     2     5    1
    16     2     3    1
    17     9    10    1
    18     9     3   am
    19     5     6    1
    20    31    30    1
    21    93    92    1
    22    93    94    2
    23    98    97    1
    24    10    11    1
    25     3     4    2
    26    92    95    1
    27    95    96    1
    28    11    12    2
    29    99   100    1
    30    30    29    1
    31     8     6    1
    32     6     7    1
    33    29    28    1
    34    97    96    1
    35   100   101    1
    36   100   103    1
    37   108   101   am
    38   108   109    1
    39   110   109    1
    40   110   111    2
    41   112   114    1
    42   112   109    1
    43   112   113    1
    44   101   102    2
    45    28    27    1
    46   103   104    1
    47   115   113    1
    48    27    24    1
    49    16    17    1
    50    23    24    1
    51    23    18   am
    52    24    25    1
    53    22    20    1
    54   104   105    1
    55    20    17    1
    56    20    21    1
    57    17    18    1
    58    25    26    2
    59    76    75    2
    60    18    19    2
    61   105   107   ar
    62   105   106   ar
    63    68    67    2
    64    71    69    1
    65    75    74    1
    66    74    73    1
    67    74    77    1
    68    67    73   am
    69    67    66    1
    70    78    77    1
    71    78    79    1
    72    69    66    1
    73    69    70    1
    74    66    65    1
    75    81    79   am
    76    70    72    1
    77    79    80    2
    78    32    33    1
    79    38    37    1
    80    38    39    1
    81    36    37    1
    82    36    33    1
    83    33    34    1
    84    60    59    2
    85    34    35    2
    86    40    39    1
    87    59    58    1
    88    51    50    2
    89    58    61    1
    90    58    57    1
    91    61    62    1
    92    62    63    1
    93    63    64    1
    94    50    57   am
    95    50    49    1
    96    49    52    1
    97    49    48    1
    98    52    53    1
    99    56    54   am
   100    53    54    1
   101    44    43    2
   102    54    55    2
   103    47    45    1
   104    43    42    1
   105    42    45    1
   106    42    41    1
   107    45    46    1
