@<TRIPOS>MOLECULE
tmp/4oh6A00.pdb
 133 124 0 0 0
SMALL
GASTEIGER

@<TRIPOS>ATOM
      1  N         30.7620    9.2350    9.5250 N.3    42  LEU42      -0.1231
      2  CA        31.0450    8.9520   10.9550 C.3    42  LEU42       0.1693
      3  C         31.6390   10.1400   11.7150 C.2    42  LEU42       0.2591
      4  O         31.1750   10.4740   12.8150 O.2    42  LEU42      -0.2718
      5  CB        31.9370    7.7100   11.1330 C.3    42  LEU42       0.0284
      6  CG        32.6030    7.4610   12.4950 C.3    42  LEU42       0.0019
      7  CD1       31.5940    7.4680   13.6350 C.3    42  LEU42       0.0001
      8  CD2       33.3670    6.1440   12.4680 C.3    42  LEU42       0.0001
      9  N         32.6680   10.7530   11.1320 N.am   43  VAL43      -0.1980
     10  CA        33.2440   11.9810   11.6710 C.3    43  VAL43       0.1595
     11  C         32.1090   12.9150   12.0710 C.2    43  VAL43       0.2287
     12  O         32.1020   13.4920   13.1610 O.2    43  VAL43      -0.2864
     13  CB        34.1600   12.6810   10.6390 C.3    43  VAL43       0.0276
     14  CG1       34.5150   14.1000   11.0720 C.3    43  VAL43       0.0022
     15  CG2       35.4160   11.8580   10.3960 C.3    43  VAL43       0.0022
     16  N         30.0900   11.9480   15.1110 N.3    46  VAL46      -0.1231
     17  CA        30.9690   12.2350   16.2400 C.3    46  VAL46       0.1692
     18  C         30.7840   13.6690   16.7080 C.2    46  VAL46       0.2591
     19  O         30.6950   13.9410   17.9040 O.2    46  VAL46      -0.2718
     20  CB        32.4440   12.0060   15.8570 C.3    46  VAL46       0.0266
     21  CG1       33.3860   12.5680   16.9120 C.3    46  VAL46       0.0020
     22  CG2       32.7010   10.5250   15.6260 C.3    46  VAL46       0.0020
     23  N         30.7110   14.5770   15.7480 N.am   47  LYS47      -0.1980
     24  CA        30.5840   15.9820   16.0440 C.3    47  LYS47       0.1596
     25  C         29.1510   16.3520   16.4200 C.2    47  LYS47       0.2287
     26  O         28.9400   17.1470   17.3390 O.2    47  LYS47      -0.2864
     27  CB        31.0560   16.7900   14.8420 C.3    47  LYS47       0.0298
     28  CG        32.4280   16.3650   14.3440 C.3    47  LYS47       0.0038
     29  CD        33.1060   17.4350   13.4980 C.3    47  LYS47       0.0206
     30  CE        34.5990   17.1520   13.3740 C.3    47  LYS47       0.1093
     31  NZ        35.4070   18.3810   13.1120 N.3    47  LYS47      -0.1314
     32  N         28.0720   14.8910   19.9370 N.3    50  LYS50      -0.1245
     33  CA        28.7720   15.6590   20.9740 C.3    50  LYS50       0.1561
     34  C         27.9850   16.8990   21.3980 C.2    50  LYS50       0.2260
     35  O         28.1050   17.3570   22.5300 O.2    50  LYS50      -0.2867
     36  CB        30.1780   16.0650   20.5110 C.3    50  LYS50       0.0271
     37  CG        31.3270   15.2760   21.1450 C.3    50  LYS50       0.0035
     38  CD        32.7140   15.9240   20.9240 C.3    50  LYS50       0.0206
     39  CE        32.9810   17.1800   21.7880 C.3    50  LYS50       0.1093
     40  NZ        34.4080   17.5670   22.0770 N.3    50  LYS50      -0.1314
     41  N         24.0510   15.4030   25.9200 N.3    55  PHE55      -0.1241
     42  CA        24.8300   14.2360   25.4990 C.3    55  PHE55       0.1605
     43  C         26.0270   14.0140   26.4100 C.2    55  PHE55       0.2264
     44  O         26.3130   12.8780   26.7970 O.2    55  PHE55      -0.2867
     45  CB        25.2810   14.3270   24.0430 C.3    55  PHE55       0.0534
     46  CG        25.8710   13.0460   23.5250 C.ar   55  PHE55      -0.0203
     47  CD1       25.1080   11.8840   23.4760 C.ar   55  PHE55      -0.0042
     48  CD2       27.1940   12.9920   23.1050 C.ar   55  PHE55      -0.0042
     49  CE1       25.6560   10.6970   23.0030 C.ar   55  PHE55      -0.0003
     50  CE2       27.7440   11.8100   22.6230 C.ar   55  PHE55      -0.0003
     51  CZ        26.9770   10.6600   22.5740 C.ar   55  PHE55      -0.0000
     52  N         31.5210    9.2620   29.1370 N.3    60  VAL60      -0.1245
     53  CA        32.3690    9.3900   27.9780 C.3    60  VAL60       0.1561
     54  C         32.5640    8.0620   27.2150 C.2    60  VAL60       0.2260
     55  O         32.5890    8.0640   25.9820 O.2    60  VAL60      -0.2867
     56  CB        33.7020   10.0600   28.3830 C.3    60  VAL60       0.0252
     57  CG1       34.0980    9.6810   29.8150 C.3    60  VAL60       0.0019
     58  CG2       34.8120    9.7740   27.3740 C.3    60  VAL60       0.0019
     59  N         29.0840    7.5110   25.7810 N.3    63  GLN63      -0.1231
     60  CA        29.0450    8.3900   24.6310 C.3    63  GLN63       0.1698
     61  C         29.6460    7.7150   23.4070 C.2    63  GLN63       0.2592
     62  O         28.9560    7.5320   22.4110 O.2    63  GLN63      -0.2718
     63  CB        29.8050    9.6730   24.9240 C.3    63  GLN63       0.0381
     64  CG        29.0410   10.6660   25.7770 C.3    63  GLN63       0.0905
     65  CD        29.7990   11.9590   25.9930 C.2    63  GLN63       0.2608
     66  OE1       29.5550   12.6690   26.9650 O.2    63  GLN63      -0.2717
     67  NE2       30.7280   12.2700   25.0940 N.am   63  GLN63      -0.0878
     68  N         30.9180    7.3320   23.4800 N.am   64  MET64      -0.1979
     69  CA        31.5710    6.6520   22.3620 C.3    64  MET64       0.1605
     70  C         30.7980    5.4150   21.9350 C.2    64  MET64       0.2287
     71  O         30.5270    5.2220   20.7430 O.2    64  MET64      -0.2864
     72  CB        32.9870    6.2390   22.7380 C.3    64  MET64       0.0413
     73  CG        33.8910    7.4040   23.0750 C.3    64  MET64       0.0598
     74  SD        35.3520    6.8470   23.9640 S.3    64  MET64      -0.1393
     75  CE        35.8600    8.3730   24.7590 C.3    64  MET64       0.0692
     76  N         27.5100    5.9670   20.1060 N.3    67  ILE67      -0.1231
     77  CA        27.8470    6.4440   18.7580 C.3    67  ILE67       0.1692
     78  C         28.3590    5.2990   17.8900 C.2    67  ILE67       0.2591
     79  O         27.8800    5.1090   16.7650 O.2    67  ILE67      -0.2718
     80  CB        28.8670    7.6090   18.7750 C.3    67  ILE67       0.0266
     81  CG1       28.1810    8.8810   19.3060 C.3    67  ILE67       0.0019
     82  CG2       29.4570    7.8430   17.3830 C.3    67  ILE67       0.0020
     83  CD1       29.1080   10.0250   19.6790 C.3    67  ILE67       0.0001
     84  N         29.3100    4.5340   18.4280 N.am   68  GLN68      -0.1979
     85  CA        29.9000    3.4260   17.7070 C.3    68  GLN68       0.1601
     86  C         28.8670    2.4450   17.2130 C.2    68  GLN68       0.2287
     87  O         28.9680    1.9890   16.0700 O.2    68  GLN68      -0.2864
     88  CB        30.9390    2.7340   18.5520 C.3    68  GLN68       0.0394
     89  CG        32.2850    3.3990   18.4100 C.3    68  GLN68       0.0908
     90  CD        33.2190    3.0800   19.5530 C.2    68  GLN68       0.2608
     91  OE1       33.0490    3.5850   20.6720 O.2    68  GLN68      -0.2717
     92  NE2       34.2320    2.2480   19.2760 N.am   68  GLN68      -0.0878
     93  N         41.1910    3.1260    8.2180 N.3   216  GLU216     -0.1231
     94  CA        41.6660    2.5220    9.4460 C.3   216  GLU216      0.1699
     95  C         40.5040    2.4160   10.4310 C.2   216  GLU216      0.2592
     96  O         40.1720    1.3200   10.8980 O.2   216  GLU216     -0.2718
     97  CB        42.8140    3.3340   10.0490 C.3   216  GLU216      0.0402
     98  CG        44.0870    3.3230    9.2170 C.3   216  GLU216      0.1161
     99  CD        45.1760    4.1970    9.8100 C.2   216  GLU216      0.3649
    100  OE1       44.8820    4.9550   10.7580 O.co2 216  GLU216     -0.2457
    101  OE2       46.3260    4.1260    9.3270 O.co2 216  GLU216     -0.2457
    102  N         39.8500    3.5460   10.6820 N.am  217  MET217     -0.1979
    103  CA        38.7890    3.6200   11.6810 C.3   217  MET217      0.1605
    104  C         37.5560    2.7630   11.3420 C.2   217  MET217      0.2287
    105  O         36.9230    2.1790   12.2410 O.2   217  MET217     -0.2864
    106  CB        38.4050    5.0800   11.9170 C.3   217  MET217      0.0413
    107  CG        37.5080    5.3090   13.1230 C.3   217  MET217      0.0598
    108  SD        37.4840    7.0380   13.6280 S.3   217  MET217     -0.1393
    109  CE        36.5960    7.8030   12.2670 C.3   217  MET217      0.0692
    110  N         38.2580   -0.8040   12.1520 N.3   220  GLU220     -0.1231
    111  CA        38.2770   -0.9330   13.6120 C.3   220  GLU220      0.1699
    112  C         36.8840   -1.0710   14.1870 C.2   220  GLU220      0.2592
    113  O         36.6190   -2.0250   14.9120 O.2   220  GLU220     -0.2718
    114  CB        39.0070    0.2240   14.2900 C.3   220  GLU220      0.0402
    115  CG        39.3240   -0.0400   15.7580 C.3   220  GLU220      0.1161
    116  CD        38.9140    1.1110   16.6660 C.2   220  GLU220      0.3649
    117  OE1       39.3360    2.2650   16.4040 O.co2 220  GLU220     -0.2457
    118  OE2       38.1730    0.8660   17.6510 O.co2 220  GLU220     -0.2457
    119  N         36.0020   -0.1320   13.8610 N.am  221  ILE221     -0.1980
    120  CA        34.6290   -0.2240   14.3240 C.3   221  ILE221      0.1595
    121  C         33.9780   -1.5320   13.8880 C.2   221  ILE221      0.2287
    122  O         33.3270   -2.2040   14.6900 O.2   221  ILE221     -0.2864
    123  CB        33.7900    1.0000   13.9120 C.3   221  ILE221      0.0276
    124  CG1       33.9450    2.0970   14.9720 C.3   221  ILE221      0.0022
    125  CG2       32.3100    0.6420   13.7480 C.3   221  ILE221      0.0022
    126  CD1       33.0230    3.2930   14.7940 C.3   221  ILE221      0.0001
    127  N         35.6310   -4.5660   15.8920 N.3   224  VAL224     -0.1245
    128  CA        35.6400   -4.5800   17.3430 C.3   224  VAL224      0.1561
    129  C         34.2890   -4.2520   18.0080 C.2   224  VAL224      0.2260
    130  O         33.9840   -4.7500   19.1020 O.2   224  VAL224     -0.2867
    131  CB        36.8290   -3.7400   17.8670 C.3   224  VAL224      0.0252
    132  CG1       36.3820   -2.5780   18.7500 C.3   224  VAL224      0.0019
    133  CG2       37.8420   -4.6540   18.5490 C.3   224  VAL224      0.0019
@<TRIPOS>BOND
     1    93    94    1
     2    98    99    1
     3    98    97    1
     4   101    99   ar
     5    94    97    1
     6    94    95    1
     7     1     2    1
     8    99   100   ar
     9    15    13    1
    10    95   102   am
    11    95    96    2
    12    13    14    1
    13    13    10    1
    14   102   103    1
    15     2     5    1
    16     2     3    1
    17     9    10    1
    18     9     3   am
    19     5     6    1
    20   104   103    1
    21   104   105    2
    22    10    11    1
    23   103   106    1
    24     3     4    2
    25   106   107    1
    26    11    12    2
    27   110   111    1
    28   109   108    1
    29     8     6    1
    30     6     7    1
    31    31    30    1
    32   107   108    1
    33    30    29    1
    34    29    28    1
    35   111   112    1
    36   111   114    1
    37   125   123    1
    38   119   112   am
    39   119   120    1
    40   121   120    1
    41   121   122    2
    42   123   120    1
    43   123   124    1
    44   112   113    2
    45   114   115    1
    46    28    27    1
    47   126   124    1
    48    27    24    1
    49    16    17    1
    50    22    20    1
    51    23    24    1
    52    23    18   am
    53   115   116    1
    54    20    17    1
    55    20    21    1
    56   127   128    1
    57    24    25    1
    58    87    86    2
    59    17    18    1
    60   117   116   ar
    61    25    26    2
    62   116   118   ar
    63    18    19    2
    64    79    78    2
    65    86    85    1
    66   128   131    1
    67   128   129    1
    68    82    80    1
    69    85    84    1
    70    85    88    1
    71   131   133    1
    72   131   132    1
    73    78    84   am
    74    78    77    1
    75   129   130    2
    76    89    88    1
    77    89    90    1
    78    77    80    1
    79    77    76    1
    80    80    81    1
    81    92    90   am
    82    81    83    1
    83    90    91    2
    84    32    33    1
    85    36    33    1
    86    36    37    1
    87    71    70    2
    88    38    37    1
    89    38    39    1
    90    33    34    1
    91    34    35    2
    92    39    40    1
    93    70    69    1
    94    69    72    1
    95    69    68    1
    96    62    61    2
    97    51    50   ar
    98    51    49   ar
    99    50    48   ar
   100    72    73    1
   101    49    47   ar
   102    73    74    1
   103    48    46   ar
   104    61    68   am
   105    61    60    1
   106    47    46   ar
   107    46    45    1
   108    74    75    1
   109    45    42    1
   110    60    63    1
   111    60    59    1
   112    63    64    1
   113    67    65   am
   114    42    41    1
   115    42    43    1
   116    64    65    1
   117    55    54    2
   118    65    66    2
   119    43    44    2
   120    54    53    1
   121    58    56    1
   122    53    56    1
   123    53    52    1
   124    56    57    1
