@<TRIPOS>MOLECULE
tmp/4ohaA00.pdb
 126 118 0 0 0
SMALL
GASTEIGER

@<TRIPOS>ATOM
      1  N          3.2420   -9.4460   24.6430 N.3    42  LEU42      -0.1231
      2  CA         3.4390   -9.1810   23.1900 C.3    42  LEU42       0.1693
      3  C          4.0430  -10.4280   22.4940 C.2    42  LEU42       0.2591
      4  O          3.5970  -10.8060   21.3710 O.2    42  LEU42      -0.2718
      5  CB         4.2900   -7.9240   22.9820 C.3    42  LEU42       0.0284
      6  CG         4.5470   -7.6370   21.5030 C.3    42  LEU42       0.0019
      7  CD1        3.2180   -7.3910   20.7900 C.3    42  LEU42       0.0001
      8  CD2        5.4140   -6.3990   21.4690 C.3    42  LEU42       0.0001
      9  N          4.9930  -11.1300   23.0570 N.am   43  VAL43      -0.1980
     10  CA         5.5530  -12.3450   22.5140 C.3    43  VAL43       0.1595
     11  C          4.4210  -13.4000   22.2910 C.2    43  VAL43       0.2287
     12  O          4.3420  -14.0460   21.2230 O.2    43  VAL43      -0.2864
     13  CB         6.6270  -12.9120   23.4620 C.3    43  VAL43       0.0276
     14  CG1        7.0570  -14.3270   23.0360 C.3    43  VAL43       0.0022
     15  CG2        7.8610  -11.9620   23.4800 C.3    43  VAL43       0.0022
     16  N          2.2010  -12.4020   19.3690 N.3    46  VAL46      -0.1231
     17  CA         2.7930  -12.7140   18.0680 C.3    46  VAL46       0.1692
     18  C          2.5560  -14.1800   17.6930 C.2    46  VAL46       0.2591
     19  O          2.1470  -14.4710   16.5460 O.2    46  VAL46      -0.2718
     20  CB         4.2990  -12.3310   18.0430 C.3    46  VAL46       0.0266
     21  CG1        5.0170  -12.9930   16.9100 C.3    46  VAL46       0.0020
     22  CG2        4.4750  -10.8150   18.0600 C.3    46  VAL46       0.0020
     23  N          2.8290  -15.0610   18.6360 N.am   47  LYS47      -0.1980
     24  CA         2.6310  -16.4960   18.3540 C.3    47  LYS47       0.1596
     25  C          1.2200  -16.8470   18.0690 C.2    47  LYS47       0.2287
     26  O          0.9220  -17.5880   17.1510 O.2    47  LYS47      -0.2864
     27  CB         3.1570  -17.3260   19.5180 C.3    47  LYS47       0.0298
     28  CG         4.6730  -17.1470   19.7220 C.3    47  LYS47       0.0038
     29  CD         5.0950  -18.0900   20.8190 C.3    47  LYS47       0.0206
     30  CE         6.4290  -17.7340   21.4220 C.3    47  LYS47       0.1093
     31  NZ         6.5080  -18.5310   22.6640 N.3    47  LYS47      -0.1314
     32  N          0.0460  -15.1760   14.4430 N.3    50  LYS50      -0.1245
     33  CA         0.6180  -15.9560   13.3140 C.3    50  LYS50       0.1561
     34  C         -0.1810  -17.2040   13.0590 C.2    50  LYS50       0.2260
     35  O         -0.1200  -17.6860   11.8730 O.2    50  LYS50      -0.2867
     36  CB         2.0850  -16.3480   13.6050 C.3    50  LYS50       0.0271
     37  CG         3.0270  -15.2100   13.4070 C.3    50  LYS50       0.0035
     38  CD         4.4150  -15.7430   13.8080 C.3    50  LYS50       0.0206
     39  CE         5.5250  -14.8350   13.4370 C.3    50  LYS50       0.1093
     40  NZ         6.7850  -15.6420   13.6640 N.3    50  LYS50      -0.1314
     41  N         -4.3960  -15.2820    8.5310 N.3    55  PHE55      -0.1241
     42  CA        -3.5290  -14.1340    8.8270 C.3    55  PHE55       0.1605
     43  C         -2.2900  -14.0560    7.9580 C.2    55  PHE55       0.2264
     44  O         -1.8200  -12.9700    7.6430 O.2    55  PHE55      -0.2867
     45  CB        -3.1310  -14.2220   10.3020 C.3    55  PHE55       0.0534
     46  CG        -2.4420  -12.9650   10.8330 C.ar   55  PHE55      -0.0203
     47  CD1       -3.1050  -11.7910   10.9620 C.ar   55  PHE55      -0.0042
     48  CD2       -1.1110  -12.9830   11.1060 C.ar   55  PHE55      -0.0042
     49  CE1       -2.4860  -10.6490   11.4900 C.ar   55  PHE55      -0.0003
     50  CE2       -0.4820  -11.8600   11.5780 C.ar   55  PHE55      -0.0003
     51  CZ        -1.1580  -10.7250   11.7810 C.ar   55  PHE55      -0.0000
     52  N          3.4430   -9.4680    4.8550 N.3    60  VAL60      -0.1245
     53  CA         4.2030   -9.5210    6.0950 C.3    60  VAL60       0.1561
     54  C          4.3400   -8.1700    6.7950 C.2    60  VAL60       0.2260
     55  O          4.2710   -8.1280    8.0400 O.2    60  VAL60      -0.2867
     56  CB         5.5880  -10.2180    5.9150 C.3    60  VAL60       0.0252
     57  CG1        6.5360   -9.3680    5.0820 C.3    60  VAL60       0.0019
     58  CG2        6.2070  -10.5340    7.2480 C.3    60  VAL60       0.0019
     59  N          1.0320   -7.6780    8.5220 N.3    63  GLN63      -0.1231
     60  CA         0.9720   -8.5610    9.7170 C.3    63  GLN63       0.1698
     61  C          1.6570   -7.9090   10.8870 C.2    63  GLN63       0.2592
     62  O          1.0860   -7.8240   11.9770 O.2    63  GLN63      -0.2718
     63  CB         1.6670   -9.9020    9.4490 C.3    63  GLN63       0.0381
     64  CG         1.0070  -10.8040    8.4050 C.3    63  GLN63       0.0905
     65  CD         1.8230  -12.0170    8.0350 C.2    63  GLN63       0.2608
     66  OE1        1.8370  -12.4500    6.8600 O.2    63  GLN63      -0.2717
     67  NE2        2.4830  -12.5760    8.9680 N.am   63  GLN63      -0.0878
     68  N          2.8720   -7.3870   10.7250 N.am   64  MET64      -0.1979
     69  CA         3.5820   -6.7860   11.8110 C.3    64  MET64       0.1605
     70  C          2.8840   -5.5110   12.2930 C.2    64  MET64       0.2287
     71  O          2.8240   -5.2530   13.5050 O.2    64  MET64      -0.2864
     72  CB         5.0220   -6.4760   11.3750 C.3    64  MET64       0.0413
     73  CG         5.7980   -7.7730   11.1920 C.3    64  MET64       0.0598
     74  SD         7.6010   -7.5200   10.9800 S.3    64  MET64      -0.1393
     75  CE         7.6380   -6.9210    9.3270 C.3    64  MET64       0.0692
     76  N         -0.4220   -6.0710   14.3720 N.3    67  ILE67      -0.1231
     77  CA        -0.1270   -6.5240   15.7230 C.3    67  ILE67       0.1692
     78  C          0.3830   -5.3800   16.5830 C.2    67  ILE67       0.2591
     79  O         -0.0780   -5.2420   17.7330 O.2    67  ILE67      -0.2718
     80  CB         0.9330   -7.6550   15.7040 C.3    67  ILE67       0.0266
     81  CG1        0.3300   -8.9210   15.0810 C.3    67  ILE67       0.0019
     82  CG2        1.4180   -7.9580   17.1170 C.3    67  ILE67       0.0020
     83  CD1        1.4350   -9.9200   14.6670 C.3    67  ILE67       0.0001
     84  N          1.3050   -4.5560   16.0920 N.am   68  GLN68      -0.1979
     85  CA         1.8260   -3.5070   16.9220 C.3    68  GLN68       0.1601
     86  C          0.7760   -2.4470   17.2410 C.2    68  GLN68       0.2287
     87  O          0.6890   -1.9450   18.4000 O.2    68  GLN68      -0.2864
     88  CB         3.0000   -2.8680   16.2790 C.3    68  GLN68       0.0394
     89  CG         4.2310   -3.7950   16.2260 C.3    68  GLN68       0.0908
     90  CD         5.3340   -3.2450   15.3360 C.2    68  GLN68       0.2608
     91  OE1        5.2830   -3.3440   14.0790 O.2    68  GLN68      -0.2717
     92  NE2        6.3140   -2.6640   15.9730 N.am   68  GLN68      -0.0878
     93  N         13.4210   -3.3250   25.8630 N.3   216  GLU216     -0.1231
     94  CA        13.7240   -2.8610   24.4870 C.3   216  GLU216      0.1699
     95  C         12.5270   -2.8320   23.5540 C.2   216  GLU216      0.2592
     96  O         12.3060   -1.7750   22.9090 O.2   216  GLU216     -0.2718
     97  CB        14.8370   -3.7770   23.8620 C.3   216  GLU216      0.0402
     98  CG        14.8540   -3.8590   22.3320 C.3   216  GLU216      0.1161
     99  CD        15.9610   -4.7820   21.7510 C.2   216  GLU216      0.3649
    100  OE1       16.6930   -4.3310   20.8380 O.co2 216  GLU216     -0.2457
    101  OE2       16.0890   -5.9480   22.1740 O.co2 216  GLU216     -0.2457
    102  N         11.7620   -3.8790   23.3930 N.am  217  MET217     -0.1979
    103  CA        10.6650   -3.9310   22.4330 C.3   217  MET217      0.1605
    104  C          9.5150   -2.9930   22.8150 C.2   217  MET217      0.2287
    105  O          8.8890   -2.3240   21.9850 O.2   217  MET217     -0.2864
    106  CB        10.1310   -5.3490   22.3000 C.3   217  MET217      0.0413
    107  CG         9.4820   -5.6610   21.0010 C.3   217  MET217      0.0598
    108  SD         9.5260   -7.4400   20.7370 S.3   217  MET217     -0.1393
    109  CE         8.9190   -8.1020   22.2900 C.3   217  MET217      0.0692
    110  N         10.7070    0.5400   21.9430 N.3   220  GLU220     -0.1231
    111  CA        10.6320    0.7280   20.4990 C.3   220  GLU220      0.1699
    112  C          9.2380    0.9290   20.0600 C.2   220  GLU220      0.2592
    113  O          8.9470    1.8760   19.3090 O.2   220  GLU220     -0.2718
    114  CB        11.2230   -0.4770   19.7640 C.3   220  GLU220      0.0402
    115  CG        11.0910   -0.4730   18.2510 C.3   220  GLU220      0.1161
    116  CD        11.6940   -1.7520   17.7200 C.2   220  GLU220      0.3649
    117  OE1       12.9730   -1.7910   17.6530 O.co2 220  GLU220     -0.2457
    118  OE2       10.9090   -2.7530   17.5420 O.co2 220  GLU220     -0.2457
    119  N          8.3060    0.0820   20.4520 N.am  221  ILE221     -0.1980
    120  CA         6.9680    0.1960   19.9780 C.3   221  ILE221      0.1595
    121  C          6.2630    1.5180   20.4680 C.2   221  ILE221      0.2287
    122  O          5.5170    2.1600   19.7170 O.2   221  ILE221     -0.2864
    123  CB         6.1430   -1.0410   20.3860 C.3   221  ILE221      0.0276
    124  CG1        6.6750   -2.2350   19.5680 C.3   221  ILE221      0.0022
    125  CG2        4.7020   -0.8550   20.0960 C.3   221  ILE221      0.0022
    126  CD1        6.1860   -3.5760   20.1030 C.3   221  ILE221      0.0001
@<TRIPOS>BOND
     1    52    53    1
     2    57    56    1
     3    56    53    1
     4    56    58    1
     5    53    54    1
     6    54    55    2
     7    66    65    2
     8    44    43    2
     9    43    42    1
    10    65    64    1
    11    65    67   am
    12    64    63    1
    13    59    60    1
    14    41    42    1
    15    42    45    1
    16    75    74    1
    17    63    60    1
    18    60    61    1
    19    45    46    1
    20    68    61   am
    21    68    69    1
    22    46    47   ar
    23    46    48   ar
    24    61    62    2
    25    47    49   ar
    26    74    73    1
    27    48    50   ar
    28    73    72    1
    29    72    69    1
    30    49    51   ar
    31    50    51   ar
    32    69    70    1
    33    35    34    2
    34    70    71    2
    35    34    33    1
    36    33    36    1
    37    33    32    1
    38    37    36    1
    39    37    38    1
    40    39    40    1
    41    39    38    1
    42    91    90    2
    43    76    77    1
    44    83    81    1
    45    81    80    1
    46    90    92   am
    47    90    89    1
    48    80    77    1
    49    80    82    1
    50    77    78    1
    51    84    78   am
    52    84    85    1
    53    89    88    1
    54    88    85    1
    55    19    18    2
    56    78    79    2
    57    21    20    1
    58    85    86    1
    59    26    25    2
    60    86    87    2
    61   118   116   ar
    62   117   116   ar
    63    18    17    1
    64    18    23   am
    65   116   115    1
    66    20    22    1
    67    20    17    1
    68    17    16    1
    69    25    24    1
    70   115   114    1
    71    24    23    1
    72    24    27    1
    73   113   112    2
    74    27    28    1
    75   124   126    1
    76   124   123    1
    77   122   121    2
    78    28    29    1
    79   114   111    1
    80   120   123    1
    81   120   119    1
    82   120   121    1
    83   112   119   am
    84   112   111    1
    85   125   123    1
    86   111   110    1
    87   108   107    1
    88   108   109    1
    89     7     6    1
    90    29    30    1
    91   100    99   ar
    92   107   106    1
    93    12    11    2
    94     4     3    2
    95    30    31    1
    96     8     6    1
    97     6     5    1
    98    99   101   ar
    99    99    98    1
   100   105   104    2
   101    11    10    1
   102   106   103    1
   103    98    97    1
   104   103   104    1
   105   103   102    1
   106     3     9   am
   107     3     2    1
   108    10     9    1
   109    10    13    1
   110    96    95    2
   111     5     2    1
   112    14    13    1
   113     2     1    1
   114   102    95   am
   115    13    15    1
   116    95    94    1
   117    97    94    1
   118    94    93    1
