@<TRIPOS>MOLECULE
tmp/4ohbA00.pdb
 156 155 0 0 0
SMALL
GASTEIGER

@<TRIPOS>ATOM
      1  N         -9.1220  -15.1540    2.4250 N.3     6  PHE6       -0.1227
      2  CA        -8.2470  -14.6390    1.3950 C.3     6  PHE6        0.1736
      3  C         -6.9760  -14.4320    2.1040 C.2     6  PHE6        0.2595
      4  O         -6.9350  -13.7720    3.1700 O.2     6  PHE6       -0.2718
      5  CB        -8.7110  -13.2910    0.8520 C.3     6  PHE6        0.0547
      6  CG        -7.7410  -12.6700   -0.0880 C.ar    6  PHE6       -0.0202
      7  CD1       -6.7250  -11.8450    0.3810 C.ar    6  PHE6       -0.0042
      8  CD2       -7.8320  -12.9050   -1.4590 C.ar    6  PHE6       -0.0042
      9  CE1       -5.8250  -11.2700   -0.4950 C.ar    6  PHE6       -0.0003
     10  CE2       -6.9310  -12.3310   -2.3370 C.ar    6  PHE6       -0.0003
     11  CZ        -5.9360  -11.4930   -1.8450 C.ar    6  PHE6       -0.0000
     12  N         -5.9310  -14.9910    1.5210 N.am    7  LEU7       -0.1966
     13  CA        -4.6490  -14.8790    2.0950 C.3     7  LEU7        0.1728
     14  C         -3.7670  -14.0100    1.1970 C.2     7  LEU7        0.2617
     15  O         -3.5060  -14.3680    0.0380 O.2     7  LEU7       -0.2715
     16  CB        -4.0500  -16.2830    2.2910 C.3     7  LEU7        0.0311
     17  CG        -2.5840  -16.2870    2.7370 C.3     7  LEU7        0.0022
     18  CD1       -2.5210  -15.5550    4.0740 C.3     7  LEU7        0.0001
     19  CD2       -1.9260  -17.6780    2.8360 C.3     7  LEU7        0.0001
     20  N         -3.2650  -12.9050    1.7440 N.am    8  GLY8       -0.1940
     21  CA        -2.4390  -11.9940    0.9610 C.3     8  GLY8        0.2014
     22  C         -1.0810  -11.7660    1.5760 C.2     8  GLY8        0.2639
     23  O         -0.8050  -12.1190    2.7490 O.2     8  GLY8       -0.2714
     24  N         -0.2060  -11.1870    0.7670 N.am    9  GLY9       -0.1940
     25  CA         1.1120  -10.8190    1.2380 C.3     9  GLY9        0.2002
     26  C          2.0220  -10.4920    0.1020 C.2     9  GLY9        0.2518
     27  O          1.6120  -10.5400   -1.0390 O.2     9  GLY9       -0.2726
     28  N          3.2670  -10.1590    0.4150 N.am   10  PRO10      -0.2490
     29  CA         4.1810   -9.7670   -0.6260 C.3    10  PRO10       0.1619
     30  C          4.3180  -10.8540   -1.6770 C.2    10  PRO10       0.2605
     31  O          4.2100  -12.0680   -1.3980 O.2    10  PRO10      -0.2715
     32  CB         5.5120   -9.5440    0.0770 C.3    10  PRO10       0.0570
     33  CG         5.2570   -9.6800    1.5190 C.2    10  PRO10      -0.0077
     34  CD         3.8780  -10.2000    1.7510 C.2    10  PRO10       0.0634
     35  N          4.5480  -10.3810   -2.8880 N.am   11  PHE11      -0.1960
     36  CA         4.5880  -11.2210   -4.0450 C.3    11  PHE11       0.1771
     37  C          5.7560  -10.7360   -4.9090 C.2    11  PHE11       0.2619
     38  O          6.8430  -11.3770   -4.8890 O.2    11  PHE11      -0.2715
     39  CB         3.2360  -11.1940   -4.7700 C.3    11  PHE11       0.0574
     40  CG         3.0210  -12.3300   -5.7260 C.ar   11  PHE11      -0.0200
     41  CD1        4.0610  -13.1890   -6.1070 C.ar   11  PHE11      -0.0042
     42  CD2        1.7760  -12.5310   -6.2610 C.ar   11  PHE11      -0.0042
     43  CE1        3.8340  -14.2430   -6.9900 C.ar   11  PHE11      -0.0003
     44  CE2        1.5290  -13.5760   -7.1440 C.ar   11  PHE11      -0.0003
     45  CZ         2.5670  -14.4280   -7.5220 C.ar   11  PHE11      -0.0000
     46  N          5.5510   -9.6210   -5.5990 N.am   12  ARG12      -0.1963
     47  CA         6.4830   -9.1620   -6.6070 C.3    12  ARG12       0.1729
     48  C          7.9250   -9.1210   -6.0810 C.2    12  ARG12       0.2616
     49  O          8.8410   -9.6340   -6.7280 O.2    12  ARG12      -0.2715
     50  CB         6.0410   -7.7920   -7.1230 C.3    12  ARG12       0.0348
     51  CG         6.7800   -7.3480   -8.3630 C.3    12  ARG12       0.0492
     52  CD         6.4970   -5.8850   -8.6760 C.3    12  ARG12       0.2205
     53  NE         5.9090   -5.1870   -7.5310 N.pl3  12  ARG12      -0.0865
     54  CZ         4.6160   -4.9000   -7.4080 C.cat  12  ARG12       0.5346
     55  NH1        4.2170   -4.2680   -6.3150 N.pl3  12  ARG12       0.1354
     56  NH2        3.7520   -5.2350   -8.3840 N.pl3  12  ARG12       0.1354
     57  N          8.1040   -8.5410   -4.8970 N.am   13  GLN13      -0.1977
     58  CA         9.4260   -8.4250   -4.2510 C.3    13  GLN13       0.1601
     59  C         10.0740   -9.7970   -3.8890 C.2    13  GLN13       0.2287
     60  O         11.3050   -9.9050   -3.7880 O.2    13  GLN13      -0.2864
     61  CB         9.3420   -7.4980   -2.9980 C.3    13  GLN13       0.0394
     62  CG         8.7770   -8.1670   -1.7310 C.3    13  GLN13       0.0908
     63  CD         8.4260   -7.1840   -0.5970 C.2    13  GLN13       0.2608
     64  OE1        7.6810   -6.2010   -0.8020 O.2    13  GLN13      -0.2717
     65  NE2        8.9360   -7.4690    0.6160 N.am   13  GLN13      -0.0878
     66  N         -3.3640  -15.7000   -4.2780 N.3    47  ALA47      -0.1231
     67  CA        -2.8360  -15.3530   -5.5930 C.3    47  ALA47       0.1694
     68  C         -1.5160  -16.0280   -5.8720 C.2    47  ALA47       0.2592
     69  O         -1.2860  -16.4210   -6.9890 O.2    47  ALA47      -0.2718
     70  CB        -2.6800  -13.8460   -5.7280 C.3    47  ALA47       0.0304
     71  N         -0.6670  -16.1580   -4.8520 N.am   48  HIS48      -0.1976
     72  CA         0.6910  -16.7200   -5.0290 C.3    48  HIS48       0.1656
     73  C          0.6310  -18.1170   -5.6040 C.2    48  HIS48       0.2291
     74  O          1.4040  -18.4600   -6.4910 O.2    48  HIS48      -0.2864
     75  CB         1.4750  -16.7460   -3.7310 C.3    48  HIS48       0.0771
     76  CG         1.4910  -15.4350   -3.0260 C.ar   48  HIS48       0.0820
     77  ND1        0.3730  -14.8950   -2.4330 N.ar   48  HIS48      -0.2267
     78  CD2        2.4880  -14.5560   -2.8130 C.ar   48  HIS48       0.1154
     79  CE1        0.6820  -13.7350   -1.8810 C.ar   48  HIS48       0.1986
     80  NE2        1.9570  -13.5010   -2.1070 N.ar   48  HIS48      -0.2212
     81  N         -2.3450  -19.6620   -6.9500 N.3    50  ARG50      -0.1231
     82  CA        -3.0590  -19.5050   -8.2240 C.3    50  ARG50       0.1694
     83  C         -2.1550  -19.1010   -9.4090 C.2    50  ARG50       0.2591
     84  O         -2.2990  -19.6030  -10.5070 O.2    50  ARG50      -0.2718
     85  CB        -4.1540  -18.4610   -8.0860 C.3    50  ARG50       0.0321
     86  CG        -5.2620  -18.7020   -9.0780 C.3    50  ARG50       0.0489
     87  CD        -6.2110  -17.5250   -9.2340 C.3    50  ARG50       0.2205
     88  NE        -6.2640  -16.5700   -8.1220 N.pl3  50  ARG50      -0.0865
     89  CZ        -5.6960  -15.3590   -8.1120 C.cat  50  ARG50       0.5346
     90  NH1       -5.8550  -14.5800   -7.0490 N.pl3  50  ARG50       0.1354
     91  NH2       -4.9680  -14.9040   -9.1380 N.pl3  50  ARG50       0.1354
     92  N         -1.2180  -18.1950   -9.1770 N.am   51  GLU51      -0.1979
     93  CA        -0.3110  -17.7820  -10.2300 C.3    51  GLU51       0.1602
     94  C          1.0060  -18.5550  -10.2000 C.2    51  GLU51       0.2287
     95  O          2.0390  -18.0320  -10.6050 O.2    51  GLU51      -0.2864
     96  CB        -0.0840  -16.2670  -10.1590 C.3    51  GLU51       0.0415
     97  CG        -1.4150  -15.5110  -10.0830 C.3    51  GLU51       0.1163
     98  CD        -1.2710  -13.9950  -10.0160 C.2    51  GLU51       0.3649
     99  OE1       -0.5440  -13.4690  -10.8880 O.co2  51  GLU51      -0.2457
    100  OE2       -1.9200  -13.3440   -9.1220 O.co2  51  GLU51      -0.2457
    101  N          2.1210  -15.5950  -14.6180 N.3    57  PHE57      -0.1227
    102  CA         1.7780  -14.1860  -14.3760 C.3    57  PHE57       0.1736
    103  C          0.5980  -13.6560  -15.2230 C.2    57  PHE57       0.2595
    104  O          0.5140  -13.7940  -16.4800 O.2    57  PHE57      -0.2718
    105  CB         3.0110  -13.2650  -14.5160 C.3    57  PHE57       0.0547
    106  CG         3.4880  -12.6490  -13.2100 C.ar   57  PHE57      -0.0202
    107  CD1        3.3870  -13.3300  -11.9900 C.ar   57  PHE57      -0.0042
    108  CD2        4.0790  -11.3870  -13.2130 C.ar   57  PHE57      -0.0042
    109  CE1        3.8460  -12.7490  -10.8120 C.ar   57  PHE57      -0.0003
    110  CE2        4.5350  -10.8080  -12.0350 C.ar   57  PHE57      -0.0003
    111  CZ         4.4220  -11.4870  -10.8300 C.ar   57  PHE57      -0.0000
    112  N         -0.3220  -13.0640  -14.4730 N.am   58  LEU58      -0.1980
    113  CA        -1.4340  -12.3470  -15.0300 C.3    58  LEU58       0.1596
    114  C         -1.0390  -10.9660  -15.6120 C.2    58  LEU58       0.2287
    115  O          0.1290  -10.5100  -15.5420 O.2    58  LEU58      -0.2864
    116  CB        -2.5000  -12.2040  -13.9480 C.3    58  LEU58       0.0297
    117  CG        -3.1750  -13.5300  -13.5570 C.3    58  LEU58       0.0022
    118  CD1       -4.1390  -13.3140  -12.3920 C.3    58  LEU58       0.0001
    119  CD2       -3.9110  -14.2040  -14.7210 C.3    58  LEU58       0.0001
    120  N         -5.1850   -9.4650  -12.6670 N.3    63  ALA63      -0.1245
    121  CA        -4.6900   -9.6810  -11.2910 C.3    63  ALA63       0.1562
    122  C         -5.4670   -8.8250  -10.2770 C.2    63  ALA63       0.2260
    123  O         -5.9290   -9.3140   -9.2330 O.2    63  ALA63      -0.2867
    124  CB        -3.2040   -9.3910  -11.2210 C.3    63  ALA63       0.0290
    125  N         -8.1600  -10.5750   -7.5130 N.3    67  ASP67      -0.1239
    126  CA        -7.9510  -10.2270   -6.1310 C.3    67  ASP67       0.1674
    127  C         -9.1160   -9.5450   -5.4840 C.2    67  ASP67       0.2266
    128  O         -9.5640  -10.0110   -4.4470 O.2    67  ASP67      -0.2867
    129  CB        -6.7100   -9.3880   -5.9850 C.3    67  ASP67       0.1410
    130  CG        -5.5130  -10.2230   -5.6640 C.2    67  ASP67       0.3668
    131  OD1       -5.4790  -11.4130   -6.0680 O.co2  67  ASP67      -0.2456
    132  OD2       -4.6290   -9.6960   -4.9690 O.co2  67  ASP67      -0.2456
    133  N          4.2830   -4.3010    1.1410 N.3    86  SER86      -0.1203
    134  CA         3.8290   -4.9060   -0.1510 C.3    86  SER86       0.2005
    135  C          2.8180   -3.9410   -0.6470 C.2    86  SER86       0.2461
    136  O          1.7140   -3.8330   -0.0880 O.2    86  SER86      -0.2732
    137  CB         3.1480   -6.2760    0.0170 C.3    86  SER86       0.2103
    138  OG         2.3210   -6.6710   -1.1130 O.3    86  SER86      -0.2182
    139  N          3.1450   -3.2820   -1.7550 N.am   87  PRO87      -0.2717
    140  CA         2.2310   -2.3350   -2.3480 C.3    87  PRO87       0.1536
    141  C          0.8680   -2.9220   -2.6150 C.2    87  PRO87       0.2599
    142  O         -0.1420   -2.3580   -2.1650 O.2    87  PRO87      -0.2715
    143  CB         2.9390   -1.9630   -3.6450 C.3    87  PRO87       0.0310
    144  CG         4.3850   -2.1890   -3.3860 C.3    87  PRO87       0.0237
    145  CD         4.3900   -3.4160   -2.5450 C.3    87  PRO87       0.0939
    146  N          0.8110   -4.0440   -3.3300 N.am   88  GLY88      -0.1941
    147  CA        -0.4960   -4.6580   -3.6400 C.3    88  GLY88       0.2014
    148  C         -1.2800   -5.1350   -2.4210 C.2    88  GLY88       0.2639
    149  O         -2.5320   -5.0770   -2.3680 O.2    88  GLY88      -0.2714
    150  N         -0.5500   -5.5640   -1.4010 N.am   89  THR89      -0.1950
    151  CA        -1.2010   -5.9860   -0.1750 C.3    89  THR89       0.1897
    152  C         -1.8430   -4.7740    0.5200 C.2    89  THR89       0.2313
    153  O         -3.0400   -4.8300    0.9500 O.2    89  THR89      -0.2863
    154  CB        -0.2280   -6.7540    0.7650 C.3    89  THR89       0.1794
    155  OG1        0.5510   -7.7370    0.0160 O.3    89  THR89      -0.2208
    156  CG2       -1.0150   -7.4680    1.8670 C.3    89  THR89       0.0378
@<TRIPOS>BOND
     1   104   103    2
     2   114   115    2
     3   114   113    1
     4   103   112   am
     5   103   102    1
     6   113   112    1
     7   113   116    1
     8   119   117    1
     9   101   102    1
    10   105   102    1
    11   105   106    1
    12   116   117    1
    13   117   118    1
    14   108   106   ar
    15   108   110   ar
    16   106   107   ar
    17   120   121    1
    18   110   111   ar
    19   107   109   ar
    20   121   124    1
    21   121   122    1
    22    99    98   ar
    23   111   109   ar
    24    95    94    2
    25    84    83    2
    26   122   123    2
    27    93    94    1
    28    93    96    1
    29    93    92    1
    30    96    97    1
    31    97    98    1
    32    98   100   ar
    33    83    92   am
    34    83    82    1
    35    87    86    1
    36    87    88    1
    37    91    89    1
    38    86    85    1
    39    52    51    1
    40    52    53    1
    41    56    54    1
    42    51    50    1
    43    82    85    1
    44    82    81    1
    45    88    89    2
    46    89    90    1
    47    53    54    2
    48    45    44   ar
    49    45    43   ar
    50   125   126    1
    51    54    55    1
    52    44    42   ar
    53    50    47    1
    54    43    41   ar
    55    69    68    2
    56    49    48    2
    57    47    48    1
    58    47    46    1
    59    74    73    2
    60    42    40   ar
    61   126   129    1
    62   126   127    1
    63    41    40   ar
    64    48    57   am
    65   131   130   ar
    66   129   130    1
    67    68    67    1
    68    68    71   am
    69    70    67    1
    70    40    39    1
    71   130   132   ar
    72    73    72    1
    73    46    37   am
    74    67    66    1
    75   127   128    2
    76    72    71    1
    77    72    75    1
    78    37    38    2
    79    37    36    1
    80    57    58    1
    81    39    36    1
    82    58    59    1
    83    58    61    1
    84    36    35    1
    85    59    60    2
    86    75    76    1
    87   143   144    1
    88   143   140    1
    89   147   146    1
    90   147   148    1
    91   144   145    1
    92   146   141   am
    93    76    78   ar
    94    76    77   ar
    95    61    62    1
    96    35    30   am
    97    78    80   ar
    98   141   140    1
    99   141   142    2
   100   145   139    1
   101    77    79   ar
   102   148   149    2
   103   148   150   am
   104   140   139    1
   105    10    11   ar
   106    10     8   ar
   107    80    79   ar
   108    11     9   ar
   109   139   135   am
   110    62    63    1
   111    30    31    2
   112    30    29    1
   113     8     6   ar
   114   150   151    1
   115   138   137    1
   116    27    26    2
   117    64    63    2
   118   135   134    1
   119   135   136    2
   120    29    32    1
   121    29    28    1
   122    63    65   am
   123     9     7   ar
   124   151   152    1
   125   151   154    1
   126   134   137    1
   127   134   133    1
   128     6     7   ar
   129     6     5    1
   130   155   154    1
   131    15    14    2
   132    32    33    1
   133    26    28   am
   134    26    25    1
   135    28    34    1
   136   152   153    2
   137   154   156    1
   138    24    25    1
   139    24    22   am
   140     5     2    1
   141    21    22    1
   142    21    20    1
   143    14    20   am
   144    14    13    1
   145     2     3    1
   146     2     1    1
   147    33    34    2
   148    12    13    1
   149    12     3   am
   150    22    23    2
   151    13    16    1
   152     3     4    2
   153    16    17    1
   154    17    19    1
   155    17    18    1
