@<TRIPOS>MOLECULE
tmp/4ohnA00.pdb
 134 129 0 0 0
SMALL
GASTEIGER

@<TRIPOS>ATOM
      1  N          6.1050   36.4140   29.5350 N.3    20  ASP20      -0.1239
      2  CA         5.1440   37.3780   30.0650 C.3    20  ASP20       0.1674
      3  C          5.7290   38.7560   29.7450 C.2    20  ASP20       0.2266
      4  O          6.7500   39.1440   30.3170 O.2    20  ASP20      -0.2867
      5  CB         5.0450   37.1460   31.5880 C.3    20  ASP20       0.1410
      6  CG         4.2920   38.2310   32.3660 C.2    20  ASP20       0.3668
      7  OD1        3.8630   39.2840   31.8010 O.co2  20  ASP20      -0.2456
      8  OD2        4.1680   38.0330   33.6060 O.co2  20  ASP20      -0.2456
      9  N          7.0110   41.2980   32.4650 N.3    23  PHE23      -0.1241
     10  CA         7.8940   40.8950   33.5680 C.3    23  PHE23       0.1605
     11  C          9.2610   41.5970   33.5240 C.2    23  PHE23       0.2264
     12  O         10.2560   41.0590   33.0440 O.2    23  PHE23      -0.2867
     13  CB         8.0280   39.3800   33.6380 C.3    23  PHE23       0.0534
     14  CG         8.5940   38.9060   34.9620 C.ar   23  PHE23      -0.0203
     15  CD1        7.8090   38.8810   36.0870 C.ar   23  PHE23      -0.0042
     16  CD2        9.9100   38.5230   35.0760 C.ar   23  PHE23      -0.0042
     17  CE1        8.3140   38.4790   37.3060 C.ar   23  PHE23      -0.0003
     18  CE2       10.4240   38.1150   36.3000 C.ar   23  PHE23      -0.0003
     19  CZ         9.6190   38.1000   37.4200 C.ar   23  PHE23      -0.0000
     20  N          0.8450   34.0380   30.9590 N.3    61  TRP61      -0.1241
     21  CA         1.7160   33.3050   31.8810 C.3    61  TRP61       0.1605
     22  C          0.9850   32.0950   32.4670 C.2    61  TRP61       0.2264
     23  O          1.6180   31.0840   32.7620 O.2    61  TRP61      -0.2867
     24  CB         2.2780   34.2240   32.9640 C.3    61  TRP61       0.0550
     25  CG         3.4400   33.6670   33.7170 C.ar   61  TRP61       0.0003
     26  CD1        3.4950   33.3790   35.0500 C.ar   61  TRP61       0.0946
     27  CD2        4.7380   33.3630   33.1820 C.ar   61  TRP61       0.0152
     28  NE1        4.7430   32.8880   35.3760 N.ar   61  TRP61      -0.2442
     29  CE2        5.5280   32.8940   34.2480 C.ar   61  TRP61       0.0810
     30  CE3        5.3030   33.4480   31.9120 C.ar   61  TRP61       0.0012
     31  CZ2        6.8410   32.4970   34.0790 C.ar   61  TRP61       0.0191
     32  CZ3        6.6240   33.0560   31.7360 C.ar   61  TRP61       0.0001
     33  CH2        7.3880   32.5920   32.8110 C.ar   61  TRP61       0.0015
     34  N         12.0260   33.9540   30.8140 N.3    78  ASN78      -0.1225
     35  CA        11.4050   35.1780   31.3270 C.3    78  ASN78       0.1785
     36  C         11.4080   35.1510   32.8390 C.2    78  ASN78       0.2598
     37  O         10.3650   35.1100   33.4870 O.2    78  ASN78      -0.2718
     38  CB         9.9550   35.2550   30.8150 C.3    78  ASN78       0.1169
     39  CG         9.2310   36.5360   31.1680 C.2    78  ASN78       0.2627
     40  OD1        8.1790   36.4850   31.8160 O.2    78  ASN78      -0.2716
     41  ND2        9.7370   37.6740   30.7110 N.am   78  ASN78      -0.0877
     42  N         12.5780   35.1790   33.4450 N.am   79  GLY79      -0.1942
     43  CA        12.6450   35.0200   34.8870 C.3    79  GLY79       0.2014
     44  C         11.8770   33.7970   35.3560 C.2    79  GLY79       0.2639
     45  O         11.1170   33.8670   36.3340 O.2    79  GLY79      -0.2714
     46  N         12.0980   32.6800   34.6660 N.am   80  TYR80      -0.1959
     47  CA        11.3380   31.4670   34.9230 C.3    80  TYR80       0.1771
     48  C         12.0070   30.6920   36.0630 C.2    80  TYR80       0.2620
     49  O         13.1070   30.1400   35.9050 O.2    80  TYR80      -0.2715
     50  CB        11.2480   30.6440   33.6440 C.3    80  TYR80       0.0574
     51  CG        10.3450   29.4280   33.6470 C.ar   80  TYR80      -0.0198
     52  CD1        9.0970   29.4300   34.2570 C.ar   80  TYR80      -0.0009
     53  CD2       10.7150   28.2900   32.9620 C.ar   80  TYR80      -0.0009
     54  CE1        8.2640   28.3200   34.1990 C.ar   80  TYR80       0.0417
     55  CE2        9.8950   27.1850   32.9020 C.ar   80  TYR80       0.0417
     56  CZ         8.6760   27.2000   33.5230 C.ar   80  TYR80       0.1957
     57  OH         7.9050   26.0810   33.4440 O.3    80  TYR80      -0.2866
     58  N         11.3520   30.6260   37.2130 N.am   81  SER81      -0.1950
     59  CA        11.9280   29.9940   38.3980 C.3    81  SER81       0.1924
     60  C         11.9620   28.4850   38.2610 C.2    81  SER81       0.2314
     61  O         10.9420   27.8500   37.9590 O.2    81  SER81      -0.2863
     62  CB        11.1190   30.3820   39.6250 C.3    81  SER81       0.2116
     63  OG        11.1410   31.7970   39.7600 O.3    81  SER81      -0.2180
     64  N          8.0130   22.2010   38.8410 N.3    86  ARG86      -0.1245
     65  CA         8.1110   22.3920   37.4040 C.3    86  ARG86       0.1563
     66  C          9.0020   21.3480   36.7280 C.2    86  ARG86       0.2260
     67  O          8.7890   21.0190   35.5630 O.2    86  ARG86      -0.2867
     68  CB         8.6090   23.7980   37.0970 C.3    86  ARG86       0.0307
     69  CG         7.5460   24.8260   37.3920 C.3    86  ARG86       0.0489
     70  CD         8.0490   26.2350   37.3100 C.3    86  ARG86       0.2205
     71  NE         6.9460   27.1870   37.3680 N.pl3  86  ARG86      -0.0865
     72  CZ         7.0950   28.5010   37.4760 C.cat  86  ARG86       0.5346
     73  NH1        8.3050   29.0270   37.5770 N.pl3  86  ARG86       0.1354
     74  NH2        6.0220   29.2720   37.4820 N.pl3  86  ARG86       0.1354
     75  N         11.4510   35.5330   46.5020 N.3   101  GLN101     -0.1245
     76  CA        10.0870   36.0190   46.6250 C.3   101  GLN101      0.1566
     77  C         10.0120   36.9690   47.8120 C.2   101  GLN101      0.2260
     78  O         10.5130   36.6870   48.9160 O.2   101  GLN101     -0.2867
     79  CB         9.1110   34.8600   46.7560 C.3   101  GLN101      0.0367
     80  CG         9.1160   33.9010   45.5550 C.3   101  GLN101      0.0905
     81  CD         8.5750   34.5330   44.2950 C.2   101  GLN101      0.2608
     82  OE1        7.5780   35.2580   44.3230 O.2   101  GLN101     -0.2717
     83  NE2        9.2400   34.2830   43.1780 N.am  101  GLN101     -0.0878
     84  N          0.5340   36.7750   41.5660 N.3   125  GLN125     -0.1245
     85  CA         0.3520   36.4150   40.1640 C.3   125  GLN125      0.1566
     86  C         -0.0630   34.9620   40.0740 C.2   125  GLN125      0.2260
     87  O          0.5970   34.0680   40.6090 O.2   125  GLN125     -0.2867
     88  CB         1.6270   36.6600   39.3550 C.3   125  GLN125      0.0367
     89  CG         1.4420   36.2500   37.8970 C.3   125  GLN125      0.0905
     90  CD         2.6850   36.4220   37.0370 C.2   125  GLN125      0.2608
     91  OE1        3.8050   36.0230   37.4330 O.2   125  GLN125     -0.2717
     92  NE2        2.5070   36.9750   35.8510 N.am  125  GLN125     -0.0878
     93  N          2.3500   32.2440   38.9030 N.3   128  SER128     -0.1202
     94  CA         3.7160   32.3900   39.4070 C.3   128  SER128      0.2020
     95  C          4.1790   31.2940   40.3480 C.2   128  SER128      0.2619
     96  O          3.3950   30.6410   41.0390 O.2   128  SER128     -0.2717
     97  CB         3.8800   33.7200   40.1210 C.3   128  SER128      0.2103
     98  OG         3.2090   33.7630   41.3700 O.3   128  SER128     -0.2182
     99  N          5.4850   31.1270   40.3980 N.am  129  SER129     -0.1951
    100  CA         6.1090   30.2250   41.3520 C.3   129  SER129      0.1924
    101  C          5.8330   30.7290   42.7770 C.2   129  SER129      0.2314
    102  O          5.7190   29.9350   43.7000 O.2   129  SER129     -0.2863
    103  CB         7.6070   30.1190   41.0600 C.3   129  SER129      0.2116
    104  OG         8.1770   31.3900   41.0320 O.3   129  SER129     -0.2180
    105  N          1.7370   41.0510   37.2490 N.3   156  PHE156     -0.1241
    106  CA         2.1050   41.8330   38.4160 C.3   156  PHE156      0.1605
    107  C          1.7260   43.3090   38.2760 C.2   156  PHE156      0.2264
    108  O          1.4700   43.9740   39.2980 O.2   156  PHE156     -0.2867
    109  CB         3.5930   41.6520   38.7120 C.3   156  PHE156      0.0534
    110  CG         3.9130   40.3540   39.4010 C.ar  156  PHE156     -0.0203
    111  CD1        3.3540   40.0470   40.6300 C.ar  156  PHE156     -0.0042
    112  CD2        4.7860   39.4530   38.8340 C.ar  156  PHE156     -0.0042
    113  CE1        3.6760   38.8770   41.2760 C.ar  156  PHE156     -0.0003
    114  CE2        5.1020   38.2810   39.4750 C.ar  156  PHE156     -0.0003
    115  CZ         4.5440   37.9860   40.6850 C.ar  156  PHE156     -0.0000
    116  N          8.3470   38.5440   42.7950 N.3   174  ASP174     -0.1239
    117  CA         9.7790   38.4100   42.6210 C.3   174  ASP174      0.1674
    118  C         10.5230   39.6860   42.9850 C.2   174  ASP174      0.2266
    119  O         10.1590   40.7720   42.5470 O.2   174  ASP174     -0.2867
    120  CB        10.0920   38.0470   41.1590 C.3   174  ASP174      0.1410
    121  CG         9.3550   36.8310   40.7090 C.2   174  ASP174      0.3668
    122  OD1        8.1280   36.8980   40.5870 O.co2 174  ASP174     -0.2456
    123  OD2       10.0180   35.8060   40.4770 O.co2 174  ASP174     -0.2456
    124  N         16.5630   31.3930   38.4700 N.3   203  PHE203     -0.1241
    125  CA        15.9860   31.4440   37.1430 C.3   203  PHE203      0.1605
    126  C         16.7600   30.5330   36.2050 C.2   203  PHE203      0.2264
    127  O         17.9930   30.4430   36.2570 O.2   203  PHE203     -0.2867
    128  CB        16.0820   32.8590   36.5690 C.3   203  PHE203      0.0534
    129  CG        15.2410   33.9100   37.2720 C.ar  203  PHE203     -0.0203
    130  CD1       14.0820   33.6060   37.9570 C.ar  203  PHE203     -0.0042
    131  CD2       15.6000   35.2520   37.1620 C.ar  203  PHE203     -0.0042
    132  CE1       13.3250   34.6040   38.5480 C.ar  203  PHE203     -0.0003
    133  CE2       14.8420   36.2390   37.7510 C.ar  203  PHE203     -0.0003
    134  CZ        13.7080   35.9190   38.4420 C.ar  203  PHE203     -0.0000
@<TRIPOS>BOND
     1     1     2    1
     2     3     2    1
     3     3     4    2
     4     2     5    1
     5    41    39   am
     6    34    35    1
     7    38    39    1
     8    38    35    1
     9    20    21    1
    10    39    40    2
    11    35    36    1
    12     5     6    1
    13    32    30   ar
    14    32    33   ar
    15     7     6   ar
    16    21    22    1
    17    21    24    1
    18    30    27   ar
    19     6     8   ar
    20     9    10    1
    21    22    23    2
    22    33    31   ar
    23    36    42   am
    24    36    37    2
    25    55    53   ar
    26    55    56   ar
    27    53    51   ar
    28    24    25    1
    29    12    11    2
    30    27    25   ar
    31    27    29   ar
    32    57    56    1
    33    42    43    1
    34    56    54   ar
    35    11    10    1
    36    10    13    1
    37    13    14    1
    38    50    51    1
    39    50    47    1
    40    51    52   ar
    41    25    26   ar
    42    31    29   ar
    43    54    52   ar
    44    29    28   ar
    45    46    47    1
    46    46    44   am
    47    43    44    1
    48    47    48    1
    49    14    16   ar
    50    14    15   ar
    51    26    28   ar
    52    16    18   ar
    53    44    45    2
    54    67    66    2
    55    92    90   am
    56    49    48    2
    57    48    58   am
    58    15    17   ar
    59   126   127    2
    60   126   125    1
    61    18    19   ar
    62   128   125    1
    63   128   129    1
    64    66    65    1
    65    90    91    2
    66    90    89    1
    67    68    69    1
    68    68    65    1
    69   125   124    1
    70   131   129   ar
    71   131   133   ar
    72    58    59    1
    73   105   106    1
    74   129   130   ar
    75    17    19   ar
    76    70    71    1
    77    70    69    1
    78    71    72    2
    79    65    64    1
    80    72    74    1
    81    72    73    1
    82   133   134   ar
    83    89    88    1
    84   130   132   ar
    85    61    60    2
    86    60    59    1
    87   107   106    1
    88   107   108    2
    89    59    62    1
    90   106   109    1
    91   134   132   ar
    92   109   110    1
    93   112   110   ar
    94   112   114   ar
    95    93    94    1
    96    88    85    1
    97   110   111   ar
    98    94    97    1
    99    94    95    1
   100   114   115   ar
   101    62    63    1
   102    86    85    1
   103    86    87    2
   104    97    98    1
   105    85    84    1
   106    95    99   am
   107    95    96    2
   108    99   100    1
   109   123   121   ar
   110   122   121   ar
   111   111   113   ar
   112   115   113   ar
   113   121   120    1
   114   104   103    1
   115   103   100    1
   116   120   117    1
   117   100   101    1
   118   119   118    2
   119   117   116    1
   120   117   118    1
   121   101   102    2
   122    83    81   am
   123    81    82    2
   124    81    80    1
   125    80    79    1
   126    75    76    1
   127    76    79    1
   128    76    77    1
   129    77    78    2
