@<TRIPOS>MOLECULE
tmp/4ohpB00.pdb
 247 238 0 0 0
SMALL
GASTEIGER

@<TRIPOS>ATOM
      1  N         59.6600   88.0570  -25.5270 N.3     9  HIS9       -0.1226
      2  CA        60.8280   87.8180  -26.3560 C.3     9  HIS9        0.1752
      3  C         60.8670   88.6640  -27.6560 C.2     9  HIS9        0.2596
      4  O         61.9330   89.0350  -28.1360 O.2     9  HIS9       -0.2718
      5  CB        60.9070   86.3140  -26.6640 C.3     9  HIS9        0.0759
      6  CG        59.9570   85.8730  -27.7350 C.ar    9  HIS9        0.0818
      7  ND1       58.6700   85.4530  -27.4640 N.ar    9  HIS9       -0.2268
      8  CD2       60.0950   85.8260  -29.0840 C.ar    9  HIS9        0.1154
      9  CE1       58.0630   85.1490  -28.6010 C.ar    9  HIS9        0.1986
     10  NE2       58.9080   85.3590  -29.5970 N.ar    9  HIS9       -0.2212
     11  N         59.7020   88.9630  -28.2260 N.am   10  VAL10      -0.1966
     12  CA        59.5980   89.6420  -29.5290 C.3    10  VAL10       0.1727
     13  C         60.3170   90.9690  -29.4550 C.2    10  VAL10       0.2616
     14  O         60.1250   91.6920  -28.4890 O.2    10  VAL10      -0.2715
     15  CB        58.1290   89.9260  -29.8970 C.3    10  VAL10       0.0290
     16  CG1       58.0570   90.9760  -30.9870 C.3    10  VAL10       0.0023
     17  CG2       57.4120   88.6690  -30.3680 C.3    10  VAL10       0.0023
     18  N         61.0870   91.3170  -30.4860 N.am   11  ILE11      -0.1977
     19  CA        61.8020   92.5770  -30.4800 C.3    11  ILE11       0.1596
     20  C         60.9620   93.7690  -30.9400 C.2    11  ILE11       0.2287
     21  O         60.2750   93.7180  -31.9740 O.2    11  ILE11      -0.2864
     22  CB        63.0990   92.5060  -31.3200 C.3    11  ILE11       0.0276
     23  CG1       63.9040   91.2570  -30.8900 C.3    11  ILE11       0.0022
     24  CG2       63.8730   93.8400  -31.2130 C.3    11  ILE11       0.0022
     25  CD1       65.3520   91.5020  -30.5890 C.3    11  ILE11       0.0001
     26  N         66.2420  101.1350  -38.0420 N.3    19  TRP19      -0.1241
     27  CA        66.1920   99.6690  -38.1550 C.3    19  TRP19       0.1605
     28  C         67.5960   99.0890  -38.1210 C.2    19  TRP19       0.2264
     29  O         67.7950   97.9940  -37.6110 O.2    19  TRP19      -0.2867
     30  CB        65.4520   99.2100  -39.4130 C.3    19  TRP19       0.0550
     31  CG        63.9590   99.4510  -39.3560 C.ar   19  TRP19       0.0003
     32  CD1       63.3110  100.6260  -39.5950 C.ar   19  TRP19       0.0946
     33  CD2       62.9420   98.4900  -39.0510 C.ar   19  TRP19       0.0152
     34  NE1       61.9520  100.4640  -39.4380 N.ar   19  TRP19      -0.2442
     35  CE2       61.6990   99.1620  -39.1030 C.ar   19  TRP19       0.0810
     36  CE3       62.9600   97.1320  -38.7200 C.ar   19  TRP19       0.0012
     37  CZ2       60.4920   98.5220  -38.8530 C.ar   19  TRP19       0.0191
     38  CZ3       61.7570   96.4920  -38.4660 C.ar   19  TRP19       0.0001
     39  CH2       60.5410   97.1800  -38.5390 C.ar   19  TRP19       0.0015
     40  N         68.2810   95.8870  -34.8040 N.3    24  TYR24      -0.1241
     41  CA        67.1700   94.9810  -35.1050 C.3    24  TYR24       0.1605
     42  C         67.5790   94.0440  -36.2790 C.2    24  TYR24       0.2264
     43  O         67.6240   92.8140  -36.1000 O.2    24  TYR24      -0.2867
     44  CB        65.9010   95.7950  -35.4500 C.3    24  TYR24       0.0534
     45  CG        64.6880   94.9540  -35.6920 C.ar   24  TYR24      -0.0201
     46  CD1       64.4520   94.3960  -36.9380 C.ar   24  TYR24      -0.0009
     47  CD2       63.7750   94.7010  -34.6800 C.ar   24  TYR24      -0.0009
     48  CE1       63.3530   93.5970  -37.1660 C.ar   24  TYR24       0.0417
     49  CE2       62.6690   93.9080  -34.9030 C.ar   24  TYR24       0.0417
     50  CZ        62.4670   93.3560  -36.1540 C.ar   24  TYR24       0.1957
     51  OH        61.3850   92.5390  -36.4060 O.3    24  TYR24      -0.2866
     52  N         67.8750   89.6230  -37.0250 N.3    28  VAL28      -0.1231
     53  CA        66.9280   88.8790  -37.8150 C.3    28  VAL28       0.1678
     54  C         67.6560   87.6470  -38.2960 C.2    28  VAL28       0.2434
     55  O         68.7340   87.7500  -38.8820 O.2    28  VAL28      -0.2733
     56  CB        66.3440   89.6780  -38.9770 C.3    28  VAL28       0.0265
     57  CG1       65.4970   88.7860  -39.8700 C.3    28  VAL28       0.0020
     58  CG2       65.4820   90.7740  -38.4090 C.3    28  VAL28       0.0020
     59  N         67.0900   86.4620  -38.0160 N.am   29  PRO29      -0.2729
     60  CA        67.8190   85.2850  -38.4600 C.3    29  PRO29       0.1401
     61  C         68.0630   85.2820  -39.9680 C.2    29  PRO29       0.2269
     62  O         67.2340   85.7850  -40.7270 O.2    29  PRO29      -0.2865
     63  CB        66.9250   84.1430  -38.0370 C.3    29  PRO29       0.0296
     64  CG        66.1040   84.6750  -36.9080 C.3    29  PRO29       0.0237
     65  CD        65.9490   86.1380  -37.1420 C.3    29  PRO29       0.0939
     66  N         67.8630   83.0540  -42.1200 N.3    31  THR31      -0.1203
     67  CA        66.9060   82.2540  -42.8270 C.3    31  THR31       0.1994
     68  C         65.6320   83.0060  -42.9530 C.2    31  THR31       0.2617
     69  O         64.8930   82.7360  -43.8710 O.2    31  THR31      -0.2717
     70  CB        66.7250   80.8790  -42.1740 C.3    31  THR31       0.1784
     71  OG1       66.3810   80.9880  -40.7770 O.3    31  THR31      -0.2211
     72  CG2       68.0270   80.1490  -42.2690 C.3    31  THR31       0.0376
     73  N         65.4040   84.0070  -42.0860 N.am   32  GLU32      -0.1979
     74  CA        64.2830   84.9590  -42.2470 C.3    32  GLU32       0.1602
     75  C         64.5950   86.2860  -42.9480 C.2    32  GLU32       0.2287
     76  O         63.6770   86.9840  -43.3440 O.2    32  GLU32      -0.2864
     77  CB        63.7080   85.2920  -40.8880 C.3    32  GLU32       0.0415
     78  CG        63.2730   84.0910  -40.0780 C.3    32  GLU32       0.1163
     79  CD        61.9830   83.4670  -40.5810 C.2    32  GLU32       0.3649
     80  OE1       61.1190   84.1970  -41.1300 O.co2  32  GLU32      -0.2457
     81  OE2       61.8370   82.2350  -40.4270 O.co2  32  GLU32      -0.2457
     82  N         65.1200   89.3840  -45.2700 N.3    34  SER34      -0.1217
     83  CA        65.0920   89.9360  -46.5970 C.3    34  SER34       0.1889
     84  C         66.4720   89.8720  -47.1970 C.2    34  SER34       0.2288
     85  O         67.4570   90.2210  -46.5570 O.2    34  SER34      -0.2866
     86  CB        64.6250   91.3900  -46.5820 C.3    34  SER34       0.2089
     87  OG        64.8020   91.9510  -47.8760 O.3    34  SER34      -0.2183
     88  N         65.9980   76.5700  -40.1750 N.3   179  GLY179     -0.1225
     89  CA        65.9730   77.7250  -39.2980 C.3   179  GLY179      0.1811
     90  C         66.6080   77.5120  -37.9510 C.2   179  GLY179      0.2280
     91  O         66.6900   78.4400  -37.2080 O.2   179  GLY179     -0.2866
     92  N         64.8080   75.8090  -36.0480 N.3   181  SER181     -0.1217
     93  CA        63.5030   76.2550  -35.7320 C.3   181  SER181      0.1889
     94  C         62.5250   75.1860  -35.2060 C.2   181  SER181      0.2288
     95  O         61.7950   75.4580  -34.2530 O.2   181  SER181     -0.2866
     96  CB        62.8810   76.8180  -36.9570 C.3   181  SER181      0.2089
     97  OG        61.5190   77.1860  -36.6820 O.3   181  SER181     -0.2183
     98  N         71.5670   78.6640  -39.8470 N.3   207  ASN207     -0.1240
     99  CA        71.7920   79.8460  -39.0220 C.3   207  ASN207      0.1653
    100  C         72.8970   79.5250  -38.0520 C.2   207  ASN207      0.2266
    101  O         73.0580   78.3830  -37.6370 O.2   207  ASN207     -0.2867
    102  CB        70.5880   80.2790  -38.1940 C.3   207  ASN207      0.1155
    103  CG        69.4690   80.8670  -38.9990 C.2   207  ASN207      0.2627
    104  OD1       69.6640   81.7660  -39.8090 O.2   207  ASN207     -0.2716
    105  ND2       68.2400   80.3650  -38.7510 N.am  207  ASN207     -0.0877
    106  N         71.5350   82.6040  -33.4990 N.3   211  MET211     -0.1230
    107  CA        70.2860   82.9950  -34.1110 C.3   211  MET211      0.1702
    108  C         69.2990   81.8550  -34.0950 C.2   211  MET211      0.2592
    109  O         68.2750   81.9700  -34.7260 O.2   211  MET211     -0.2718
    110  CB        70.4980   83.4540  -35.5600 C.3   211  MET211      0.0401
    111  CG        71.1920   84.8190  -35.6900 C.3   211  MET211      0.0596
    112  SD        71.6980   85.0900  -37.4030 S.3   211  MET211     -0.1393
    113  CE        71.7060   86.8740  -37.4940 C.3   211  MET211      0.0692
    114  N         69.6050   80.7510  -33.4160 N.am  212  ALA212     -0.1966
    115  CA        68.6690   79.6410  -33.3290 C.3   212  ALA212      0.1728
    116  C         67.4430   80.0730  -32.5700 C.2   212  ALA212      0.2616
    117  O         67.4700   81.0150  -31.7680 O.2   212  ALA212     -0.2715
    118  CB        69.2830   78.4310  -32.6660 C.3   212  ALA212      0.0334
    119  N         66.3410   79.4110  -32.8900 N.am  213  ARG213     -0.1963
    120  CA        65.0430   79.8370  -32.4190 C.3   213  ARG213      0.1729
    121  C         65.0430   79.6740  -30.9480 C.2   213  ARG213      0.2616
    122  O         65.6350   78.7350  -30.4090 O.2   213  ARG213     -0.2715
    123  CB        63.9590   78.9830  -33.0090 C.3   213  ARG213      0.0348
    124  CG        62.5740   79.4190  -32.6360 C.3   213  ARG213      0.0492
    125  CD        61.5810   78.7830  -33.5390 C.3   213  ARG213      0.2205
    126  NE        60.2410   79.1910  -33.1950 N.pl3 213  ARG213     -0.0865
    127  CZ        59.1300   78.6950  -33.7280 C.cat 213  ARG213      0.5346
    128  NH1       59.1890   77.7440  -34.6690 N.pl3 213  ARG213      0.1354
    129  NH2       57.9470   79.1300  -33.2870 N.pl3 213  ARG213      0.1354
    130  N         64.4220   80.6260  -30.2860 N.am  214  ASN214     -0.1958
    131  CA        64.5310   80.7090  -28.8450 C.3   214  ASN214      0.1819
    132  C         63.2290   81.0220  -28.1250 C.2   214  ASN214      0.2621
    133  O         63.2800   81.3140  -26.9600 O.2   214  ASN214     -0.2715
    134  CB        65.5670   81.7920  -28.5270 C.3   214  ASN214      0.1195
    135  CG        66.1280   81.6760  -27.1210 C.2   214  ASN214      0.2630
    136  OD1       66.4500   80.5930  -26.6270 O.2   214  ASN214     -0.2716
    137  ND2       66.2140   82.8040  -26.4620 N.am  214  ASN214     -0.0877
    138  N         62.0780   80.9610  -28.8140 N.am  215  ASP215     -0.1971
    139  CA        60.7900   81.1610  -28.1590 C.3   215  ASP215      0.1709
    140  C         60.3270   79.8520  -27.6070 C.2   215  ASP215      0.2293
    141  O         60.7760   78.8070  -28.0990 O.2   215  ASP215     -0.2864
    142  CB        59.7420   81.7630  -29.0800 C.3   215  ASP215      0.1436
    143  CG        59.5120   80.9420  -30.3080 C.2   215  ASP215      0.3671
    144  OD1       60.5240   80.6900  -31.0180 O.co2 215  ASP215     -0.2456
    145  OD2       58.3410   80.5970  -30.5980 O.co2 215  ASP215     -0.2456
    146  N         67.6070   76.9890  -29.3780 N.3   225  ARG225     -0.1245
    147  CA        68.9390   77.5460  -29.0660 C.3   225  ARG225      0.1563
    148  C         69.7170   76.8490  -27.9770 C.2   225  ARG225      0.2260
    149  O         70.9340   76.7560  -28.0370 O.2   225  ARG225     -0.2867
    150  CB        68.7480   78.9580  -28.5950 C.3   225  ARG225      0.0307
    151  CG        69.9930   79.8180  -28.5480 C.3   225  ARG225      0.0489
    152  CD        69.6360   80.9720  -29.4310 C.3   225  ARG225      0.2205
    153  NE        69.6240   82.2590  -28.8240 N.pl3 225  ARG225     -0.0865
    154  CZ        69.0390   83.3250  -29.3700 C.cat 225  ARG225      0.5346
    155  NH1       68.3210   83.2320  -30.4970 N.pl3 225  ARG225      0.1354
    156  NH2       69.1260   84.4920  -28.7300 N.pl3 225  ARG225      0.1354
    157  N         61.7260   85.8680  -48.7570 N.3   253  SER253     -0.1217
    158  CA        62.1290   85.9020  -47.3610 C.3   253  SER253      0.1889
    159  C         61.4660   84.7840  -46.6430 C.2   253  SER253      0.2288
    160  O         60.2840   84.6320  -46.7690 O.2   253  SER253     -0.2866
    161  CB        61.7340   87.2410  -46.7400 C.3   253  SER253      0.2089
    162  OG        62.2730   88.3380  -47.4880 O.3   253  SER253     -0.2183
    163  N         58.5640   89.7350  -49.7450 N.3   488  HIS488     -0.1241
    164  CA        57.8270   89.0740  -48.6600 C.3   488  HIS488      0.1621
    165  C         56.5460   88.5470  -49.1940 C.2   488  HIS488      0.2264
    166  O         55.9010   89.2160  -49.9940 O.2   488  HIS488     -0.2867
    167  CB        57.5300   90.0400  -47.5060 C.3   488  HIS488      0.0745
    168  CG        58.7610   90.5210  -46.8490 C.ar  488  HIS488      0.0817
    169  ND1       59.5430   89.6870  -46.0930 N.ar  488  HIS488     -0.2268
    170  CD2       59.3910   91.7150  -46.8740 C.ar  488  HIS488      0.1154
    171  CE1       60.5950   90.3480  -45.6580 C.ar  488  HIS488      0.1986
    172  NE2       60.5270   91.5790  -46.1160 N.ar  488  HIS488     -0.2212
    173  N         55.8570   79.3870  -36.2080 N.3   498  LYS498     -0.1245
    174  CA        56.8250   80.1540  -36.9760 C.3   498  LYS498      0.1561
    175  C         56.1550   81.1090  -37.9470 C.2   498  LYS498      0.2260
    176  O         56.5850   82.2290  -38.0840 O.2   498  LYS498     -0.2867
    177  CB        57.8090   79.2360  -37.6990 C.3   498  LYS498      0.0271
    178  CG        58.7280   79.9630  -38.6740 C.3   498  LYS498      0.0035
    179  CD        59.7820   79.0290  -39.2570 C.3   498  LYS498      0.0206
    180  CE        59.1970   78.1210  -40.3410 C.3   498  LYS498      0.1093
    181  NZ        60.0770   77.0080  -40.7730 N.3   498  LYS498     -0.1314
    182  N         54.7580   84.0790  -35.9430 N.3   501  TRP501     -0.1227
    183  CA        55.7880   85.0830  -35.7250 C.3   501  TRP501      0.1737
    184  C         56.1790   85.8600  -36.9870 C.2   501  TRP501      0.2595
    185  O         56.4740   87.0570  -36.9180 O.2   501  TRP501     -0.2718
    186  CB        56.9950   84.4660  -35.0850 C.3   501  TRP501      0.0564
    187  CG        56.6750   83.8390  -33.7390 C.ar  501  TRP501      0.0003
    188  CD1       56.8920   82.5490  -33.3680 C.ar  501  TRP501      0.0946
    189  CD2       56.0570   84.4800  -32.6060 C.ar  501  TRP501      0.0152
    190  NE1       56.4480   82.3390  -32.0900 N.ar  501  TRP501     -0.2442
    191  CE2       55.9440   83.5090  -31.5910 C.ar  501  TRP501      0.0810
    192  CE3       55.6110   85.7840  -32.3450 C.ar  501  TRP501      0.0012
    193  CZ2       55.4120   83.8000  -30.3380 C.ar  501  TRP501      0.0191
    194  CZ3       55.0860   86.0810  -31.0950 C.ar  501  TRP501      0.0001
    195  CH2       54.9890   85.0930  -30.1100 C.ar  501  TRP501      0.0015
    196  N         56.1650   85.1920  -38.1450 N.am  502  ARG502     -0.1980
    197  CA        56.4900   85.8410  -39.3810 C.3   502  ARG502      0.1597
    198  C         55.3400   86.7880  -39.7060 C.2   502  ARG502      0.2287
    199  O         55.5690   87.9040  -40.1510 O.2   502  ARG502     -0.2864
    200  CB        56.7480   84.8190  -40.5130 C.3   502  ARG502      0.0334
    201  CG        57.3240   85.4310  -41.8300 C.3   502  ARG502      0.0492
    202  CD        57.6470   84.3610  -42.8920 C.3   502  ARG502      0.2205
    203  NE        58.5800   83.3510  -42.3840 N.pl3 502  ARG502     -0.0865
    204  CZ        58.6890   82.0910  -42.7670 C.cat 502  ARG502      0.5346
    205  NH1       57.8900   81.5830  -43.6970 N.pl3 502  ARG502      0.1354
    206  NH2       59.6000   81.3160  -42.1790 N.pl3 502  ARG502      0.1354
    207  N         53.5450   88.3990  -37.5700 N.3   504  LEU504     -0.1231
    208  CA        53.7680   89.5770  -36.7130 C.3   504  LEU504      0.1693
    209  C         54.9830   90.4040  -37.1800 C.2   504  LEU504      0.2592
    210  O         54.9150   91.6220  -37.2300 O.2   504  LEU504     -0.2718
    211  CB        53.8920   89.1540  -35.2800 C.3   504  LEU504      0.0284
    212  CG        54.2530   90.1930  -34.2370 C.3   504  LEU504      0.0019
    213  CD1       53.2270   91.3110  -34.2150 C.3   504  LEU504      0.0001
    214  CD2       54.3230   89.4530  -32.8970 C.3   504  LEU504      0.0001
    215  N         56.0710   89.7500  -37.5590 N.am  505  ALA505     -0.1966
    216  CA        57.2120   90.4750  -38.0850 C.3   505  ALA505      0.1728
    217  C         56.8680   91.3100  -39.3190 C.2   505  ALA505      0.2616
    218  O         57.4290   92.3940  -39.5250 O.2   505  ALA505     -0.2715
    219  CB        58.3690   89.5350  -38.3970 C.3   505  ALA505      0.0334
    220  N         55.9300   90.8370  -40.1220 N.am  506  MET506     -0.1977
    221  CA        55.5520   91.6010  -41.3170 C.3   506  MET506      0.1605
    222  C         54.7150   92.7850  -40.9530 C.2   506  MET506      0.2287
    223  O         54.9210   93.8540  -41.4820 O.2   506  MET506     -0.2864
    224  CB        54.8940   90.7230  -42.3490 C.3   506  MET506      0.0413
    225  CG        55.9340   89.7860  -42.9670 C.3   506  MET506      0.0598
    226  SD        55.3600   88.7660  -44.3320 S.3   506  MET506     -0.1393
    227  CE        54.1410   87.7050  -43.5790 C.3   506  MET506      0.0692
    228  N         54.8570   94.5490  -38.1920 N.3   508  GLN508     -0.1231
    229  CA        55.8850   95.4890  -37.7770 C.3   508  GLN508      0.1698
    230  C         56.5890   96.1720  -38.9520 C.2   508  GLN508      0.2592
    231  O         56.5730   97.3980  -39.0690 O.2   508  GLN508     -0.2718
    232  CB        56.9010   94.7980  -36.8760 C.3   508  GLN508      0.0381
    233  CG        56.2710   94.2590  -35.6190 C.3   508  GLN508      0.0905
    234  CD        57.2440   93.6280  -34.6740 C.2   508  GLN508      0.2608
    235  OE1       57.5070   92.4390  -34.7580 O.2   508  GLN508     -0.2717
    236  NE2       57.7240   94.4020  -33.7090 N.am  508  GLN508     -0.0878
    237  N         57.1710   95.4110  -39.8520 N.am  509  ARG509     -0.1980
    238  CA        57.9790   96.0060  -40.9060 C.3   509  ARG509      0.1597
    239  C         57.1880   96.9680  -41.7890 C.2   509  ARG509      0.2287
    240  O         57.6590   98.0620  -42.1220 O.2   509  ARG509     -0.2864
    241  CB        58.6270   94.8880  -41.7380 C.3   509  ARG509      0.0334
    242  CG        59.4340   95.3140  -42.9340 C.3   509  ARG509      0.0492
    243  CD        60.7620   95.9060  -42.5700 C.3   509  ARG509      0.2205
    244  NE        61.6980   94.9350  -42.0210 N.pl3 509  ARG509     -0.0865
    245  CZ        62.9820   95.2160  -41.7690 C.cat 509  ARG509      0.5346
    246  NH1       63.4830   96.4300  -42.0420 N.pl3 509  ARG509      0.1354
    247  NH2       63.7810   94.2880  -41.2550 N.pl3 509  ARG509      0.1354
@<TRIPOS>BOND
     1   166   165    2
     2   163   164    1
     3   165   164    1
     4   157   158    1
     5   164   167    1
     6    87    86    1
     7   167   168    1
     8   162   161    1
     9   158   161    1
    10   158   159    1
    11    84    83    1
    12    84    85    2
    13   170   168   ar
    14   170   172   ar
    15   168   169   ar
    16   160   159    2
    17    83    86    1
    18    83    82    1
    19   172   171   ar
    20   169   171   ar
    21   226   227    1
    22   226   225    1
    23    69    68    2
    24   205   204    1
    25    76    75    2
    26   225   224    1
    27    68    67    1
    28    68    73   am
    29    75    74    1
    30   242   243    1
    31   242   241    1
    32   202   203    1
    33   202   201    1
    34    67    70    1
    35    67    66    1
    36   204   203    2
    37   204   206    1
    38   243   244    1
    39   224   221    1
    40    72    70    1
    41    74    73    1
    42    74    77    1
    43    70    71    1
    44   240   239    2
    45   246   245    1
    46   244   245    2
    47   201   200    1
    48   239   238    1
    49   245   247    1
    50   241   238    1
    51   223   222    2
    52   221   222    1
    53   221   220    1
    54    80    79   ar
    55   238   237    1
    56    77    78    1
    57   181   180    1
    58    62    61    2
    59    79    81   ar
    60    79    78    1
    61   200   197    1
    62   180   179    1
    63    88    89    1
    64   199   198    2
    65   220   217   am
    66    61    60    1
    67    57    56    1
    68   237   230   am
    69    98    99    1
    70   104   103    2
    71   198   197    1
    72    32    34   ar
    73    32    31   ar
    74   218   217    2
    75    34    35   ar
    76    30    31    1
    77    30    27    1
    78   197   196    1
    79    31    33   ar
    80   217   216    1
    81    89    90    1
    82   179   178    1
    83    35    33   ar
    84    35    37   ar
    85   231   230    2
    86    33    36   ar
    87    99   102    1
    88    99   100    1
    89   103   105   am
    90   103   102    1
    91    56    58    1
    92    56    53    1
    93   230   229    1
    94    55    54    2
    95    37    39   ar
    96    36    38   ar
    97   178   177    1
    98    39    38   ar
    99    60    63    1
   100    60    59    1
   101   219   216    1
   102    54    59   am
   103    54    53    1
   104   228   229    1
   105    27    28    1
   106    27    26    1
   107   196   184   am
   108    28    29    2
   109   216   215    1
   110   176   175    2
   111   100   101    2
   112    63    64    1
   113    59    65    1
   114    90    91    2
   115   175   174    1
   116    53    52    1
   117   229   232    1
   118   177   174    1
   119   207   208    1
   120   215   209   am
   121   113   112    1
   122   112   111    1
   123   210   209    2
   124   209   208    1
   125    48    46   ar
   126    48    50   ar
   127    65    64    1
   128   184   185    2
   129   184   183    1
   130   174   173    1
   131    96    97    1
   132    96    93    1
   133    46    45   ar
   134   232   233    1
   135   208   211    1
   136    51    50    1
   137    42    43    2
   138    42    41    1
   139    50    49   ar
   140    92    93    1
   141   182   183    1
   142    93    94    1
   143   183   186    1
   144    45    44    1
   145    45    47   ar
   146   111   110    1
   147   233   234    1
   148   110   107    1
   149    44    41    1
   150   211   212    1
   151    94    95    2
   152    41    40    1
   153   186   187    1
   154    49    47   ar
   155   235   234    2
   156   109   108    2
   157   234   236   am
   158   128   127    1
   159   212   213    1
   160   212   214    1
   161   107   108    1
   162   107   106    1
   163   108   114   am
   164   187   188   ar
   165   187   189   ar
   166   127   129    1
   167   127   126    2
   168   125   126    1
   169   125   124    1
   170   114   115    1
   171   188   190   ar
   172   115   118    1
   173   115   116    1
   174   123   124    1
   175   123   120    1
   176   119   116   am
   177   119   120    1
   178   189   192   ar
   179   189   191   ar
   180   116   117    2
   181   120   121    1
   182   192   194   ar
   183   190   191   ar
   184    21    20    2
   185   191   193   ar
   186    22    24    1
   187    22    23    1
   188    22    19    1
   189   194   195   ar
   190   144   143   ar
   191    16    15    1
   192   121   122    2
   193   121   130   am
   194    20    19    1
   195    23    25    1
   196   145   143   ar
   197   155   154    1
   198    18    19    1
   199    18    13   am
   200    17    15    1
   201   193   195   ar
   202   143   142    1
   203   130   131    1
   204    15    12    1
   205    10     8   ar
   206    10     9   ar
   207    12    13    1
   208    12    11    1
   209    13    14    2
   210   152   153    1
   211   152   151    1
   212   146   147    1
   213   154   153    2
   214   154   156    1
   215     8     6   ar
   216   142   139    1
   217   147   150    1
   218   147   148    1
   219   131   134    1
   220   131   132    1
   221   138   139    1
   222   138   132   am
   223     9     7   ar
   224   150   151    1
   225   134   135    1
   226    11     3   am
   227   139   140    1
   228     4     3    2
   229   132   133    2
   230   141   140    2
   231   149   148    2
   232     6     7   ar
   233     6     5    1
   234     3     2    1
   235   135   136    2
   236   135   137   am
   237     5     2    1
   238     2     1    1
