@<TRIPOS>MOLECULE
tmp/4ohtB00.pdb
 180 177 0 0 0
SMALL
GASTEIGER

@<TRIPOS>ATOM
      1  N         46.6500   17.6480  -37.8060 N.3     2  TYR2       -0.1241
      2  CA        45.2600   17.3280  -38.0960 C.3     2  TYR2        0.1605
      3  C         44.6190   18.4790  -38.8680 C.2     2  TYR2        0.2264
      4  O         44.3750   19.5540  -38.3120 O.2     2  TYR2       -0.2867
      5  CB        44.5020   17.0780  -36.7880 C.3     2  TYR2        0.0534
      6  CG        44.8960   15.7870  -36.1010 C.ar    2  TYR2       -0.0201
      7  CD1       45.9700   15.7490  -35.2110 C.ar    2  TYR2       -0.0009
      8  CD2       44.2110   14.5970  -36.3620 C.ar    2  TYR2       -0.0009
      9  CE1       46.3530   14.5600  -34.5950 C.ar    2  TYR2        0.0417
     10  CE2       44.5810   13.4000  -35.7510 C.ar    2  TYR2        0.0417
     11  CZ        45.6510   13.3870  -34.8690 C.ar    2  TYR2        0.1957
     12  OH        46.0080   12.2120  -34.2500 O.3     2  TYR2       -0.2866
     13  N         41.9030    2.9940  -33.0630 N.3   127  VAL127     -0.1231
     14  CA        42.7280    3.7210  -34.0200 C.3   127  VAL127      0.1692
     15  C         42.0710    3.4410  -35.3610 C.2   127  VAL127      0.2592
     16  O         41.9480    2.2850  -35.7710 O.2   127  VAL127     -0.2718
     17  CB        44.1820    3.2170  -34.0040 C.3   127  VAL127      0.0266
     18  CG1       45.0220    3.9790  -35.0300 C.3   127  VAL127      0.0020
     19  CG2       44.7610    3.4090  -32.6140 C.3   127  VAL127      0.0020
     20  N         41.6400    4.4980  -36.0390 N.am  128  GLU128     -0.1966
     21  CA        40.9250    4.3400  -37.2970 C.3   128  GLU128      0.1718
     22  C         41.4880    5.0560  -38.5240 C.2   128  GLU128      0.2458
     23  O         42.2500    6.0170  -38.4110 O.2   128  GLU128     -0.2730
     24  CB        39.4720    4.7570  -37.0810 C.3   128  GLU128      0.0428
     25  CG        38.7770    4.0320  -35.9240 C.3   128  GLU128      0.1163
     26  CD        38.8160    2.5120  -36.0650 C.2   128  GLU128      0.3649
     27  OE1       38.7860    2.0200  -37.2150 O.co2 128  GLU128     -0.2457
     28  OE2       38.8630    1.8110  -35.0260 O.co2 128  GLU128     -0.2457
     29  N         41.1130    4.5790  -39.7240 N.am  129  PRO129     -0.2716
     30  CA        41.5550    5.1380  -41.0040 C.3   129  PRO129      0.1536
     31  C         40.5230    6.1080  -41.6080 C.2   129  PRO129      0.2599
     32  O         39.3820    6.1810  -41.1530 O.2   129  PRO129     -0.2715
     33  CB        41.7540    3.8900  -41.8470 C.3   129  PRO129      0.0310
     34  CG        40.5600    3.0640  -41.4360 C.3   129  PRO129      0.0237
     35  CD        40.4440    3.2780  -39.9300 C.3   129  PRO129      0.0939
     36  N         40.9290    6.8270  -42.6490 N.am  130  TRP130     -0.1960
     37  CA        40.0780    7.8210  -43.3010 C.3   130  TRP130      0.1771
     38  C         39.1150    7.3250  -44.3760 C.2   130  TRP130      0.2619
     39  O         38.1710    8.0400  -44.7280 O.2   130  TRP130     -0.2715
     40  CB        40.9590    8.9070  -43.9230 C.3   130  TRP130      0.0590
     41  CG        42.0640    8.3340  -44.7640 C.ar  130  TRP130      0.0006
     42  CD1       43.3650    8.1400  -44.3920 C.ar  130  TRP130      0.0946
     43  CD2       41.9440    7.7990  -46.0920 C.ar  130  TRP130      0.0152
     44  NE1       44.0620    7.5120  -45.4030 N.ar  130  TRP130     -0.2442
     45  CE2       43.2130    7.2910  -46.4560 C.ar  130  TRP130      0.0810
     46  CE3       40.8850    7.6970  -47.0070 C.ar  130  TRP130      0.0012
     47  CZ2       43.4530    6.6900  -47.6960 C.ar  130  TRP130      0.0191
     48  CZ3       41.1240    7.0970  -48.2400 C.ar  130  TRP130      0.0001
     49  CH2       42.4010    6.6000  -48.5710 C.ar  130  TRP130      0.0015
     50  N         39.3270    6.1200  -44.8990 N.am  131  ASN131     -0.1972
     51  CA        38.4640    5.6420  -45.9750 C.3   131  ASN131      0.1688
     52  C         36.9690    5.5990  -45.6600 C.2   131  ASN131      0.2292
     53  O         36.1520    5.7890  -46.5520 O.2   131  ASN131     -0.2864
     54  CB        38.9730    4.2950  -46.5140 C.3   131  ASN131      0.1181
     55  CG        38.6570    3.1310  -45.6090 C.2   131  ASN131      0.2629
     56  OD1       38.7580    3.2220  -44.3890 O.2   131  ASN131     -0.2716
     57  ND2       38.2870    2.0090  -46.2150 N.am  131  ASN131     -0.0877
     58  N         41.5910    7.7140  -31.8270 N.3   154  LYS154     -0.1231
     59  CA        42.6660    8.3840  -32.5370 C.3   154  LYS154      0.1693
     60  C         42.3560    8.0850  -34.0000 C.2   154  LYS154      0.2592
     61  O         42.5710    6.9600  -34.4820 O.2   154  LYS154     -0.2718
     62  CB        44.0330    7.8250  -32.1490 C.3   154  LYS154      0.0285
     63  CG        45.1950    8.6290  -32.7280 C.3   154  LYS154      0.0035
     64  CD        45.6640    8.0510  -34.0460 C.3   154  LYS154      0.0206
     65  CE        46.7540    8.9100  -34.6730 C.3   154  LYS154      0.1093
     66  NZ        46.2310    9.6840  -35.8370 N.3   154  LYS154     -0.1314
     67  N         41.8090    9.0890  -34.6840 N.am  155  HIS155     -0.1962
     68  CA        41.4210    8.9790  -36.0840 C.3   155  HIS155      0.1787
     69  C         42.5310    9.4680  -37.0100 C.2   155  HIS155      0.2620
     70  O         43.5440    9.9990  -36.5490 O.2   155  HIS155     -0.2715
     71  CB        40.1480    9.7960  -36.3340 C.3   155  HIS155      0.0785
     72  CG        39.1610    9.1200  -37.2360 C.ar  155  HIS155      0.0821
     73  ND1       39.5340    8.4480  -38.3820 N.ar  155  HIS155     -0.2267
     74  CD2       37.8100    9.0270  -37.1680 C.ar  155  HIS155      0.1154
     75  CE1       38.4550    7.9730  -38.9810 C.ar  155  HIS155      0.1986
     76  NE2       37.3970    8.3110  -38.2650 N.ar  155  HIS155     -0.2212
     77  N         42.3350    9.2790  -38.3130 N.am  156  ALA156     -0.1963
     78  CA        43.3120    9.6970  -39.3160 C.3   156  ALA156      0.1728
     79  C         43.5090   11.2170  -39.2980 C.2   156  ALA156      0.2616
     80  O         42.5890   11.9730  -38.9810 O.2   156  ALA156     -0.2715
     81  CB        42.8640    9.2390  -40.7070 C.3   156  ALA156      0.0334
     82  N         44.7100   11.6570  -39.6540 N.am  157  SER157     -0.1950
     83  CA        45.0280   13.0780  -39.6440 C.3   157  SER157      0.1924
     84  C         44.3010   13.9020  -40.7020 C.2   157  SER157      0.2314
     85  O         44.2250   15.1280  -40.5840 O.2   157  SER157     -0.2863
     86  CB        46.5350   13.2760  -39.8000 C.3   157  SER157      0.2116
     87  OG        46.9710   12.8060  -41.0600 O.3   157  SER157     -0.2180
     88  N         51.8310    9.8740  -32.5430 N.3   187  TYR187     -0.1241
     89  CA        52.0990    8.4490  -32.3910 C.3   187  TYR187      0.1605
     90  C         52.6930    8.1620  -31.0160 C.2   187  TYR187      0.2264
     91  O         52.3840    7.1320  -30.4100 O.2   187  TYR187     -0.2867
     92  CB        53.0610    7.9450  -33.4750 C.3   187  TYR187      0.0534
     93  CG        52.5280    8.0340  -34.8860 C.ar  187  TYR187     -0.0201
     94  CD1       51.1540    8.1240  -35.1380 C.ar  187  TYR187     -0.0009
     95  CD2       53.3980    8.0000  -35.9780 C.ar  187  TYR187     -0.0009
     96  CE1       50.6620    8.1780  -36.4440 C.ar  187  TYR187      0.0417
     97  CE2       52.9180    8.0500  -37.2840 C.ar  187  TYR187      0.0417
     98  CZ        51.5520    8.1390  -37.5100 C.ar  187  TYR187      0.1957
     99  OH        51.0910    8.1810  -38.8040 O.3   187  TYR187     -0.2866
    100  N         50.0750    7.9890  -28.5090 N.3   190  VAL190     -0.1245
    101  CA        49.3040    6.7550  -28.6520 C.3   190  VAL190      0.1561
    102  C         49.9820    5.6360  -27.8620 C.2   190  VAL190      0.2260
    103  O         49.3100    4.7860  -27.2790 O.2   190  VAL190     -0.2867
    104  CB        49.1620    6.3420  -30.1390 C.3   190  VAL190      0.0252
    105  CG1       48.5940    4.9270  -30.2450 C.3   190  VAL190      0.0019
    106  CG2       48.2380    7.3200  -30.8520 C.3   190  VAL190      0.0019
    107  N         42.5120   -1.6600  -33.8840 N.3   204  LEU204     -0.1231
    108  CA        42.9880   -0.8160  -34.9660 C.3   204  LEU204      0.1693
    109  C         42.5950   -1.2910  -36.3560 C.2   204  LEU204      0.2593
    110  O         42.5510   -2.4900  -36.6370 O.2   204  LEU204     -0.2718
    111  CB        44.5160   -0.6760  -34.9030 C.3   204  LEU204      0.0284
    112  CG        45.1770    0.0890  -36.0620 C.3   204  LEU204      0.0019
    113  CD1       46.5040    0.6980  -35.6130 C.3   204  LEU204      0.0001
    114  CD2       45.4010   -0.8530  -37.2400 C.3   204  LEU204      0.0001
    115  N         42.3040   -0.3240  -37.2160 N.am  205  THR205     -0.1939
    116  CA        41.9650   -0.5960  -38.6010 C.3   205  THR205      0.2028
    117  C         42.8860    0.3110  -39.4110 C.2   205  THR205      0.2643
    118  O         42.8850    1.5250  -39.2250 O.2   205  THR205     -0.2714
    119  CB        40.4830   -0.2710  -38.8980 C.3   205  THR205      0.1808
    120  OG1       39.6440   -1.1090  -38.0910 O.3   205  THR205     -0.2208
    121  CG2       40.1630   -0.5110  -40.3640 C.3   205  THR205      0.0379
    122  N         43.6940   -0.2810  -40.2860 N.am  206  GLY206     -0.1939
    123  CA        44.6100    0.5140  -41.0790 C.3   206  GLY206      0.2014
    124  C         45.6840   -0.2810  -41.7950 C.2   206  GLY206      0.2639
    125  O         45.4810   -1.4380  -42.1560 O.2   206  GLY206     -0.2714
    126  N         46.8350    0.3500  -41.9990 N.am  207  SER207     -0.1949
    127  CA        47.9560   -0.2740  -42.6960 C.3   207  SER207      0.1924
    128  C         48.7500   -1.2410  -41.8250 C.2   207  SER207      0.2314
    129  O         48.6420   -1.2210  -40.5960 O.2   207  SER207     -0.2863
    130  CB        48.9040    0.8080  -43.2180 C.3   207  SER207      0.2116
    131  OG        49.5390    1.4880  -42.1400 O.3   207  SER207     -0.2180
    132  N         52.0240   -1.2890  -41.3490 N.3   209  ARG209     -0.1231
    133  CA        53.0010   -0.5520  -40.5510 C.3   209  ARG209      0.1694
    134  C         52.3930   -0.0690  -39.2440 C.2   209  ARG209      0.2592
    135  O         52.9390   -0.3200  -38.1690 O.2   209  ARG209     -0.2718
    136  CB        53.5490    0.6390  -41.3410 C.3   209  ARG209      0.0321
    137  CG        54.3480    0.2500  -42.5780 C.3   209  ARG209      0.0489
    138  CD        55.5150   -0.6610  -42.2180 C.3   209  ARG209      0.2205
    139  NE        56.3320   -1.0110  -43.3800 N.pl3 209  ARG209     -0.0865
    140  CZ        57.0280   -0.1350  -44.1010 C.cat 209  ARG209      0.5346
    141  NH1       57.0090    1.1540  -43.7850 N.pl3 209  ARG209      0.1354
    142  NH2       57.7460   -0.5480  -45.1380 N.pl3 209  ARG209      0.1354
    143  N         51.2630    0.6240  -39.3360 N.am  210  GLY210     -0.1957
    144  CA        50.6070    1.1110  -38.1380 C.3   210  GLY210      0.1869
    145  C         50.1970   -0.0510  -37.2530 C.2   210  GLY210      0.2309
    146  O         50.3560   -0.0070  -36.0320 O.2   210  GLY210     -0.2863
    147  N         53.1570   -1.4700  -35.2710 N.3   213  SER213     -0.1202
    148  CA        53.5990   -0.5530  -34.2220 C.3   213  SER213      0.2020
    149  C         52.6870   -0.6280  -33.0060 C.2   213  SER213      0.2618
    150  O         53.1570   -0.7870  -31.8800 O.2   213  SER213     -0.2717
    151  CB        53.6240    0.8930  -34.7400 C.3   213  SER213      0.2103
    152  OG        54.5150    1.0370  -35.8350 O.3   213  SER213     -0.2182
    153  N         51.3820   -0.5080  -33.2330 N.am  214  ILE214     -0.1979
    154  CA        50.4130   -0.5580  -32.1450 C.3   214  ILE214      0.1595
    155  C         50.3560   -1.9340  -31.4650 C.2   214  ILE214      0.2287
    156  O         50.3180   -2.0160  -30.2400 O.2   214  ILE214     -0.2864
    157  CB        48.9870   -0.1600  -32.6440 C.3   214  ILE214      0.0276
    158  CG1       48.8460    1.3670  -32.6790 C.3   214  ILE214      0.0022
    159  CG2       47.9130   -0.7390  -31.7250 C.3   214  ILE214      0.0022
    160  CD1       49.8260    2.0700  -33.5870 C.3   214  ILE214      0.0001
    161  N         53.3830   -2.4690  -29.2690 N.3   217  GLU217     -0.1245
    162  CA        53.2700   -1.6670  -28.0490 C.3   217  GLU217      0.1567
    163  C         52.2650   -2.3180  -27.1020 C.2   217  GLU217      0.2260
    164  O         52.4950   -2.3970  -25.8950 O.2   217  GLU217     -0.2867
    165  CB        52.8090   -0.2400  -28.3910 C.3   217  GLU217      0.0388
    166  CG        53.9050    0.6430  -28.9890 C.3   217  GLU217      0.1160
    167  CD        53.3610    1.8050  -29.8230 C.2   217  GLU217      0.3649
    168  OE1       52.1980    2.2170  -29.6110 O.co2 217  GLU217     -0.2457
    169  OE2       54.1090    2.3150  -30.6900 O.co2 217  GLU217     -0.2457
    170  N         45.5060    0.9530  -53.4230 N.3   361  PHE361     -0.1241
    171  CA        44.3540    1.6620  -52.8770 C.3   361  PHE361      0.1605
    172  C         43.8850    2.7600  -53.8370 C.2   361  PHE361      0.2264
    173  O         43.8780    3.9410  -53.4870 O.2   361  PHE361     -0.2867
    174  CB        44.7230    2.2730  -51.5150 C.3   361  PHE361      0.0534
    175  CG        43.7050    2.0200  -50.4310 C.ar  361  PHE361     -0.0203
    176  CD1       43.2230    0.7330  -50.1880 C.ar  361  PHE361     -0.0042
    177  CD2       43.2540    3.0640  -49.6260 C.ar  361  PHE361     -0.0042
    178  CE1       42.3090    0.4900  -49.1570 C.ar  361  PHE361     -0.0003
    179  CE2       42.3410    2.8330  -48.5940 C.ar  361  PHE361     -0.0003
    180  CZ        41.8680    1.5440  -48.3590 C.ar  361  PHE361     -0.0000
@<TRIPOS>BOND
     1   172   173    2
     2   172   171    1
     3   170   171    1
     4   171   174    1
     5   174   175    1
     6   175   176   ar
     7   175   177   ar
     8   176   178   ar
     9   177   179   ar
    10   178   180   ar
    11   179   180   ar
    12    49    48   ar
    13    49    47   ar
    14    48    46   ar
    15    47    45   ar
    16    46    43   ar
    17    53    52    2
    18    54    51    1
    19    54    55    1
    20    45    43   ar
    21    45    44   ar
    22    57    55   am
    23    43    41   ar
    24    51    52    1
    25    51    50    1
    26    55    56    2
    27    44    42   ar
    28   142   140    1
    29    50    38   am
    30    41    42   ar
    31    41    40    1
    32    39    38    2
    33    38    37    1
    34   140   141    1
    35   140   139    2
    36    40    37    1
    37   139   138    1
    38    37    36    1
    39   130   127    1
    40   130   131    1
    41   127   126    1
    42   127   128    1
    43    36    31   am
    44   137   138    1
    45   137   136    1
    46   125   124    2
    47   126   124   am
    48    33    34    1
    49    33    30    1
    50   128   129    2
    51   124   123    1
    52    31    32    2
    53    31    30    1
    54    34    35    1
    55   132   133    1
    56   136   133    1
    57   123   122    1
    58    87    86    1
    59    30    29    1
    60    81    78    1
    61    84    85    2
    62    84    83    1
    63   133   134    1
    64   121   119    1
    65   122   117   am
    66    35    29    1
    67    86    83    1
    68    29    22   am
    69    82    83    1
    70    82    79   am
    71   117   118    2
    72   117   116    1
    73   143   134   am
    74   143   144    1
    75    78    79    1
    76    78    77    1
    77    79    80    2
    78   134   135    2
    79    75    73   ar
    80    75    76   ar
    81   119   116    1
    82   119   120    1
    83     3     4    2
    84     3     2    1
    85    99    98    1
    86   116   115    1
    87    22    23    2
    88    22    21    1
    89    73    72   ar
    90    77    69   am
    91    76    74   ar
    92   144   145    1
    93     2     1    1
    94     2     5    1
    95    98    97   ar
    96    98    96   ar
    97    21    24    1
    98    21    20    1
    99    97    95   ar
   100   145   146    2
   101   114   112    1
   102    72    74   ar
   103    72    71    1
   104   115   109   am
   105    27    26   ar
   106    24    25    1
   107    69    70    2
   108    69    68    1
   109     5     6    1
   110   110   109    2
   111    96    94   ar
   112     8     6   ar
   113     8    10   ar
   114   109   108    1
   115    71    68    1
   116     6     7   ar
   117    68    67    1
   118    26    25    1
   119    26    28   ar
   120   112   113    1
   121   112   111    1
   122    20    15   am
   123    95    93   ar
   124    66    65    1
   125   152   151    1
   126    16    15    2
   127    10    11   ar
   128    15    14    1
   129   147   148    1
   130     7     9   ar
   131    94    93   ar
   132    18    17    1
   133   108   111    1
   134   108   107    1
   135    93    92    1
   136    11     9   ar
   137    11    12    1
   138   151   148    1
   139    67    60   am
   140    65    64    1
   141    61    60    2
   142   148   149    1
   143    64    63    1
   144    14    17    1
   145    14    13    1
   146    17    19    1
   147    60    59    1
   148   160   158    1
   149    92    89    1
   150   153   149   am
   151   153   154    1
   152   149   150    2
   153    63    62    1
   154   158   157    1
   155   157   154    1
   156   157   159    1
   157    88    89    1
   158    59    62    1
   159    59    58    1
   160    89    90    1
   161   154   155    1
   162   155   156    2
   163    90    91    2
   164   106   104    1
   165   169   167   ar
   166   105   104    1
   167   104   101    1
   168   167   168   ar
   169   167   166    1
   170   161   162    1
   171   166   165    1
   172   101   100    1
   173   101   102    1
   174   165   162    1
   175   162   163    1
   176   102   103    2
   177   163   164    2
