@<TRIPOS>MOLECULE
tmp/4ohvA00.pdb
 211 202 0 0 0
SMALL
GASTEIGER

@<TRIPOS>ATOM
      1  N         -0.1910    8.9300   -1.1450 N.3    14  GLU14      -0.1245
      2  CA         0.0490   10.3470   -1.3350 C.3    14  GLU14       0.1567
      3  C          1.4110   10.7890   -0.8320 C.2    14  GLU14       0.2260
      4  O          1.8820   10.3190    0.1980 O.2    14  GLU14      -0.2867
      5  CB        -1.0560   11.1730   -0.6920 C.3    14  GLU14       0.0388
      6  CG        -1.2190   11.0520    0.7930 C.3    14  GLU14       0.1160
      7  CD        -2.4210   11.8440    1.2850 C.2    14  GLU14       0.3649
      8  OE1       -3.1850   12.2980    0.4220 O.co2  14  GLU14      -0.2457
      9  OE2       -2.5830   12.0350    2.5240 O.co2  14  GLU14      -0.2457
     10  N          3.1240   13.4520    1.0550 N.3    16  ARG16      -0.1231
     11  CA         2.8810   14.5380    1.9960 C.3    16  ARG16       0.1694
     12  C          4.1620   15.2820    2.2350 C.2    16  ARG16       0.2592
     13  O          5.1740   14.6750    2.5920 O.2    16  ARG16      -0.2718
     14  CB         2.3780   14.0080    3.3270 C.3    16  ARG16       0.0321
     15  CG         1.0980   13.2440    3.2100 C.3    16  ARG16       0.0489
     16  CD         0.6090   12.8200    4.5470 C.3    16  ARG16       0.2205
     17  NE        -0.5850   11.9940    4.4320 N.pl3  16  ARG16      -0.0865
     18  CZ        -0.9400   11.0730    5.3270 C.cat  16  ARG16       0.5346
     19  NH1       -0.2100   10.8460    6.4190 N.pl3  16  ARG16       0.1354
     20  NH2       -2.0320   10.3660    5.1240 N.pl3  16  ARG16       0.1354
     21  N          4.1300   16.5920    2.0540 N.am   17  PHE17      -0.1976
     22  CA         5.3090   17.3890    2.3470 C.3    17  PHE17       0.1639
     23  C          4.9280   18.7600    2.8740 C.2    17  PHE17       0.2290
     24  O          3.8310   19.2580    2.6240 O.2    17  PHE17      -0.2864
     25  CB         6.2110   17.5040    1.1200 C.3    17  PHE17       0.0560
     26  CG         5.6290   18.3230    0.0220 C.ar   17  PHE17      -0.0200
     27  CD1        4.8180   17.7530   -0.9240 C.ar   17  PHE17      -0.0042
     28  CD2        5.8960   19.6860   -0.0620 C.ar   17  PHE17      -0.0042
     29  CE1        4.2720   18.5360   -1.9490 C.ar   17  PHE17      -0.0003
     30  CE2        5.3590   20.4640   -1.0830 C.ar   17  PHE17      -0.0003
     31  CZ         4.5410   19.8830   -2.0140 C.ar   17  PHE17      -0.0000
     32  N         -5.5020   17.7730   -3.4380 N.3    37  PHE37      -0.1241
     33  CA        -6.8230   18.0870   -2.8830 C.3    37  PHE37       0.1605
     34  C         -7.8980   18.2460   -3.9570 C.2    37  PHE37       0.2264
     35  O         -8.6940   19.1910   -3.9370 O.2    37  PHE37      -0.2867
     36  CB        -6.7690   19.3460   -2.0130 C.3    37  PHE37       0.0534
     37  CG        -5.7170   19.3000   -0.9290 C.ar   37  PHE37      -0.0203
     38  CD1       -5.5620   18.1780   -0.1330 C.ar   37  PHE37      -0.0042
     39  CD2       -4.9150   20.4060   -0.6840 C.ar   37  PHE37      -0.0042
     40  CE1       -4.6100   18.1440    0.8580 C.ar   37  PHE37      -0.0003
     41  CE2       -3.9660   20.3840    0.2980 C.ar   37  PHE37      -0.0003
     42  CZ        -3.8050   19.2490    1.0710 C.ar   37  PHE37      -0.0000
     43  N          1.6850   23.1880    3.4750 N.3    54  ARG54      -0.1231
     44  CA         1.5250   21.7520    3.7420 C.3    54  ARG54       0.1694
     45  C          0.6020   21.1720    2.6950 C.2    54  ARG54       0.2592
     46  O         -0.5160   21.6470    2.5060 O.2    54  ARG54      -0.2718
     47  CB         0.9900   21.4770    5.1450 C.3    54  ARG54       0.0321
     48  CG         1.6030   22.3640    6.2070 C.3    54  ARG54       0.0489
     49  CD         1.2880   21.8510    7.6000 C.3    54  ARG54       0.2205
     50  NE         1.8970   20.5380    7.8430 N.pl3  54  ARG54      -0.0865
     51  CZ         3.1110   20.3310    8.3630 C.cat  54  ARG54       0.5346
     52  NH1        3.8960   21.3470    8.7260 N.pl3  54  ARG54       0.1354
     53  NH2        3.5460   19.0840    8.5170 N.pl3  54  ARG54       0.1354
     54  N          1.0890   20.1350    2.0150 N.am   55  VAL55      -0.1966
     55  CA         0.4990   19.6700    0.7800 C.3    55  VAL55       0.1727
     56  C          0.5400   18.1540    0.7200 C.2    55  VAL55       0.2616
     57  O          1.4640   17.5320    1.2490 O.2    55  VAL55      -0.2715
     58  CB         1.2710   20.2390   -0.4420 C.3    55  VAL55       0.0290
     59  CG1        0.6330   19.8050   -1.7180 C.3    55  VAL55       0.0023
     60  CG2        1.3180   21.7860   -0.4030 C.3    55  VAL55       0.0023
     61  N         -0.4700   17.5830    0.0690 N.am   56  ALA56      -0.1977
     62  CA        -0.5230   16.1900   -0.2610 C.3    56  ALA56       0.1597
     63  C         -0.8690   16.0770   -1.7260 C.2    56  ALA56       0.2287
     64  O         -1.8840   16.6390   -2.1610 O.2    56  ALA56      -0.2864
     65  CB        -1.6130   15.4840    0.5720 C.3    56  ALA56       0.0319
     66  N        -14.3420   18.8610   15.0470 N.3   113  PRO113     -0.2102
     67  CA       -13.5500   19.7590   15.8540 C.3   113  PRO113      0.1504
     68  C        -12.4280   20.3790   15.0270 C.2   113  PRO113      0.2576
     69  O        -12.3340   20.1260   13.8350 O.2   113  PRO113     -0.2718
     70  CB       -13.0160   18.8400   16.9660 C.3   113  PRO113      0.0282
     71  CG       -12.9060   17.5070   16.3370 C.3   113  PRO113      0.0208
     72  CD       -14.0390   17.4490   15.3260 C.3   113  PRO113      0.0893
     73  N        -11.5980   21.2010   15.6470 N.am  114  THR114     -0.1939
     74  CA       -10.5410   21.8810   14.9200 C.3   114  THR114      0.2028
     75  C         -9.5120   20.8940   14.3880 C.2   114  THR114      0.2642
     76  O         -9.2610   19.8580   14.9820 O.2   114  THR114     -0.2714
     77  CB        -9.8130   22.9300   15.7910 C.3   114  THR114      0.1808
     78  OG1       -9.2620   22.2910   16.9360 O.3   114  THR114     -0.2208
     79  CG2      -10.7810   24.0430   16.2600 C.3   114  THR114      0.0379
     80  N         -8.9300   21.2330   13.2490 N.am  115  ASP115     -0.1957
     81  CA        -7.8230   20.4850   12.6780 C.3   115  ASP115      0.1840
     82  C         -8.0860   19.0280   12.4150 C.2   115  ASP115      0.2622
     83  O         -7.2840   18.1720   12.7800 O.2   115  ASP115     -0.2715
     84  CB        -6.5840   20.6780   13.5380 C.3   115  ASP115      0.1450
     85  CG        -6.1050   22.0950   13.4980 C.2   115  ASP115      0.3671
     86  OD1       -6.1940   22.7140   12.4160 O.co2 115  ASP115     -0.2456
     87  OD2       -5.6600   22.5970   14.5310 O.co2 115  ASP115     -0.2456
     88  N         -9.1940   18.7660   11.7200 N.am  116  VAL116     -0.1963
     89  CA        -9.5050   17.4270   11.2140 C.3   116  VAL116      0.1727
     90  C         -9.5500   17.3590    9.6780 C.2   116  VAL116      0.2617
     91  O         -9.9420   16.3490    9.1150 O.2   116  VAL116     -0.2715
     92  CB       -10.8410   16.9180   11.8040 C.3   116  VAL116      0.0290
     93  CG1      -10.6940   16.7370   13.3310 C.3   116  VAL116      0.0023
     94  CG2      -12.0130   17.8620   11.4360 C.3   116  VAL116      0.0023
     95  N         -9.1430   18.4300    9.0000 N.am  117  GLY117     -0.1940
     96  CA        -9.1000   18.4330    7.5430 C.3   117  GLY117      0.2014
     97  C        -10.4390   18.7580    6.8930 C.2   117  GLY117      0.2639
     98  O        -10.7340   18.3300    5.7710 O.2   117  GLY117     -0.2714
     99  N        -11.2400   19.5380    7.6020 N.am  118  LYS118     -0.1963
    100  CA       -12.5550   19.8980    7.1410 C.3   118  LYS118      0.1728
    101  C        -12.4980   20.7570    5.8800 C.2   118  LYS118      0.2617
    102  O        -13.1280   20.4370    4.8750 O.2   118  LYS118     -0.2715
    103  CB       -13.2670   20.6340    8.2620 C.3   118  LYS118      0.0311
    104  CG       -14.7350   20.7100    8.1110 C.3   118  LYS118      0.0038
    105  CD       -15.4680   20.6440    9.4840 C.3   118  LYS118      0.0206
    106  CE       -14.8010   21.4180   10.5970 C.3   118  LYS118      0.1093
    107  NZ       -15.8200   21.9050   11.5860 N.3   118  LYS118     -0.1314
    108  N        -11.7200   21.8340    5.9200 N.am  119  THR119     -0.1937
    109  CA       -11.5490   22.7020    4.7560 C.3   119  THR119      0.2028
    110  C        -11.0010   21.9080    3.5590 C.2   119  THR119      0.2642
    111  O        -11.4970   22.0320    2.4460 O.2   119  THR119     -0.2714
    112  CB       -10.6600   23.8830    5.1330 C.3   119  THR119      0.1808
    113  OG1      -11.3630   24.7190    6.0660 O.3   119  THR119     -0.2208
    114  CG2      -10.1950   24.7150    3.8840 C.3   119  THR119      0.0379
    115  N        -10.0360   21.0290    3.8010 N.am  120  THR120     -0.1950
    116  CA        -9.4330   20.2320    2.7330 C.3   120  THR120      0.1897
    117  C        -10.4560   19.3130    2.1020 C.2   120  THR120      0.2313
    118  O        -10.4970   19.1450    0.8660 O.2   120  THR120     -0.2863
    119  CB        -8.3150   19.3800    3.2630 C.3   120  THR120      0.1794
    120  OG1       -7.3250   20.2240    3.8320 O.3   120  THR120     -0.2208
    121  CG2       -7.6860   18.5180    2.1460 C.3   120  THR120      0.0378
    122  N        -16.9420   29.5010    8.6270 N.3   142  ASP142     -0.1239
    123  CA       -15.8370   29.6960    9.5530 C.3   142  ASP142      0.1674
    124  C        -15.3350   31.1320    9.4310 C.2   142  ASP142      0.2266
    125  O        -14.6860   31.5020    8.4590 O.2   142  ASP142     -0.2867
    126  CB       -14.7150   28.6920    9.2660 C.3   142  ASP142      0.1410
    127  CG       -13.6870   28.5670   10.4180 C.2   142  ASP142      0.3668
    128  OD1      -13.5900   29.4540   11.3060 O.co2 142  ASP142     -0.2456
    129  OD2      -12.9510   27.5480   10.4120 O.co2 142  ASP142     -0.2456
    130  N        -10.9620   31.1330   10.0760 N.3   145  GLN145     -0.1245
    131  CA       -10.1320   30.7480    8.9330 C.3   145  GLN145      0.1566
    132  C        -11.0320   30.5600    7.7000 C.2   145  GLN145      0.2260
    133  O        -11.5630   29.4800    7.4610 O.2   145  GLN145     -0.2867
    134  CB        -9.3780   29.4490    9.2430 C.3   145  GLN145      0.0367
    135  CG        -8.3990   29.5530   10.4240 C.3   145  GLN145      0.0905
    136  CD        -7.1660   30.4220   10.1210 C.2   145  GLN145      0.2608
    137  OE1       -6.5740   30.2990    9.0680 O.2   145  GLN145     -0.2717
    138  NE2       -6.7800   31.2860   11.0570 N.am  145  GLN145     -0.0878
    139  N        -18.6960   24.3430    4.8580 N.3   218  ASN218     -0.1225
    140  CA       -17.6500   24.2360    5.8680 C.3   218  ASN218      0.1785
    141  C        -18.0940   25.0150    7.1110 C.2   218  ASN218      0.2598
    142  O        -18.6250   26.1430    7.0030 O.2   218  ASN218     -0.2718
    143  CB       -16.3520   24.8320    5.3150 C.3   218  ASN218      0.1169
    144  CG       -15.1710   24.6940    6.2650 C.2   218  ASN218      0.2627
    145  OD1      -14.8200   23.6000    6.6490 O.2   218  ASN218     -0.2716
    146  ND2      -14.5340   25.8110    6.6210 N.am  218  ASN218     -0.0877
    147  N        -17.9210   24.3910    8.2840 N.am  219  THR219     -0.1939
    148  CA       -18.1590   25.0410    9.5730 C.3   219  THR219      0.2028
    149  C        -16.8480   25.2610   10.3350 C.2   219  THR219      0.2642
    150  O        -15.8180   24.7260    9.9660 O.2   219  THR219     -0.2714
    151  CB       -19.0750   24.1740   10.4490 C.3   219  THR219      0.1808
    152  OG1      -18.5110   22.8540   10.5730 O.3   219  THR219     -0.2208
    153  CG2      -20.4920   24.1000    9.8600 C.3   219  THR219      0.0379
    154  N        -16.8860   26.0340   11.4190 N.am  220  CYS220     -0.1953
    155  CA       -15.7280   26.0950   12.3250 C.3   220  CYS220      0.1843
    156  C        -15.7360   24.8980   13.2720 C.2   220  CYS220      0.2626
    157  O        -16.6400   24.0920   13.2410 O.2   220  CYS220     -0.2714
    158  CB       -15.7150   27.3960   13.1310 C.3   220  CYS220      0.0997
    159  SG       -16.9950   27.5150   14.3650 S.3   220  CYS220     -0.0797
    160  N        -14.7230   24.8210   14.1260 N.am  221  GLY221     -0.1954
    161  CA       -14.5230   23.7040   15.0270 C.3   221  GLY221      0.1869
    162  C        -15.2290   23.7990   16.3580 C.2   221  GLY221      0.2309
    163  O        -14.9590   22.9960   17.2590 O.2   221  GLY221     -0.2863
    164  N         -7.6660   12.4590    8.0780 N.3   271  SER271     -0.1217
    165  CA        -6.4060   11.9860    7.5190 C.3   271  SER271      0.1889
    166  C         -5.3050   12.1420    8.5420 C.2   271  SER271      0.2288
    167  O         -5.2650   13.1300    9.2840 O.2   271  SER271     -0.2866
    168  CB        -6.0300   12.7940    6.2570 C.3   271  SER271      0.2089
    169  OG        -4.7420   12.4120    5.7450 O.3   271  SER271     -0.2183
    170  N         -2.4710   13.0290    7.8130 N.3   273  GLY273     -0.1210
    171  CA        -1.6390   14.1400    7.3660 C.3   273  GLY273      0.1956
    172  C         -2.1160   15.5290    7.7850 C.2   273  GLY273      0.2612
    173  O         -1.4540   16.5140    7.4600 O.2   273  GLY273     -0.2717
    174  N         -3.2520   15.6270    8.4800 N.am  274  VAL274     -0.1965
    175  CA        -3.7260   16.9260    8.9270 C.3   274  VAL274      0.1727
    176  C         -2.8510   17.4670   10.0540 C.2   274  VAL274      0.2616
    177  O         -2.5950   16.7820   11.0460 O.2   274  VAL274     -0.2715
    178  CB        -5.1970   16.9220    9.4080 C.3   274  VAL274      0.0290
    179  CG1       -5.5810   18.3200    9.8500 C.3   274  VAL274      0.0023
    180  CG2       -6.1360   16.4230    8.2980 C.3   274  VAL274      0.0023
    181  N         -2.4010   18.7050    9.8800 N.am  275  GLU275     -0.1977
    182  CA        -1.5230   19.3630   10.8380 C.3   275  GLU275      0.1602
    183  C         -2.3490   20.1300   11.8670 C.2   275  GLU275      0.2287
    184  O         -3.2670   20.8650   11.5100 O.2   275  GLU275     -0.2864
    185  CB        -0.5560   20.3150   10.0970 C.3   275  GLU275      0.0415
    186  CG         0.1960   21.3790   10.9720 C.3   275  GLU275      0.1163
    187  CD         1.3680   20.8190   11.8000 C.2   275  GLU275      0.3649
    188  OE1        1.4310   19.5750   12.0090 O.co2 275  GLU275     -0.2457
    189  OE2        2.2190   21.6380   12.2490 O.co2 275  GLU275     -0.2457
    190  N         -2.7960   23.1660   14.2670 N.3   277  ARG277     -0.1245
    191  CA        -2.3330   24.5270   14.4790 C.3   277  ARG277      0.1563
    192  C         -2.3040   24.8930   15.9630 C.2   277  ARG277      0.2260
    193  O         -2.7990   24.1460   16.8150 O.2   277  ARG277     -0.2867
    194  CB        -3.2050   25.5170   13.7110 C.3   277  ARG277      0.0307
    195  CG        -2.9410   25.5440   12.2230 C.3   277  ARG277      0.0489
    196  CD        -3.7640   24.5380   11.4660 C.3   277  ARG277      0.2205
    197  NE        -3.6680   24.8330   10.0480 N.pl3 277  ARG277     -0.0865
    198  CZ        -4.6110   25.3970    9.2970 C.cat 277  ARG277      0.5346
    199  NH1       -5.8170   25.7150    9.7760 N.pl3 277  ARG277      0.1354
    200  NH2       -4.3320   25.6230    8.0170 N.pl3 277  ARG277      0.1354
    201  N         -2.5920   30.4110   13.7320 N.3   282  ARG282     -0.1245
    202  CA        -3.9380   30.8480   13.3340 C.3   282  ARG282      0.1563
    203  C         -4.0600   32.3510   13.1420 C.2   282  ARG282      0.2260
    204  O         -4.7110   32.7910   12.1860 O.2   282  ARG282     -0.2867
    205  CB        -4.9750   30.3680   14.3340 C.3   282  ARG282      0.0307
    206  CG        -5.2480   28.9070   14.1700 C.3   282  ARG282      0.0489
    207  CD        -5.9630   28.2900   15.3520 C.3   282  ARG282      0.2205
    208  NE        -6.1890   26.8830   15.0550 N.pl3 282  ARG282     -0.0865
    209  CZ        -7.1010   26.4310   14.1940 C.cat 282  ARG282      0.5346
    210  NH1       -7.9220   27.2680   13.5670 N.pl3 282  ARG282      0.1354
    211  NH2       -7.1990   25.1270   13.9700 N.pl3 282  ARG282      0.1354
@<TRIPOS>BOND
     1    34    35    2
     2    34    33    1
     3    32    33    1
     4    33    36    1
     5    64    63    2
     6    31    29   ar
     7    31    30   ar
     8    36    37    1
     9    29    27   ar
    10    63    62    1
    11    59    58    1
    12     2     1    1
    13     2     3    1
    14     2     5    1
    15    30    28   ar
    16    37    39   ar
    17    37    38   ar
    18    27    26   ar
    19     3     4    2
    20     5     6    1
    21    39    41   ar
    22    58    60    1
    23    58    55    1
    24    62    61    1
    25    62    65    1
    26    38    40   ar
    27    28    26   ar
    28    26    25    1
    29    61    56   am
    30    41    42   ar
    31     8     7   ar
    32    56    55    1
    33    56    57    2
    34    55    54    1
    35     6     7    1
    36    40    42   ar
    37   118   117    2
    38    10    11    1
    39    25    22    1
    40     7     9   ar
    41    11    12    1
    42    11    14    1
    43    54    45   am
    44    21    12   am
    45    21    22    1
    46   117   116    1
    47   121   119    1
    48    12    13    2
    49    22    23    1
    50   111   110    2
    51    46    45    2
    52    24    23    2
    53    45    44    1
    54   116   119    1
    55   116   115    1
    56    15    14    1
    57    15    16    1
    58   119   120    1
    59    43    44    1
    60   110   115   am
    61   110   109    1
    62    44    47    1
    63   114   112    1
    64    17    16    1
    65    17    18    2
    66   109   112    1
    67   109   108    1
    68   139   140    1
    69   102   101    2
    70    20    18    1
    71   112   113    1
    72    47    48    1
    73   143   140    1
    74   143   144    1
    75    18    19    1
    76   169   168    1
    77    98    97    2
    78   140   141    1
    79   101   108   am
    80   101   100    1
    81    48    49    1
    82   168   165    1
    83   144   146   am
    84   144   145    2
    85    97    96    1
    86    97    99   am
    87   142   141    2
    88   141   147   am
    89   100    99    1
    90   100   103    1
    91   171   172    1
    92   171   170    1
    93   173   172    2
    94   133   132    2
    95   165   164    1
    96   165   166    1
    97    96    95    1
    98    49    50    1
    99   132   131    1
   100   172   174   am
   101    50    51    2
   102   200   198    1
   103   104   103    1
   104   104   105    1
   105   147   148    1
   106   180   178    1
   107    51    53    1
   108    51    52    1
   109   125   124    2
   110   174   175    1
   111   166   167    2
   112   122   123    1
   113   175   178    1
   114   175   176    1
   115   131   134    1
   116   131   130    1
   117    95    90   am
   118   137   136    2
   119    91    90    2
   120   134   135    1
   121   126   123    1
   122   126   127    1
   123   198   199    1
   124   198   197    2
   125   178   179    1
   126   124   123    1
   127   105   106    1
   128   148   149    1
   129   148   151    1
   130    90    89    1
   131   153   151    1
   132   181   176   am
   133   181   182    1
   134   150   149    2
   135   197   196    1
   136   176   177    2
   137   185   182    1
   138   185   186    1
   139   136   135    1
   140   136   138   am
   141   149   154   am
   142   129   127   ar
   143   127   128   ar
   144   151   152    1
   145   106   107    1
   146   182   183    1
   147   186   187    1
   148    89    88    1
   149    89    92    1
   150   154   155    1
   151    94    92    1
   152   196   195    1
   153   184   183    2
   154    88    82   am
   155   187   188   ar
   156   187   189   ar
   157    92    93    1
   158   204   203    2
   159   195   194    1
   160   155   158    1
   161   155   156    1
   162    82    81    1
   163    82    83    2
   164    86    85   ar
   165    81    80    1
   166    81    84    1
   167   158   159    1
   168   203   202    1
   169   157   156    2
   170    80    75   am
   171   156   160   am
   172   202   201    1
   173   202   205    1
   174    85    84    1
   175    85    87   ar
   176   210   209    1
   177   194   191    1
   178    69    68    2
   179   211   209    1
   180   160   161    1
   181   206   205    1
   182   206   207    1
   183   209   208    2
   184   190   191    1
   185    75    74    1
   186    75    76    2
   187   191   192    1
   188    74    73    1
   189    74    77    1
   190   161   162    1
   191    68    73   am
   192    68    67    1
   193    66    72    1
   194    66    67    1
   195   208   207    1
   196    72    71    1
   197    77    79    1
   198    77    78    1
   199    67    70    1
   200   192   193    2
   201    71    70    1
   202   162   163    2
