@<TRIPOS>MOLECULE
tmp/4ohwA00.pdb
 198 188 0 0 0
SMALL
GASTEIGER

@<TRIPOS>ATOM
      1  N         -0.4400    8.7410   -1.3880 N.3    13  GLU13      -0.1245
      2  CA        -0.2400   10.1820   -1.5180 C.3    13  GLU13       0.1567
      3  C          1.1110   10.6390   -0.9690 C.2    13  GLU13       0.2260
      4  O          1.5840   10.1340    0.0510 O.2    13  GLU13      -0.2867
      5  CB        -1.3980   10.9790   -0.8880 C.3    13  GLU13       0.0388
      6  CG        -1.5350   10.8930    0.6310 C.3    13  GLU13       0.1160
      7  CD        -2.7420   11.6630    1.1660 C.2    13  GLU13       0.3649
      8  OE1       -3.7100   11.8820    0.4020 O.co2  13  GLU13      -0.2457
      9  OE2       -2.7280   12.0450    2.3570 O.co2  13  GLU13      -0.2457
     10  N          2.8880   13.2690    0.9930 N.3    15  ARG15      -0.1231
     11  CA         2.6300   14.3260    1.9580 C.3    15  ARG15       0.1694
     12  C          3.9230   15.0730    2.2350 C.2    15  ARG15       0.2592
     13  O          4.9050   14.4820    2.6870 O.2    15  ARG15      -0.2718
     14  CB         2.0690   13.7530    3.2590 C.3    15  ARG15       0.0321
     15  CG         0.7090   13.0980    3.1240 C.3    15  ARG15       0.0489
     16  CD         0.3600   12.3350    4.3890 C.3    15  ARG15       0.2205
     17  NE        -0.9150   11.6350    4.2730 N.pl3  15  ARG15      -0.0865
     18  CZ        -1.3430   10.7020    5.1170 C.cat  15  ARG15       0.5346
     19  NH1       -0.5960   10.3350    6.1510 N.pl3  15  ARG15       0.1354
     20  NH2       -2.5200   10.1250    4.9200 N.pl3  15  ARG15       0.1354
     21  N          3.9260   16.3680    1.9460 N.am   16  PHE16      -0.1976
     22  CA         5.0910   17.1940    2.2230 C.3    16  PHE16       0.1639
     23  C          4.7130   18.5410    2.8240 C.2    16  PHE16       0.2290
     24  O          3.6340   19.0790    2.5590 O.2    16  PHE16      -0.2864
     25  CB         5.9700   17.3680    0.9720 C.3    16  PHE16       0.0560
     26  CG         5.3350   18.1860   -0.1170 C.ar   16  PHE16      -0.0200
     27  CD1        4.4730   17.5960   -1.0360 C.ar   16  PHE16      -0.0042
     28  CD2        5.6110   19.5460   -0.2340 C.ar   16  PHE16      -0.0042
     29  CE1        3.8840   18.3510   -2.0460 C.ar   16  PHE16      -0.0003
     30  CE2        5.0270   20.3110   -1.2430 C.ar   16  PHE16      -0.0003
     31  CZ         4.1650   19.7110   -2.1520 C.ar   16  PHE16      -0.0000
     32  N         -5.7860   17.6640   -3.4940 N.3    36  PHE36      -0.1241
     33  CA        -7.0830   18.0030   -2.9040 C.3    36  PHE36       0.1605
     34  C         -8.2080   18.1270   -3.9420 C.2    36  PHE36       0.2264
     35  O         -9.0280   19.0480   -3.8840 O.2    36  PHE36      -0.2867
     36  CB        -6.9820   19.2590   -2.0190 C.3    36  PHE36       0.0534
     37  CG        -5.9260   19.1710   -0.9400 C.ar   36  PHE36      -0.0203
     38  CD1       -5.6960   17.9770   -0.2550 C.ar   36  PHE36      -0.0042
     39  CD2       -5.1760   20.2900   -0.5960 C.ar   36  PHE36      -0.0042
     40  CE1       -4.7240   17.8980    0.7440 C.ar   36  PHE36      -0.0003
     41  CE2       -4.2050   20.2220    0.4020 C.ar   36  PHE36      -0.0003
     42  CZ        -3.9800   19.0250    1.0740 C.ar   36  PHE36      -0.0000
     43  N          1.4600   22.8820    3.6390 N.3    53  ARG53      -0.1231
     44  CA         1.2680   21.4490    3.8560 C.3    53  ARG53       0.1694
     45  C          0.3640   20.9050    2.7630 C.2    53  ARG53       0.2592
     46  O         -0.7530   21.3820    2.5760 O.2    53  ARG53      -0.2718
     47  CB         0.6910   21.1610    5.2430 C.3    53  ARG53       0.0321
     48  CG         1.6720   21.4180    6.3730 C.3    53  ARG53       0.0489
     49  CD         1.2180   20.7730    7.6670 C.3    53  ARG53       0.2205
     50  NE         2.1300   21.0850    8.7630 N.pl3  53  ARG53      -0.0865
     51  CZ         3.1160   20.2940    9.1820 C.cat  53  ARG53       0.5346
     52  NH1        3.3300   19.1150    8.6100 N.pl3  53  ARG53       0.1354
     53  NH2        3.8870   20.6850   10.1910 N.pl3  53  ARG53       0.1354
     54  N          0.8660   19.9090    2.0380 N.am   54  VAL54      -0.1966
     55  CA         0.2520   19.4620    0.7930 C.3    54  VAL54       0.1727
     56  C          0.2480   17.9370    0.6880 C.2    54  VAL54       0.2616
     57  O          1.1960   17.2680    1.1180 O.2    54  VAL54      -0.2715
     58  CB         1.0000   20.0590   -0.4360 C.3    54  VAL54       0.0290
     59  CG1        0.3390   19.6500   -1.7480 C.3    54  VAL54       0.0023
     60  CG2        1.0820   21.5810   -0.3420 C.3    54  VAL54       0.0023
     61  N         -0.8310   17.3990    0.1260 N.am   55  ALA55      -0.1977
     62  CA        -0.8870   15.9960   -0.2610 C.3    55  ALA55       0.1597
     63  C         -1.1710   15.8910   -1.7490 C.2    55  ALA55       0.2287
     64  O         -2.1360   16.4750   -2.2450 O.2    55  ALA55      -0.2864
     65  CB        -1.9480   15.2570    0.5270 C.3    55  ALA55       0.0319
     66  N        -14.6850   18.8180   14.9740 N.3   115  PRO115     -0.2102
     67  CA       -13.8610   19.7680   15.7200 C.3   115  PRO115      0.1504
     68  C        -12.7470   20.3650   14.8550 C.2   115  PRO115      0.2576
     69  O        -12.6790   20.0920   13.6510 O.2   115  PRO115     -0.2718
     70  CB       -13.2740   18.9060   16.8390 C.3   115  PRO115      0.0282
     71  CG       -13.1880   17.5430   16.2480 C.3   115  PRO115      0.0208
     72  CD       -14.3580   17.4190   15.3120 C.3   115  PRO115      0.0893
     73  N        -11.8890   21.1770   15.4670 N.am  116  THR116     -0.1939
     74  CA       -10.7590   21.7800   14.7650 C.3   116  THR116      0.2028
     75  C         -9.7290   20.7200   14.3680 C.2   116  THR116      0.2642
     76  O         -9.6490   19.6580   14.9930 O.2   116  THR116     -0.2714
     77  CB       -10.0680   22.8690   15.6190 C.3   116  THR116      0.1808
     78  OG1       -9.5920   22.2940   16.8410 O.3   116  THR116     -0.2208
     79  CG2      -11.0330   24.0120   15.9350 C.3   116  THR116      0.0379
     80  N         -8.9600   21.0180   13.3210 N.am  117  ASP117     -0.1957
     81  CA        -7.8410   20.1770   12.8660 C.3   117  ASP117      0.1840
     82  C         -8.2330   18.7520   12.4580 C.2   117  ASP117      0.2622
     83  O         -7.5460   17.7910   12.8090 O.2   117  ASP117     -0.2715
     84  CB        -6.7170   20.1400   13.9180 C.3   117  ASP117      0.1450
     85  CG        -6.2070   21.5240   14.2880 C.2   117  ASP117      0.3671
     86  OD1       -6.1770   22.4180   13.4130 O.co2 117  ASP117     -0.2456
     87  OD2       -5.8220   21.7160   15.4610 O.co2 117  ASP117     -0.2456
     88  N         -9.3290   18.6210   11.7140 N.am  118  VAL118     -0.1963
     89  CA        -9.7370   17.3150   11.1780 C.3   118  VAL118      0.1727
     90  C         -9.7260   17.2750    9.6450 C.2   118  VAL118      0.2617
     91  O        -10.0620   16.2520    9.0440 O.2   118  VAL118     -0.2715
     92  CB       -11.1200   16.8410   11.7260 C.3   118  VAL118      0.0290
     93  CG1      -11.0400   16.5430   13.2240 C.3   118  VAL118      0.0023
     94  CG2      -12.2210   17.8530   11.4150 C.3   118  VAL118      0.0023
     95  N         -9.3360   18.3890    9.0250 N.am  119  GLY119     -0.1940
     96  CA        -9.2510   18.4840    7.5690 C.3   119  GLY119      0.2014
     97  C        -10.5830   18.7690    6.8980 C.2   119  GLY119      0.2639
     98  O        -10.8090   18.3660    5.7580 O.2   119  GLY119     -0.2714
     99  N        -11.4580   19.4740    7.6100 N.am  120  LYS120     -0.1963
    100  CA       -12.7950   19.8150    7.1240 C.3   120  LYS120      0.1728
    101  C        -12.7730   20.6910    5.8610 C.2   120  LYS120      0.2617
    102  O        -13.5500   20.4630    4.9310 O.2   120  LYS120     -0.2715
    103  CB       -13.5820   20.4950    8.2450 C.3   120  LYS120      0.0311
    104  CG       -15.0800   20.2730    8.1910 C.3   120  LYS120      0.0038
    105  CD       -15.6330   19.8270    9.5450 C.3   120  LYS120      0.0206
    106  CE       -15.3560   20.8210   10.6670 C.3   120  LYS120      0.1093
    107  NZ       -16.1660   22.0560   10.5630 N.3   120  LYS120     -0.1314
    108  N        -11.8830   21.6830    5.8390 N.am  121  THR121     -0.1937
    109  CA       -11.6910   22.5460    4.6710 C.3   121  THR121      0.2028
    110  C        -11.1640   21.7440    3.4760 C.2   121  THR121      0.2642
    111  O        -11.6380   21.9140    2.3490 O.2   121  THR121     -0.2714
    112  CB       -10.7460   23.7340    4.9970 C.3   121  THR121      0.1808
    113  OG1      -11.3820   24.5950    5.9470 O.3   121  THR121     -0.2208
    114  CG2      -10.4040   24.5460    3.7440 C.3   121  THR121      0.0379
    115  N        -10.1970   20.8680    3.7420 N.am  122  THR122     -0.1950
    116  CA        -9.6080   19.9920    2.7290 C.3   122  THR122      0.1897
    117  C        -10.6520   19.0680    2.0940 C.2   122  THR122      0.2313
    118  O        -10.6800   18.9120    0.8710 O.2   122  THR122     -0.2863
    119  CB        -8.4460   19.1580    3.3240 C.3   122  THR122      0.1794
    120  OG1       -7.3870   20.0350    3.7210 O.3   122  THR122     -0.2208
    121  CG2       -7.9050   18.1710    2.3120 C.3   122  THR122      0.0378
    122  N        -17.6290   29.0360    8.8530 N.3   144  ASP144     -0.1239
    123  CA       -16.5470   29.2400    9.8160 C.3   144  ASP144      0.1674
    124  C        -16.0780   30.6960    9.8060 C.2   144  ASP144      0.2266
    125  O        -15.3850   31.1350    8.8850 O.2   144  ASP144     -0.2867
    126  CB       -15.3810   28.2860    9.5220 C.3   144  ASP144      0.1410
    127  CG       -14.3310   28.2560   10.6320 C.2   144  ASP144      0.3668
    128  OD1      -14.4510   28.9960   11.6340 O.co2 144  ASP144     -0.2456
    129  OD2      -13.3670   27.4750   10.4950 O.co2 144  ASP144     -0.2456
    130  N        -11.6990   30.8760   10.4820 N.3   147  GLN147     -0.1245
    131  CA       -10.8820   30.6840    9.2900 C.3   147  GLN147      0.1566
    132  C        -11.8050   30.5480    8.0850 C.2   147  GLN147      0.2260
    133  O        -12.6720   29.6710    8.0490 O.2   147  GLN147     -0.2867
    134  CB       -10.0130   29.4250    9.4230 C.3   147  GLN147      0.0367
    135  CG        -9.0560   29.4140   10.6170 C.3   147  GLN147      0.0905
    136  CD        -7.7620   30.1700   10.3550 C.2   147  GLN147      0.2608
    137  OE1       -7.2350   30.1630    9.2410 O.2   147  GLN147     -0.2717
    138  NE2       -7.2370   30.8150   11.3920 N.am  147  GLN147     -0.0878
    139  N        -15.3040   24.7310   14.0270 N.3   225  GLY225     -0.1225
    140  CA       -14.9550   23.5790   14.8610 C.3   225  GLY225      0.1811
    141  C        -15.5760   23.5440   16.2500 C.2   225  GLY225      0.2280
    142  O        -15.1990   22.7110   17.0770 O.2   225  GLY225     -0.2866
    143  N         -7.9210   12.3060    8.0120 N.3   275  SER275     -0.1217
    144  CA        -6.6920   11.8740    7.3600 C.3   275  SER275      0.1889
    145  C         -5.5190   11.9340    8.3350 C.2   275  SER275      0.2288
    146  O         -5.4520   12.8260    9.1820 O.2   275  SER275     -0.2866
    147  CB        -6.4010   12.7510    6.1400 C.3   275  SER275      0.2089
    148  OG        -5.1360   12.4380    5.5800 O.3   275  SER275     -0.2183
    149  N         -2.7080   12.7820    7.5350 N.3   277  GLY277     -0.1210
    150  CA        -1.8820   13.8880    7.0540 C.3   277  GLY277      0.1956
    151  C         -2.2770   15.2450    7.6090 C.2   277  GLY277      0.2612
    152  O         -1.6440   16.2560    7.2990 O.2   277  GLY277     -0.2717
    153  N         -3.3260   15.2710    8.4260 N.am  278  VAL278     -0.1965
    154  CA        -3.7710   16.5070    9.0620 C.3   278  VAL278      0.1727
    155  C         -2.9420   16.7620   10.3220 C.2   278  VAL278      0.2616
    156  O         -2.8490   15.9000   11.2010 O.2   278  VAL278     -0.2715
    157  CB        -5.2890   16.4810    9.4010 C.3   278  VAL278      0.0290
    158  CG1       -5.7620   17.8520    9.8730 C.3   278  VAL278      0.0023
    159  CG2       -6.1090   16.0290    8.1940 C.3   278  VAL278      0.0023
    160  N         -2.3280   17.9420   10.3830 N.am  279  GLU279     -0.1977
    161  CA        -1.5400   18.3730   11.5380 C.3   279  GLU279      0.1602
    162  C         -2.3630   19.3340   12.3970 C.2   279  GLU279      0.2287
    163  O         -3.0970   20.1750   11.8680 O.2   279  GLU279     -0.2864
    164  CB        -0.2300   19.0290   11.0690 C.3   279  GLU279      0.0415
    165  CG         0.4740   19.9430   12.0850 C.3   279  GLU279      0.1163
    166  CD         1.2540   19.1860   13.1510 C.2   279  GLU279      0.3649
    167  OE1        2.1760   18.4190   12.7940 O.co2 279  GLU279     -0.2457
    168  OE2        0.9580   19.3780   14.3500 O.co2 279  GLU279     -0.2457
    169  N         -3.1380   22.4890   14.7700 N.3   281  ARG281     -0.1245
    170  CA        -2.6770   23.8730   14.8320 C.3   281  ARG281      0.1563
    171  C         -2.8060   24.4470   16.2400 C.2   281  ARG281      0.2260
    172  O         -3.6710   24.0320   17.0150 O.2   281  ARG281     -0.2867
    173  CB        -3.4630   24.7380   13.8420 C.3   281  ARG281      0.0307
    174  CG        -3.1170   24.4960   12.3810 C.3   281  ARG281      0.0489
    175  CD        -4.2400   24.9680   11.4700 C.3   281  ARG281      0.2205
    176  NE        -3.8520   24.9520   10.0600 N.pl3 281  ARG281     -0.0865
    177  CZ        -4.6860   25.1600    9.0440 C.cat 281  ARG281      0.5346
    178  NH1       -5.9740   25.3970    9.2640 N.pl3 281  ARG281      0.1354
    179  NH2       -4.2290   25.1280    7.7990 N.pl3 281  ARG281      0.1354
    180  N         -3.1140   29.8270   13.9560 N.3   286  ARG286     -0.1245
    181  CA        -4.4270   30.2990   13.4980 C.3   286  ARG286      0.1563
    182  C         -4.4960   31.8220   13.4080 C.2   286  ARG286      0.2260
    183  O         -5.1240   32.3640   12.4960 O.2   286  ARG286     -0.2867
    184  CB        -5.5460   29.7850   14.4080 C.3   286  ARG286      0.0307
    185  CG        -5.6890   28.2790   14.4340 C.3   286  ARG286      0.0489
    186  CD        -6.9500   27.8640   15.1690 C.3   286  ARG286      0.2205
    187  NE        -6.8110   26.5430   15.7770 N.pl3 286  ARG286     -0.0865
    188  CZ        -7.0390   25.3900   15.1530 C.cat 286  ARG286      0.5346
    189  NH1       -7.4250   25.3690   13.8830 N.pl3 286  ARG286      0.1354
    190  NH2       -6.8770   24.2500   15.8090 N.pl3 286  ARG286      0.1354
    191  N         -2.4120   32.7450   10.3520 N.3   289  MET289     -0.1245
    192  CA        -3.1430   32.3940    9.1330 C.3   289  MET289      0.1570
    193  C         -4.3380   33.3120    8.8720 C.2   289  MET289      0.2261
    194  O         -4.7040   33.5400    7.7170 O.2   289  MET289     -0.2867
    195  CB        -3.5800   30.9270    9.1570 C.3   289  MET289      0.0387
    196  CG        -2.4500   29.9500    8.8730 C.3   289  MET289      0.0595
    197  SD        -3.0020   28.2370    8.8040 S.3   289  MET289     -0.1393
    198  CE        -1.4600   27.4050    8.4230 C.3   289  MET289      0.0692
@<TRIPOS>BOND
     1    34    35    2
     2    34    33    1
     3    32    33    1
     4    33    36    1
     5    64    63    2
     6    31    29   ar
     7    31    30   ar
     8    29    27   ar
     9    36    37    1
    10    63    62    1
    11    59    58    1
    12     2     1    1
    13     2     3    1
    14     2     5    1
    15    30    28   ar
    16    27    26   ar
    17     3     4    2
    18    37    39   ar
    19    37    38   ar
    20     5     6    1
    21    39    41   ar
    22    58    60    1
    23    58    55    1
    24    62    61    1
    25    62    65    1
    26    38    40   ar
    27    28    26   ar
    28    26    25    1
    29    61    56   am
    30     8     7   ar
    31    41    42   ar
    32     6     7    1
    33    56    55    1
    34    56    57    2
    35    40    42   ar
    36    55    54    1
    37   118   117    2
    38    25    22    1
    39    10    11    1
    40     7     9   ar
    41    21    22    1
    42    21    12   am
    43    11    12    1
    44    11    14    1
    45    54    45   am
    46   117   116    1
    47    22    23    1
    48    12    13    2
    49   121   119    1
    50   111   110    2
    51    24    23    2
    52    46    45    2
    53   116   119    1
    54   116   115    1
    55    45    44    1
    56    15    14    1
    57    15    16    1
    58   119   120    1
    59   110   115   am
    60   110   109    1
    61    43    44    1
    62   114   112    1
    63    44    47    1
    64    17    16    1
    65    17    18    2
    66   109   112    1
    67   109   108    1
    68    20    18    1
    69   102   101    2
    70   112   113    1
    71    18    19    1
    72    47    48    1
    73   148   147    1
    74    98    97    2
    75   108   101   am
    76   101   100    1
    77   147   144    1
    78    48    49    1
    79    97    96    1
    80    97    99   am
    81   150   149    1
    82   150   151    1
    83   100    99    1
    84   100   103    1
    85   152   151    2
    86   144   143    1
    87   144   145    1
    88    96    95    1
    89   151   153   am
    90    49    50    1
    91   194   193    2
    92   179   177    1
    93   133   132    2
    94   132   131    1
    95   104   103    1
    96   104   105    1
    97   159   157    1
    98   145   146    2
    99   198   197    1
   100   153   154    1
   101    52    51    1
   102    50    51    2
   103   197   196    1
   104   122   123    1
   105   193   192    1
   106   196   195    1
   107   125   124    2
   108    95    90   am
   109   177   178    1
   110   177   176    2
   111    91    90    2
   112   154   157    1
   113   154   155    1
   114   192   195    1
   115   192   191    1
   116    51    53    1
   117   137   136    2
   118   131   134    1
   119   131   130    1
   120   157   158    1
   121   134   135    1
   122   126   123    1
   123   126   127    1
   124   105   106    1
   125    90    89    1
   126   124   123    1
   127   176   175    1
   128   155   160   am
   129   155   156    2
   130   136   135    1
   131   136   138   am
   132   160   161    1
   133   129   127   ar
   134   107   106    1
   135   127   128   ar
   136   164   161    1
   137   164   165    1
   138    89    88    1
   139    89    92    1
   140    94    92    1
   141   175   174    1
   142   161   162    1
   143    88    82   am
   144    92    93    1
   145   163   162    2
   146   165   166    1
   147   174   173    1
   148    82    83    2
   149    82    81    1
   150   183   182    2
   151   167   166   ar
   152    81    80    1
   153    81    84    1
   154   166   168   ar
   155    80    75   am
   156   182   181    1
   157    86    85   ar
   158   181   180    1
   159   181   184    1
   160    69    68    2
   161   173   170    1
   162   189   188    1
   163    84    85    1
   164   139   140    1
   165    85    87   ar
   166    75    74    1
   167    75    76    2
   168   184   185    1
   169   185   186    1
   170    74    73    1
   171    74    77    1
   172   169   170    1
   173   170   171    1
   174    68    73   am
   175    68    67    1
   176   140   141    1
   177    66    72    1
   178    66    67    1
   179   188   187    2
   180   188   190    1
   181   186   187    1
   182    72    71    1
   183    77    79    1
   184    77    78    1
   185    67    70    1
   186   171   172    2
   187    71    70    1
   188   141   142    2
