@<TRIPOS>MOLECULE
tmp/4ohxA00.pdb
 174 167 0 0 0
SMALL
GASTEIGER

@<TRIPOS>ATOM
      1  N         -0.3510    8.6500   -1.5760 N.3    13  GLU13      -0.1245
      2  CA        -0.1070   10.0700   -1.6440 C.3    13  GLU13       0.1567
      3  C          1.2190   10.4600   -1.0450 C.2    13  GLU13       0.2260
      4  O          1.6480    9.9390   -0.0080 O.2    13  GLU13      -0.2867
      5  CB        -1.2190   10.8860   -0.9620 C.3    13  GLU13       0.0388
      6  CG        -1.3640   10.7170    0.5180 C.3    13  GLU13       0.1160
      7  CD        -2.6030   11.4550    1.0700 C.2    13  GLU13       0.3649
      8  OE1       -3.4910   11.8430    0.2760 O.co2  13  GLU13      -0.2457
      9  OE2       -2.6720   11.6790    2.2980 O.co2  13  GLU13      -0.2457
     10  N          2.8510   13.1090    0.9970 N.3    15  ARG15      -0.1231
     11  CA         2.5530   14.1270    2.0200 C.3    15  ARG15       0.1694
     12  C          3.8330   14.8740    2.3270 C.2    15  ARG15       0.2592
     13  O          4.8380   14.2700    2.7290 O.2    15  ARG15      -0.2718
     14  CB         2.0870   13.5010    3.3400 C.3    15  ARG15       0.0321
     15  CG         0.7920   12.7350    3.2500 C.3    15  ARG15       0.0489
     16  CD         0.4440   12.0840    4.5870 C.3    15  ARG15       0.2205
     17  NE        -0.7910   11.3100    4.4820 N.pl3  15  ARG15      -0.0865
     18  CZ        -1.2130   10.4030    5.3570 C.cat  15  ARG15       0.5346
     19  NH1       -0.5060   10.0930    6.4440 N.pl3  15  ARG15       0.1354
     20  NH2       -2.3530    9.7790    5.1210 N.pl3  15  ARG15       0.1354
     21  N          3.8170   16.1800    2.1340 N.am   16  PHE16      -0.1976
     22  CA         5.0000   16.9660    2.4360 C.3    16  PHE16       0.1639
     23  C          4.6010   18.2860    3.1000 C.2    16  PHE16       0.2290
     24  O          3.4600   18.7560    2.9580 O.2    16  PHE16      -0.2864
     25  CB         5.8910   17.1300    1.1760 C.3    16  PHE16       0.0560
     26  CG         5.2710   17.9380    0.0700 C.ar   16  PHE16      -0.0200
     27  CD1        4.4490   17.3360   -0.8710 C.ar   16  PHE16      -0.0042
     28  CD2        5.5600   19.2910   -0.0660 C.ar   16  PHE16      -0.0042
     29  CE1        3.8590   18.0790   -1.8950 C.ar   16  PHE16      -0.0003
     30  CE2        4.9930   20.0510   -1.1080 C.ar   16  PHE16      -0.0003
     31  CZ         4.1450   19.4480   -2.0120 C.ar   16  PHE16      -0.0000
     32  N         -5.5480   17.6380   -3.6960 N.3    36  PHE36      -0.1241
     33  CA        -6.8650   17.9010   -3.1150 C.3    36  PHE36       0.1605
     34  C         -7.9870   18.0140   -4.2010 C.2    36  PHE36       0.2264
     35  O         -8.8330   18.9110   -4.1510 O.2    36  PHE36      -0.2867
     36  CB        -6.8310   19.1140   -2.1510 C.3    36  PHE36       0.0534
     37  CG        -5.7810   18.9850   -0.9990 C.ar   36  PHE36      -0.0203
     38  CD1       -5.6080   17.7880   -0.2980 C.ar   36  PHE36      -0.0042
     39  CD2       -5.0130   20.0630   -0.6320 C.ar   36  PHE36      -0.0042
     40  CE1       -4.6610   17.6760    0.7440 C.ar   36  PHE36      -0.0003
     41  CE2       -4.0530   19.9590    0.3980 C.ar   36  PHE36      -0.0003
     42  CZ        -3.8910   18.7680    1.0880 C.ar   36  PHE36      -0.0000
     43  N          1.4060   22.5520    3.9960 N.3    53  ARG53      -0.1231
     44  CA         1.2420   21.1110    4.1900 C.3    53  ARG53       0.1694
     45  C          0.3070   20.6240    3.0920 C.2    53  ARG53       0.2592
     46  O         -0.8190   21.0920    2.9870 O.2    53  ARG53      -0.2718
     47  CB         0.6730   20.7750    5.5790 C.3    53  ARG53       0.0321
     48  CG         1.4690   21.3390    6.7390 C.3    53  ARG53       0.0489
     49  CD         1.2780   20.5450    8.0530 C.3    53  ARG53       0.2205
     50  NE         2.4750   20.7030    8.8850 N.pl3  53  ARG53      -0.0865
     51  CZ         3.2400   19.7250    9.3830 C.cat  53  ARG53       0.5346
     52  NH1        2.9430   18.4370    9.2280 N.pl3  53  ARG53       0.1354
     53  NH2        4.3130   20.0560   10.0910 N.pl3  53  ARG53       0.1354
     54  N          0.7880   19.6870    2.2820 N.am   54  VAL54      -0.1966
     55  CA         0.1550   19.2960    1.0190 C.3    54  VAL54       0.1727
     56  C          0.2340   17.7800    0.8650 C.2    54  VAL54       0.2616
     57  O          1.1280   17.1440    1.4270 O.2    54  VAL54      -0.2715
     58  CB         0.8950   19.9700   -0.1650 C.3    54  VAL54       0.0290
     59  CG1        0.4160   19.4460   -1.5180 C.3    54  VAL54       0.0023
     60  CG2        0.7440   21.4970   -0.0730 C.3    54  VAL54       0.0023
     61  N         -0.7260   17.2100    0.1400 N.am   55  ALA55      -0.1977
     62  CA        -0.6520   15.8210   -0.3230 C.3    55  ALA55       0.1597
     63  C         -0.9790   15.7370   -1.8180 C.2    55  ALA55       0.2287
     64  O         -1.9850   16.2910   -2.2540 O.2    55  ALA55      -0.2864
     65  CB        -1.6150   14.9460    0.4630 C.3    55  ALA55       0.0319
     66  N        -14.4360   18.7780   15.8020 N.3   115  PRO115     -0.2102
     67  CA       -13.5840   19.7490   16.4520 C.3   115  PRO115      0.1504
     68  C        -12.4510   20.2280   15.5260 C.2   115  PRO115      0.2576
     69  O        -12.2520   19.6850   14.4080 O.2   115  PRO115     -0.2718
     70  CB       -13.0150   18.9630   17.6370 C.3   115  PRO115      0.0282
     71  CG       -12.8680   17.5680   17.0600 C.3   115  PRO115      0.0208
     72  CD       -14.0800   17.4000   16.1810 C.3   115  PRO115      0.0893
     73  N        -11.7160   21.2360   15.9780 N.am  116  THR116     -0.1939
     74  CA       -10.6460   21.7970   15.1480 C.3   116  THR116      0.2028
     75  C         -9.5580   20.7510   14.8990 C.2   116  THR116      0.2642
     76  O         -9.3980   19.8180   15.6810 O.2   116  THR116     -0.2714
     77  CB       -10.0170   23.0640   15.7710 C.3   116  THR116      0.1808
     78  OG1      -11.0650   23.9530   16.1730 O.3   116  THR116     -0.2208
     79  CG2       -9.1380   23.7650   14.7500 C.3   116  THR116      0.0379
     80  N         -8.8770   20.8920   13.7620 N.am  117  ASP117     -0.1957
     81  CA        -7.7050   20.1060   13.3930 C.3   117  ASP117      0.1840
     82  C         -8.0350   18.6620   13.0650 C.2   117  ASP117      0.2622
     83  O         -7.3580   17.7510   13.5480 O.2   117  ASP117     -0.2715
     84  CB        -6.6170   20.1530   14.4670 C.3   117  ASP117      0.1450
     85  CG        -6.0660   21.5340   14.6700 C.2   117  ASP117      0.3671
     86  OD1       -5.9740   22.3020   13.6730 O.co2 117  ASP117     -0.2456
     87  OD2       -5.7290   21.8580   15.8260 O.co2 117  ASP117     -0.2456
     88  N         -9.0440   18.4770   12.2150 N.am  118  VAL118     -0.1963
     89  CA        -9.4170   17.1600   11.7120 C.3   118  VAL118      0.1727
     90  C         -9.4440   17.0120   10.1450 C.2   118  VAL118      0.2617
     91  O         -9.7890   15.9540    9.6370 O.2   118  VAL118     -0.2715
     92  CB       -10.7680   16.7170   12.3370 C.3   118  VAL118      0.0290
     93  CG1      -10.6560   16.6370   13.9090 C.3   118  VAL118      0.0023
     94  CG2      -11.9060   17.6230   11.8850 C.3   118  VAL118      0.0023
     95  N         -9.0570   18.0460    9.3900 N.am  119  GLY119     -0.1940
     96  CA        -9.0960   18.0010    7.9100 C.3   119  GLY119      0.2014
     97  C        -10.4120   18.4000    7.2470 C.2   119  GLY119      0.2639
     98  O        -10.6710   18.0710    6.0700 O.2   119  GLY119     -0.2714
     99  N        -11.2610   19.1140    7.9880 N.am  120  LYS120     -0.1963
    100  CA       -12.5790   19.4690    7.5040 C.3   120  LYS120      0.1728
    101  C        -12.5560   20.3460    6.2150 C.2   120  LYS120      0.2617
    102  O        -13.2280   20.0500    5.2130 O.2   120  LYS120     -0.2715
    103  CB       -13.3650   20.1220    8.6610 C.3   120  LYS120      0.0311
    104  CG       -14.8570   20.2470    8.4200 C.3   120  LYS120      0.0038
    105  CD       -15.5270   21.1820    9.4650 C.3   120  LYS120      0.0206
    106  CE       -15.4640   20.6660   10.9040 C.3   120  LYS120      0.1093
    107  NZ       -15.9780   21.6950   11.8910 N.3   120  LYS120     -0.1314
    108  N        -11.7730   21.4050    6.2190 N.am  121  THR121     -0.1937
    109  CA       -11.6350   22.2810    5.0290 C.3   121  THR121      0.2028
    110  C        -11.1190   21.5300    3.7740 C.2   121  THR121      0.2642
    111  O        -11.6120   21.7140    2.6450 O.2   121  THR121     -0.2714
    112  CB       -10.7650   23.4710    5.4230 C.3   121  THR121      0.1808
    113  OG1      -11.4820   24.2450    6.4250 O.3   121  THR121     -0.2208
    114  CG2      -10.3860   24.3660    4.2050 C.3   121  THR121      0.0379
    115  N        -10.1370   20.6680    3.9800 N.am  122  THR122     -0.1950
    116  CA        -9.5160   19.9260    2.8820 C.3   122  THR122      0.1897
    117  C        -10.5160   18.9980    2.1850 C.2   122  THR122      0.2313
    118  O        -10.5390   18.8930    0.9440 O.2   122  THR122     -0.2863
    119  CB        -8.3530   19.0990    3.4170 C.3   122  THR122      0.1794
    120  OG1       -7.3680   19.9790    3.9730 O.3   122  THR122     -0.2208
    121  CG2       -7.7120   18.2740    2.2850 C.3   122  THR122      0.0378
    122  N        -16.9360   28.8790    9.0640 N.3   144  ASP144     -0.1239
    123  CA       -15.8650   29.0770   10.0630 C.3   144  ASP144      0.1674
    124  C        -15.3240   30.5140   10.0350 C.2   144  ASP144      0.2266
    125  O        -14.4750   30.8690    9.2080 O.2   144  ASP144     -0.2867
    126  CB       -14.7490   28.0460    9.8770 C.3   144  ASP144      0.1410
    127  CG       -13.7420   28.0110   11.0460 C.2   144  ASP144      0.3668
    128  OD1      -13.7720   28.8570   11.9820 O.co2 144  ASP144     -0.2456
    129  OD2      -12.8680   27.1200   11.0050 O.co2 144  ASP144     -0.2456
    130  N        -18.8060   23.9110    5.1940 N.3   222  ASN222     -0.1240
    131  CA       -17.7760   23.8060    6.2320 C.3   222  ASN222      0.1653
    132  C        -18.2150   24.5360    7.5300 C.2   222  ASN222      0.2266
    133  O        -18.5950   25.7000    7.4630 O.2   222  ASN222     -0.2867
    134  CB       -16.4720   24.4050    5.6630 C.3   222  ASN222      0.1155
    135  CG       -15.2750   24.3030    6.6370 C.2   222  ASN222      0.2627
    136  OD1      -14.9410   23.2200    7.0990 O.2   222  ASN222     -0.2716
    137  ND2      -14.6260   25.4380    6.9210 N.am  222  ASN222     -0.0877
    138  N         -7.7060   12.1180    8.3780 N.3   275  SER275     -0.1217
    139  CA        -6.4840   11.6450    7.7520 C.3   275  SER275      0.1889
    140  C         -5.3220   11.6520    8.7410 C.2   275  SER275      0.2288
    141  O         -5.1770   12.5630    9.5540 O.2   275  SER275     -0.2866
    142  CB        -6.1520   12.5060    6.5070 C.3   275  SER275      0.2089
    143  OG        -4.9180   12.1410    5.9220 O.3   275  SER275     -0.2183
    144  N         -2.5800   12.4040    7.8450 N.3   277  GLY277     -0.1210
    145  CA        -1.8180   13.5900    7.4430 C.3   277  GLY277      0.1956
    146  C         -2.1720   14.9100    8.1390 C.2   277  GLY277      0.2612
    147  O         -1.4820   15.9130    7.9270 O.2   277  GLY277     -0.2717
    148  N         -3.2310   14.9440    8.9490 N.am  278  VAL278     -0.1965
    149  CA        -3.6200   16.1830    9.6440 C.3   278  VAL278      0.1727
    150  C         -2.8400   16.3390   10.9790 C.2   278  VAL278      0.2616
    151  O         -2.8450   15.4210   11.8140 O.2   278  VAL278     -0.2715
    152  CB        -5.1620   16.2430    9.8920 C.3   278  VAL278      0.0290
    153  CG1       -5.5630   17.5460   10.5630 C.3   278  VAL278      0.0023
    154  CG2       -5.9350   16.1130    8.5590 C.3   278  VAL278      0.0023
    155  N         -2.1900   17.4920   11.1710 N.am  279  GLU279     -0.1977
    156  CA        -1.4080   17.8030   12.4000 C.3   279  GLU279      0.1602
    157  C         -2.1720   18.7490   13.3560 C.2   279  GLU279      0.2287
    158  O         -2.9300   19.6080   12.9080 O.2   279  GLU279     -0.2864
    159  CB        -0.0670   18.4580   12.0110 C.3   279  GLU279      0.0415
    160  CG         1.0380   18.4200   13.1000 C.3   279  GLU279      0.1163
    161  CD         1.9400   19.6820   13.1570 C.2   279  GLU279      0.3649
    162  OE1        1.5260   20.7700   12.6900 O.co2 279  GLU279     -0.2457
    163  OE2        3.0660   19.5790   13.7030 O.co2 279  GLU279     -0.2457
    164  N         -2.7620   21.9190   15.5290 N.3   281  ARG281     -0.1245
    165  CA        -2.3230   23.3320   15.5210 C.3   281  ARG281      0.1563
    166  C         -2.5370   23.9570   16.9150 C.2   281  ARG281      0.2260
    167  O         -3.3130   23.4420   17.7240 O.2   281  ARG281     -0.2867
    168  CB        -3.0920   24.1460   14.4550 C.3   281  ARG281      0.0307
    169  CG        -2.7150   23.8650   12.9750 C.3   281  ARG281      0.0489
    170  CD        -3.8580   24.2810   11.9860 C.3   281  ARG281      0.2205
    171  NE        -3.4060   24.4430   10.5920 N.pl3 281  ARG281     -0.0865
    172  CZ        -4.1920   24.7330    9.5440 C.cat 281  ARG281      0.5346
    173  NH1       -5.5100   24.8930    9.6780 N.pl3 281  ARG281      0.1354
    174  NH2       -3.6490   24.8610    8.3330 N.pl3 281  ARG281      0.1354
@<TRIPOS>BOND
     1    34    35    2
     2    34    33    1
     3    32    33    1
     4    33    36    1
     5    64    63    2
     6    36    37    1
     7    31    29   ar
     8    31    30   ar
     9    29    27   ar
    10    63    62    1
    11     2     1    1
    12     2     3    1
    13     2     5    1
    14    59    58    1
    15    30    28   ar
    16     3     4    2
    17    37    39   ar
    18    37    38   ar
    19     5     6    1
    20    27    26   ar
    21    39    41   ar
    22    62    61    1
    23    62    65    1
    24    38    40   ar
    25    58    60    1
    26    58    55    1
    27    28    26   ar
    28    26    25    1
    29    61    56   am
    30     8     7   ar
    31    41    42   ar
    32     6     7    1
    33    40    42   ar
    34    56    55    1
    35    56    57    2
    36   118   117    2
    37    10    11    1
    38    55    54    1
    39     7     9   ar
    40    25    22    1
    41    11    12    1
    42    11    14    1
    43    21    12   am
    44    21    22    1
    45   117   116    1
    46    54    45   am
    47   121   119    1
    48    12    13    2
    49    22    23    1
    50   111   110    2
    51   116   119    1
    52   116   115    1
    53    24    23    2
    54    46    45    2
    55    45    44    1
    56    15    14    1
    57    15    16    1
    58   119   120    1
    59   110   115   am
    60   110   109    1
    61    43    44    1
    62    44    47    1
    63   114   112    1
    64    17    16    1
    65    17    18    2
    66   109   112    1
    67   109   108    1
    68    20    18    1
    69   130   131    1
    70   102   101    2
    71    18    19    1
    72   112   113    1
    73    47    48    1
    74   134   131    1
    75   134   135    1
    76   143   142    1
    77    98    97    2
    78   101   108   am
    79   101   100    1
    80   131   132    1
    81   142   139    1
    82   135   137   am
    83   135   136    2
    84    48    49    1
    85    97    96    1
    86    97    99   am
    87   145   144    1
    88   145   146    1
    89   133   132    2
    90   100    99    1
    91   100   103    1
    92   139   138    1
    93   139   140    1
    94    96    95    1
    95   147   146    2
    96    49    50    1
    97   146   148   am
    98   174   172    1
    99   104   103    1
   100   104   105    1
   101   154   152    1
   102   140   141    2
   103    50    51    2
   104   148   149    1
   105   122   123    1
   106   125   124    2
   107    52    51    1
   108    51    53    1
   109    95    90   am
   110   105   106    1
   111   172   173    1
   112   172   171    2
   113    91    90    2
   114   149   152    1
   115   149   150    1
   116   126   123    1
   117   126   127    1
   118   152   153    1
   119   124   123    1
   120    90    89    1
   121   171   170    1
   122   106   107    1
   123   150   155   am
   124   150   151    2
   125   129   127   ar
   126   127   128   ar
   127   155   156    1
   128    89    88    1
   129    89    92    1
   130    94    92    1
   131   170   169    1
   132   159   156    1
   133   159   160    1
   134    88    82   am
   135    92    93    1
   136   156   157    1
   137   162   161   ar
   138   158   157    2
   139   169   168    1
   140    82    81    1
   141    82    83    2
   142   160   161    1
   143   161   163   ar
   144    81    80    1
   145    81    84    1
   146    86    85   ar
   147    80    75   am
   148    69    68    2
   149   168   165    1
   150    84    85    1
   151    85    87   ar
   152    79    77    1
   153    75    74    1
   154    75    76    2
   155    74    77    1
   156    74    73    1
   157   165   164    1
   158   165   166    1
   159    68    73   am
   160    68    67    1
   161    77    78    1
   162    66    72    1
   163    66    67    1
   164    72    71    1
   165    67    70    1
   166   166   167    2
   167    71    70    1
