@<TRIPOS>MOLECULE
tmp/4oilA00.pdb
 117 108 0 0 0
SMALL
GASTEIGER

@<TRIPOS>ATOM
      1  N        -30.2570    9.1890   -9.7540 N.3    43  LEU43      -0.1245
      2  CA       -30.5630    8.9200  -11.1650 C.3    43  LEU43       0.1561
      3  C        -31.0580   10.1620  -11.9040 C.2    43  LEU43       0.2260
      4  O        -30.6350   10.4650  -13.0140 O.2    43  LEU43      -0.2867
      5  CB       -31.6250    7.8480  -11.2560 C.3    43  LEU43       0.0270
      6  CG       -32.1170    7.4420  -12.6360 C.3    43  LEU43       0.0019
      7  CD1      -30.9720    6.9180  -13.4500 C.3    43  LEU43       0.0001
      8  CD2      -33.1950    6.3710  -12.5300 C.3    43  LEU43       0.0001
      9  N        -29.1540   11.9350  -15.0460 N.3    47  VAL47      -0.1245
     10  CA       -29.8060   12.2210  -16.3150 C.3    47  VAL47       0.1561
     11  C        -29.6160   13.6630  -16.7120 C.2    47  VAL47       0.2260
     12  O        -29.2430   13.9770  -17.8270 O.2    47  VAL47      -0.2867
     13  CB       -31.3240   11.9690  -16.2510 C.3    47  VAL47       0.0252
     14  CG1      -32.0110   12.4650  -17.5210 C.3    47  VAL47       0.0019
     15  CG2      -31.5990   10.5040  -16.1290 C.3    47  VAL47       0.0019
     16  N        -27.1690   14.8150  -20.1440 N.3    51  LYS51      -0.1245
     17  CA       -27.7260   15.5960  -21.2650 C.3    51  LYS51       0.1561
     18  C        -27.0540   16.9510  -21.5020 C.2    51  LYS51       0.2260
     19  O        -27.0770   17.4610  -22.6360 O.2    51  LYS51      -0.2867
     20  CB       -29.2450   15.8280  -21.0790 C.3    51  LYS51       0.0271
     21  CG       -30.0810   14.5840  -21.2700 C.3    51  LYS51       0.0035
     22  CD       -31.3530   14.6370  -20.4520 C.3    51  LYS51       0.0206
     23  CE       -32.5770   15.0820  -21.2660 C.3    51  LYS51       0.1093
     24  NZ       -33.8460   15.0350  -20.4640 N.3    51  LYS51      -0.1314
     25  N        -22.9900   15.3530  -26.1670 N.3    56  PHE56      -0.1241
     26  CA       -23.8760   14.2160  -25.7980 C.3    56  PHE56       0.1605
     27  C        -25.0980   14.1040  -26.7340 C.2    56  PHE56       0.2264
     28  O        -25.5590   12.9900  -27.0800 O.2    56  PHE56      -0.2867
     29  CB       -24.3170   14.3400  -24.3320 C.3    56  PHE56       0.0534
     30  CG       -25.0950   13.1400  -23.8190 C.ar   56  PHE56      -0.0203
     31  CD1      -24.4440   11.9630  -23.4770 C.ar   56  PHE56      -0.0042
     32  CD2      -26.4810   13.1860  -23.7000 C.ar   56  PHE56      -0.0042
     33  CE1      -25.1610   10.8720  -23.0410 C.ar   56  PHE56      -0.0003
     34  CE2      -27.1960   12.1030  -23.2460 C.ar   56  PHE56      -0.0003
     35  CZ       -26.5360   10.9500  -22.9040 C.ar   56  PHE56      -0.0000
     36  N        -30.9190    9.1570  -29.5760 N.3    61  VAL61      -0.1245
     37  CA       -31.6580    9.3020  -28.3310 C.3    61  VAL61       0.1561
     38  C        -31.6950    8.0450  -27.4660 C.2    61  VAL61       0.2260
     39  O        -31.6380    8.1210  -26.2320 O.2    61  VAL61      -0.2867
     40  CB       -33.1400    9.7080  -28.5920 C.3    61  VAL61       0.0252
     41  CG1      -33.7670   10.2400  -27.3040 C.3    61  VAL61       0.0019
     42  CG2      -33.2450   10.7480  -29.7060 C.3    61  VAL61       0.0019
     43  N        -28.5970    7.5620  -26.0030 N.3    64  GLN64      -0.1231
     44  CA       -28.5690    8.4730  -24.8430 C.3    64  GLN64       0.1698
     45  C        -29.1670    7.8320  -23.5920 C.2    64  GLN64       0.2592
     46  O        -28.6070    7.9150  -22.5080 O.2    64  GLN64      -0.2718
     47  CB       -29.2920    9.7870  -25.1490 C.3    64  GLN64       0.0381
     48  CG       -28.6320   10.5600  -26.2680 C.3    64  GLN64       0.0905
     49  CD       -29.3220   11.8620  -26.5640 C.2    64  GLN64       0.2608
     50  OE1      -29.2070   12.4270  -27.6610 O.2    64  GLN64      -0.2717
     51  NE2      -30.0270   12.3540  -25.5950 N.am   64  GLN64      -0.0878
     52  N        -30.2880    7.1520  -23.7360 N.am   65  MET65      -0.1979
     53  CA       -30.9360    6.6090  -22.5670 C.3    65  MET65       0.1605
     54  C        -30.1790    5.3840  -22.1450 C.2    65  MET65       0.2287
     55  O        -29.9480    5.1610  -20.9720 O.2    65  MET65      -0.2864
     56  CB       -32.3920    6.2770  -22.8630 C.3    65  MET65       0.0413
     57  CG       -33.2090    7.5050  -23.2740 C.3    65  MET65       0.0598
     58  SD       -34.9810    7.2710  -23.6570 S.3    65  MET65      -0.1393
     59  CE       -34.9710    6.0470  -24.9720 C.3    65  MET65       0.0692
     60  N        -26.9160    5.9390  -20.2260 N.3    68  ILE68      -0.1231
     61  CA       -27.0860    6.4300  -18.8610 C.3    68  ILE68       0.1692
     62  C        -27.5770    5.2630  -17.9670 C.2    68  ILE68       0.2591
     63  O        -27.1490    5.0880  -16.8310 O.2    68  ILE68      -0.2718
     64  CB       -28.1160    7.5800  -18.8050 C.3    68  ILE68       0.0266
     65  CG1      -27.5910    8.8560  -19.4760 C.3    68  ILE68       0.0019
     66  CG2      -28.4690    7.9170  -17.3680 C.3    68  ILE68       0.0020
     67  CD1      -28.6580    9.9160  -19.7520 C.3    68  ILE68       0.0001
     68  N        -28.5000    4.4800  -18.4790 N.am   69  GLN69      -0.1979
     69  CA       -29.0860    3.4340  -17.6840 C.3    69  GLN69       0.1601
     70  C        -27.9970    2.4220  -17.3260 C.2    69  GLN69       0.2287
     71  O        -27.8870    2.0140  -16.2050 O.2    69  GLN69      -0.2864
     72  CB       -30.2500    2.7820  -18.4630 C.3    69  GLN69       0.0394
     73  CG       -31.4970    3.6590  -18.4320 C.3    69  GLN69       0.0908
     74  CD       -32.6290    3.2020  -19.3480 C.2    69  GLN69       0.2608
     75  OE1      -32.5020    3.1390  -20.5770 O.2    69  GLN69      -0.2717
     76  NE2      -33.7500    2.9170  -18.7500 N.am   69  GLN69      -0.0878
     77  N        -40.2360    3.3960   -8.5010 N.3   217  GLU217     -0.1231
     78  CA       -40.7390    2.8630   -9.7470 C.3   217  GLU217      0.1699
     79  C        -39.6670    2.8370  -10.8280 C.2   217  GLU217      0.2592
     80  O        -39.5230    1.8570  -11.5520 O.2   217  GLU217     -0.2718
     81  CB       -41.8740    3.7670  -10.1770 C.3   217  GLU217      0.0402
     82  CG       -42.8410    3.1810  -11.1690 C.3   217  GLU217      0.1161
     83  CD       -43.4450    4.2640  -12.0510 C.2   217  GLU217      0.3649
     84  OE1      -44.6780    4.2230  -12.2710 O.co2 217  GLU217     -0.2457
     85  OE2      -42.6930    5.1690  -12.5040 O.co2 217  GLU217     -0.2457
     86  N        -38.8990    3.9120  -10.9240 N.am  218  MET218     -0.1979
     87  CA       -37.8510    3.9660  -11.9190 C.3   218  MET218      0.1605
     88  C        -36.6910    2.9850  -11.6360 C.2   218  MET218      0.2287
     89  O        -35.9840    2.5720  -12.5730 O.2   218  MET218     -0.2864
     90  CB       -37.3320    5.3790  -12.0320 C.3   218  MET218      0.0413
     91  CG       -36.7700    5.6800  -13.4030 C.3   218  MET218      0.0598
     92  SD       -36.6730    7.4470  -13.7450 S.3   218  MET218     -0.1393
     93  CE       -36.3990    8.1480  -12.1070 C.3   218  MET218      0.0692
     94  N        -37.7890   -0.6330  -12.3980 N.3   221  GLU221     -0.1231
     95  CA       -37.7780   -0.8050  -13.8170 C.3   221  GLU221      0.1699
     96  C        -36.3680   -1.0160  -14.3760 C.2   221  GLU221      0.2592
     97  O        -36.1600   -1.9020  -15.2010 O.2   221  GLU221     -0.2718
     98  CB       -38.3990    0.3860  -14.5140 C.3   221  GLU221      0.0402
     99  CG       -38.6450    0.0400  -15.9640 C.3   221  GLU221      0.1161
    100  CD       -38.8260    1.2330  -16.8130 C.2   221  GLU221      0.3649
    101  OE1      -39.9580    1.3750  -17.3240 O.co2 221  GLU221     -0.2457
    102  OE2      -37.8580    2.0080  -16.9650 O.co2 221  GLU221     -0.2457
    103  N        -35.4160   -0.1820  -13.9710 N.am  222  ILE222     -0.1980
    104  CA       -34.0540   -0.2850  -14.5070 C.3   222  ILE222      0.1595
    105  C        -33.4190   -1.5970  -14.0740 C.2   222  ILE222      0.2287
    106  O        -32.8490   -2.3270  -14.8800 O.2   222  ILE222     -0.2864
    107  CB       -33.1960    0.9070  -14.0610 C.3   222  ILE222      0.0276
    108  CG1      -33.5630    2.1300  -14.9190 C.3   222  ILE222      0.0022
    109  CG2      -31.7040    0.6180  -14.2190 C.3   222  ILE222      0.0022
    110  CD1      -33.0590    3.4590  -14.3800 C.3   222  ILE222      0.0001
    111  N        -35.0090   -4.4370  -16.1190 N.3   225  VAL225     -0.1245
    112  CA       -35.0010   -4.4420  -17.5840 C.3   225  VAL225      0.1561
    113  C        -33.6290   -4.2540  -18.1990 C.2   225  VAL225      0.2260
    114  O        -33.3050   -4.8870  -19.2270 O.2   225  VAL225     -0.2867
    115  CB       -35.9610   -3.3720  -18.1720 C.3   225  VAL225      0.0252
    116  CG1      -35.8100   -3.3130  -19.6950 C.3   225  VAL225      0.0019
    117  CG2      -37.4240   -3.6870  -17.8000 C.3   225  VAL225      0.0019
@<TRIPOS>BOND
     1    42    40    1
     2    36    37    1
     3    40    37    1
     4    40    41    1
     5    37    38    1
     6    50    49    2
     7    38    39    2
     8    28    27    2
     9    27    26    1
    10    49    48    1
    11    49    51   am
    12    48    47    1
    13    25    26    1
    14    43    44    1
    15    26    29    1
    16    47    44    1
    17    59    58    1
    18    44    45    1
    19    29    30    1
    20    30    32   ar
    21    30    31   ar
    22    52    45   am
    23    52    53    1
    24    32    34   ar
    25    58    57    1
    26    45    46    2
    27    31    33   ar
    28    57    56    1
    29    34    35   ar
    30    33    35   ar
    31    56    53    1
    32    19    18    2
    33    53    54    1
    34    54    55    2
    35    18    17    1
    36    21    20    1
    37    21    22    1
    38    23    24    1
    39    23    22    1
    40    17    20    1
    41    17    16    1
    42    75    74    2
    43    60    61    1
    44    67    65    1
    45   116   115    1
    46    65    64    1
    47    74    76   am
    48    74    73    1
    49   114   113    2
    50    61    64    1
    51    61    62    1
    52    64    66    1
    53    68    62   am
    54    68    69    1
    55    72    73    1
    56    72    69    1
    57   113   112    1
    58   115   117    1
    59   115   112    1
    60    62    63    2
    61    12    11    2
    62    69    70    1
    63   112   111    1
    64    14    13    1
    65    70    71    2
    66   101   100   ar
    67   102   100   ar
    68   100    99    1
    69    11    10    1
    70    10    13    1
    71    10     9    1
    72    13    15    1
    73    99    98    1
    74    97    96    2
    75   108   110    1
    76   108   107    1
    77   106   105    2
    78    98    95    1
    79   104   105    1
    80   104   107    1
    81   104   103    1
    82    96   103   am
    83    96    95    1
    84   109   107    1
    85    95    94    1
    86    92    91    1
    87    92    93    1
    88     7     6    1
    89    91    90    1
    90     4     3    2
    91     6     8    1
    92     6     5    1
    93    89    88    2
    94    85    83   ar
    95    84    83   ar
    96    83    82    1
    97    90    87    1
    98    87    88    1
    99    87    86    1
   100     3     2    1
   101    80    79    2
   102     5     2    1
   103    82    81    1
   104     2     1    1
   105    86    79   am
   106    79    78    1
   107    81    78    1
   108    78    77    1
