@<TRIPOS>MOLECULE
tmp/4oimA01.pdb
 186 179 0 0 0
SMALL
GASTEIGER

@<TRIPOS>ATOM
      1  N          0.1950  -24.5340    3.5530 N.3    93  SER93      -0.1202
      2  CA         0.1230  -24.0230    4.9170 C.3    93  SER93       0.2020
      3  C          1.3970  -24.4340    5.6390 C.2    93  SER93       0.2619
      4  O          1.3680  -25.1860    6.6070 O.2    93  SER93      -0.2717
      5  CB        -1.1250  -24.5550    5.6290 C.3    93  SER93       0.2103
      6  OG        -1.3380  -23.8820    6.8660 O.3    93  SER93      -0.2182
      7  N          2.5150  -23.9400    5.1260 N.am   94  ILE94      -0.1965
      8  CA         3.8370  -24.4280    5.4860 C.3    94  ILE94       0.1727
      9  C          4.7650  -23.2550    5.7600 C.2    94  ILE94       0.2617
     10  O          4.6830  -22.2380    5.0910 O.2    94  ILE94      -0.2715
     11  CB         4.4060  -25.2610    4.3170 C.3    94  ILE94       0.0290
     12  CG1        3.6750  -26.5970    4.2390 C.3    94  ILE94       0.0022
     13  CG2        5.9010  -25.4830    4.4640 C.3    94  ILE94       0.0023
     14  CD1        3.9530  -27.3470    2.9510 C.3    94  ILE94       0.0001
     15  N          5.6290  -23.3850    6.7590 N.am   95  GLY95      -0.1940
     16  CA         6.6130  -22.3510    7.0180 C.3    95  GLY95       0.2014
     17  C          7.7100  -22.8950    7.9060 C.2    95  GLY95       0.2639
     18  O          7.5110  -23.8780    8.6190 O.2    95  GLY95      -0.2714
     19  N          8.8740  -22.2580    7.8580 N.am   96  PHE96      -0.1959
     20  CA         9.9840  -22.6530    8.7200 C.3    96  PHE96       0.1771
     21  C         11.0140  -21.5410    8.7570 C.2    96  PHE96       0.2619
     22  O         11.2790  -20.9080    7.7470 O.2    96  PHE96      -0.2715
     23  CB        10.6540  -23.9470    8.2290 C.3    96  PHE96       0.0574
     24  CG        11.8550  -24.3380    9.0430 C.ar   96  PHE96      -0.0200
     25  CD1       11.6950  -24.9120   10.2920 C.ar   96  PHE96      -0.0042
     26  CD2       13.1400  -24.0910    8.5840 C.ar   96  PHE96      -0.0042
     27  CE1       12.7960  -25.2500   11.0690 C.ar   96  PHE96      -0.0003
     28  CE2       14.2460  -24.4330    9.3580 C.ar   96  PHE96      -0.0003
     29  CZ        14.0700  -25.0070   10.5980 C.ar   96  PHE96      -0.0000
     30  N         11.5900  -21.3000    9.9280 N.am   97  MET97      -0.1977
     31  CA        12.7390  -20.4170   10.0260 C.3    97  MET97       0.1605
     32  C         13.5890  -20.9020   11.1900 C.2    97  MET97       0.2287
     33  O         13.0790  -21.0820   12.2970 O.2    97  MET97      -0.2864
     34  CB        12.3050  -18.9610   10.2270 C.3    97  MET97       0.0413
     35  CG        13.4620  -17.9750   10.3050 C.3    97  MET97       0.0598
     36  SD        14.3690  -17.8370    8.7430 S.3    97  MET97      -0.1393
     37  CE        13.0940  -17.2430    7.6350 C.3    97  MET97       0.0692
     38  N         14.7350  -15.5220   14.3720 N.3   102  MET102     -0.1245
     39  CA        13.6150  -14.8770   15.0540 C.3   102  MET102      0.1570
     40  C         13.7050  -14.8530   16.5760 C.2   102  MET102      0.2261
     41  O         14.5750  -15.4840   17.1710 O.2   102  MET102     -0.2867
     42  CB        12.2990  -15.5280   14.6340 C.3   102  MET102      0.0387
     43  CG        12.2640  -17.0350   14.8090 C.3   102  MET102      0.0595
     44  SD        10.9800  -17.7640   13.7800 S.3   102  MET102     -0.1393
     45  CE        10.5900  -16.3660   12.7350 C.3   102  MET102      0.0692
     46  N         -0.2290  -16.3910    4.9730 N.3   147  ASP147     -0.1225
     47  CA         0.6390  -15.2230    5.0720 C.3   147  ASP147      0.1805
     48  C          0.4630  -14.5940    6.4620 C.2   147  ASP147      0.2597
     49  O         -0.5180  -14.8760    7.1660 O.2   147  ASP147     -0.2718
     50  CB         0.1970  -14.2560    3.9590 C.3   147  ASP147      0.1424
     51  CG         1.0790  -13.0210    3.8190 C.2   147  ASP147      0.3668
     52  OD1        2.2540  -13.0190    4.2450 O.co2 147  ASP147     -0.2456
     53  OD2        0.5790  -12.0440    3.2130 O.co2 147  ASP147     -0.2456
     54  N          1.4300  -13.7790    6.8780 N.am  148  PHE148     -0.1976
     55  CA         1.2940  -12.9420    8.0710 C.3   148  PHE148      0.1639
     56  C          1.8090  -11.5890    7.6200 C.2   148  PHE148      0.2290
     57  O          2.9640  -11.4850    7.2110 O.2   148  PHE148     -0.2864
     58  CB         2.1210  -13.4740    9.2540 C.3   148  PHE148      0.0560
     59  CG         1.8930  -12.7190   10.5480 C.ar  148  PHE148     -0.0200
     60  CD1        2.9360  -12.0590   11.1800 C.ar  148  PHE148     -0.0042
     61  CD2        0.6320  -12.6740   11.1310 C.ar  148  PHE148     -0.0042
     62  CE1        2.7250  -11.3730   12.3610 C.ar  148  PHE148     -0.0003
     63  CE2        0.4120  -11.9790   12.2990 C.ar  148  PHE148     -0.0003
     64  CZ         1.4570  -11.3350   12.9250 C.ar  148  PHE148     -0.0000
     65  N          8.4890   -5.5480   12.8630 N.3   154  MET154     -0.1231
     66  CA         7.9070   -5.7560   14.1850 C.3   154  MET154      0.1687
     67  C          8.9100   -6.5600   14.9970 C.2   154  MET154      0.2434
     68  O          9.8190   -7.1610   14.4440 O.2   154  MET154     -0.2733
     69  CB         6.5930   -6.5310   14.0440 C.3   154  MET154      0.0400
     70  CG         6.7970   -7.9760   13.6500 C.3   154  MET154      0.0596
     71  SD         5.2540   -8.8280   13.2710 S.3   154  MET154     -0.1393
     72  CE         4.9290   -8.2150   11.6210 C.3   154  MET154      0.0692
     73  N          8.7570   -6.5680   16.3220 N.am  155  PRO155     -0.2718
     74  CA         9.6920   -7.3740   17.1080 C.3   155  PRO155      0.1535
     75  C          9.4940   -8.8720   16.8690 C.2   155  PRO155      0.2598
     76  O          8.3970   -9.2850   16.4850 O.2   155  PRO155     -0.2715
     77  CB         9.3580   -6.9980   18.5630 C.3   155  PRO155      0.0310
     78  CG         7.9950   -6.3990   18.5180 C.3   155  PRO155      0.0237
     79  CD         7.8250   -5.7890   17.1500 C.3   155  PRO155      0.0939
     80  N         10.5680   -9.6370   17.0680 N.am  156  ALA156     -0.1964
     81  CA        10.5520  -11.1080   17.1410 C.3   156  ALA156      0.1728
     82  C         10.3500  -11.8630   15.8300 C.2   156  ALA156      0.2616
     83  O         10.9850  -12.8950   15.6260 O.2   156  ALA156     -0.2715
     84  CB         9.5580  -11.6060   18.2090 C.3   156  ALA156      0.0334
     85  N          9.4710  -11.3780   14.9560 N.am  157  TYR157     -0.1974
     86  CA         9.1650  -12.1160   13.7280 C.3   157  TYR157      0.1639
     87  C         10.3730  -12.0800   12.7790 C.2   157  TYR157      0.2290
     88  O         10.5680  -12.9990   11.9730 O.2   157  TYR157     -0.2864
     89  CB         7.9150  -11.5490   13.0450 C.3   157  TYR157      0.0560
     90  CG         7.1970  -12.5060   12.1050 C.ar  157  TYR157     -0.0198
     91  CD1        6.7980  -13.7690   12.5340 C.ar  157  TYR157     -0.0009
     92  CD2        6.8550  -12.1160   10.8070 C.ar  157  TYR157     -0.0009
     93  CE1        6.1120  -14.6400   11.6720 C.ar  157  TYR157      0.0417
     94  CE2        6.1710  -12.9780    9.9440 C.ar  157  TYR157      0.0417
     95  CZ         5.8020  -14.2340   10.3840 C.ar  157  TYR157      0.1957
     96  OH         5.1210  -15.0850    9.5290 O.3   157  TYR157     -0.2866
     97  N         11.5110  -14.1360    9.4790 N.3   160  MET160     -0.1245
     98  CA        10.2640  -14.6850    8.9310 C.3   160  MET160      0.1570
     99  C          9.4590  -13.5910    8.2390 C.2   160  MET160      0.2261
    100  O          8.7510  -13.8530    7.2640 O.2   160  MET160     -0.2867
    101  CB         9.4270  -15.3970   10.0120 C.3   160  MET160      0.0387
    102  CG         8.3010  -16.2440    9.4230 C.3   160  MET160      0.0595
    103  SD         8.9200  -17.6190    8.4110 S.3   160  MET160     -0.1393
    104  CE         7.3720  -18.3130    7.8240 C.3   160  MET160      0.0692
    105  N          8.0440  -13.7950    4.5080 N.3   164  LYS164     -0.1245
    106  CA         6.6550  -13.5120    4.0990 C.3   164  LYS164      0.1561
    107  C          6.5770  -12.4330    3.0140 C.2   164  LYS164      0.2260
    108  O          5.7300  -12.5080    2.1210 O.2   164  LYS164     -0.2867
    109  CB         5.7880  -13.1020    5.2920 C.3   164  LYS164      0.0271
    110  CG         5.4990  -14.2490    6.2730 C.3   164  LYS164      0.0035
    111  CD         4.7900  -15.4390    5.5840 C.3   164  LYS164      0.0206
    112  CE         4.3250  -16.4710    6.6540 C.3   164  LYS164      0.1093
    113  NZ         3.7790  -17.7470    6.0240 N.3   164  LYS164     -0.1314
    114  N         -2.7620  -13.5910   14.5440 N.3   192  PRO192     -0.2102
    115  CA        -2.0490  -14.6040   15.3350 C.3   192  PRO192      0.1504
    116  C         -2.9670  -15.7000   15.8840 C.2   192  PRO192      0.2575
    117  O         -4.0560  -15.4150   16.3850 O.2   192  PRO192     -0.2718
    118  CB        -1.4230  -13.7900   16.4740 C.3   192  PRO192      0.0282
    119  CG        -2.1980  -12.5110   16.5230 C.3   192  PRO192      0.0208
    120  CD        -2.7110  -12.2490   15.1480 C.3   192  PRO192      0.0893
    121  N         -2.5220  -16.9480   15.7630 N.am  193  ILE193     -0.1980
    122  CA        -3.2810  -18.1110   16.2150 C.3   193  ILE193      0.1595
    123  C         -2.3560  -19.0120   17.0210 C.2   193  ILE193      0.2287
    124  O         -1.2140  -19.2410   16.6220 O.2   193  ILE193     -0.2864
    125  CB        -3.8180  -18.9250   15.0150 C.3   193  ILE193      0.0276
    126  CG1       -4.7990  -18.0900   14.1840 C.3   193  ILE193      0.0022
    127  CG2       -4.4920  -20.2160   15.4950 C.3   193  ILE193      0.0022
    128  CD1       -6.0900  -17.7610   14.9300 C.3   193  ILE193      0.0001
    129  N         -0.7360  -21.8300   17.5800 N.3   195  THR195     -0.1218
    130  CA        -0.3470  -23.0720   16.9250 C.3   195  THR195      0.1862
    131  C          1.0310  -23.5010   17.4060 C.2   195  THR195      0.2287
    132  O          1.6980  -22.7570   18.1210 O.2   195  THR195     -0.2866
    133  CB        -0.2420  -22.8720   15.4130 C.3   195  THR195      0.1770
    134  OG1        0.7280  -21.8510   15.1430 O.3   195  THR195     -0.2211
    135  CG2       -1.5900  -22.4550   14.8190 C.3   195  THR195      0.0375
    136  N          3.7430  -23.7740   15.5240 N.3   197  ALA197     -0.1231
    137  CA         4.7210  -22.8740   14.9190 C.3   197  ALA197      0.1694
    138  C          4.7980  -21.5520   15.6720 C.2   197  ALA197      0.2591
    139  O          5.8550  -20.9240   15.7350 O.2   197  ALA197     -0.2718
    140  CB         4.3930  -22.6250   13.4600 C.3   197  ALA197      0.0304
    141  N          3.6710  -21.1370   16.2380 N.am  198  MET198     -0.1979
    142  CA         3.6200  -19.9180   17.0320 C.3   198  MET198      0.1605
    143  C          4.4820  -20.0770   18.2850 C.2   198  MET198      0.2287
    144  O          5.2060  -19.1590   18.6670 O.2   198  MET198     -0.2864
    145  CB         2.1740  -19.5820   17.4030 C.3   198  MET198      0.0413
    146  CG         2.0460  -18.6850   18.6200 C.3   198  MET198      0.0598
    147  SD         2.5470  -16.9970   18.2680 S.3   198  MET198     -0.1393
    148  CE         0.9600  -16.2810   17.8870 C.3   198  MET198      0.0692
    149  N          7.0370  -21.8930   18.5270 N.3   200  ALA200     -0.1231
    150  CA         8.4300  -21.9090   18.0890 C.3   200  ALA200      0.1694
    151  C          9.0310  -20.5040   18.0400 C.2   200  ALA200      0.2591
    152  O         10.2480  -20.3410   17.9070 O.2   200  ALA200     -0.2718
    153  CB         8.5560  -22.5830   16.7460 C.3   200  ALA200      0.0304
    154  N          8.1740  -19.4920   18.1350 N.am  201  ILE201     -0.1980
    155  CA         8.6400  -18.1270   18.3250 C.3   201  ILE201      0.1595
    156  C          8.7640  -17.8120   19.8230 C.2   201  ILE201      0.2287
    157  O          9.8540  -17.4950   20.3020 O.2   201  ILE201     -0.2864
    158  CB         7.7080  -17.0970   17.6630 C.3   201  ILE201      0.0276
    159  CG1        7.1430  -17.6360   16.3460 C.3   201  ILE201      0.0022
    160  CG2        8.4470  -15.7850   17.4340 C.3   201  ILE201      0.0022
    161  CD1        6.1400  -16.7050   15.6930 C.3   201  ILE201      0.0001
    162  N          5.8300   -9.8540   22.1150 N.3   214  ILE214     -0.1245
    163  CA         4.8240  -10.7020   21.4870 C.3   214  ILE214      0.1561
    164  C          3.4710  -10.6240   22.2000 C.2   214  ILE214      0.2260
    165  O          2.4380  -10.4980   21.5490 O.2   214  ILE214     -0.2867
    166  CB         5.2940  -12.1600   21.3710 C.3   214  ILE214      0.0252
    167  CG1        6.4990  -12.2390   20.4250 C.3   214  ILE214      0.0019
    168  CG2        4.1650  -13.0410   20.8420 C.3   214  ILE214      0.0019
    169  CD1        7.2900  -13.5350   20.5280 C.3   214  ILE214      0.0001
    170  N          1.8240   -7.4640   21.2830 N.3   217  LEU217     -0.1231
    171  CA         1.3050   -7.5040   19.9200 C.3   217  LEU217      0.1693
    172  C         -0.0570   -8.1960   19.8930 C.2   217  LEU217      0.2591
    173  O         -0.9870   -7.7330   19.2360 O.2   217  LEU217     -0.2718
    174  CB         2.3050   -8.1990   18.9950 C.3   217  LEU217      0.0284
    175  CG         1.9630   -8.3340   17.5080 C.3   217  LEU217      0.0019
    176  CD1        3.2430   -8.2460   16.7040 C.3   217  LEU217      0.0001
    177  CD2        1.2520   -9.6550   17.2190 C.3   217  LEU217      0.0001
    178  N         -0.1720   -9.3080   20.6130 N.am  218  GLU218     -0.1979
    179  CA        -1.4420  -10.0160   20.7100 C.3   218  GLU218      0.1602
    180  C         -2.5720   -9.1690   21.3210 C.2   218  GLU218      0.2287
    181  O         -3.6980   -9.1790   20.8190 O.2   218  GLU218     -0.2864
    182  CB        -1.2480  -11.3060   21.5080 C.3   218  GLU218      0.0415
    183  CG        -0.1880  -12.2190   20.9010 C.3   218  GLU218      0.1163
    184  CD         0.1720  -13.3920   21.8090 C.2   218  GLU218      0.3649
    185  OE1       -0.2600  -13.3930   22.9830 O.co2 218  GLU218     -0.2457
    186  OE2        0.8860  -14.3080   21.3450 O.co2 218  GLU218     -0.2457
@<TRIPOS>BOND
     1   108   107    2
     2    14    12    1
     3   107   106    1
     4    53    51   ar
     5     1     2    1
     6    51    50    1
     7    51    52   ar
     8    50    47    1
     9   106   105    1
    10   106   109    1
    11    12    11    1
    12    11    13    1
    13    11     8    1
    14     2     5    1
    15     2     3    1
    16    46    47    1
    17    47    48    1
    18    10     9    2
    19     7     8    1
    20     7     3   am
    21   109   110    1
    22     8     9    1
    23   111   110    1
    24   111   112    1
    25     5     6    1
    26     3     4    2
    27     9    15   am
    28   113   112    1
    29    48    54   am
    30    48    49    2
    31    15    16    1
    32    54    55    1
    33    16    17    1
    34    57    56    2
    35   100    99    2
    36    56    55    1
    37    37    36    1
    38    22    21    2
    39   104   103    1
    40    19    17   am
    41    19    20    1
    42    17    18    2
    43    55    58    1
    44    23    20    1
    45    23    24    1
    46    99    98    1
    47   103   102    1
    48    26    24   ar
    49    26    28   ar
    50    20    21    1
    51    36    35    1
    52    21    30   am
    53    98    97    1
    54    98   101    1
    55    24    25   ar
    56    58    59    1
    57    28    29   ar
    58   102   101    1
    59    96    95    1
    60    30    31    1
    61    94    95   ar
    62    94    92   ar
    63    31    34    1
    64    31    32    1
    65    34    35    1
    66    25    27   ar
    67    95    93   ar
    68    59    61   ar
    69    59    60   ar
    70    29    27   ar
    71    92    90   ar
    72    61    63   ar
    73    60    62   ar
    74    32    33    2
    75    72    71    1
    76    93    91   ar
    77    88    87    2
    78    90    91   ar
    79    90    89    1
    80    63    64   ar
    81    62    64   ar
    82    45    44    1
    83    87    86    1
    84    65    66    1
    85    89    86    1
    86    71    70    1
    87   140   137    1
    88    70    69    1
    89    86    85    1
    90    44    43    1
    91    69    66    1
    92   126   128    1
    93   126   125    1
    94    66    67    1
    95    38    39    1
    96    68    67    2
    97   114   120    1
    98   114   115    1
    99    42    43    1
   100    42    39    1
   101   135   133    1
   102   137   136    1
   103   137   138    1
   104    85    82   am
   105    67    73   am
   106   125   127    1
   107   125   122    1
   108    39    40    1
   109   134   133    1
   110   120   119    1
   111   115   116    1
   112   115   118    1
   113   133   130    1
   114    83    82    2
   115   138   139    2
   116   138   141   am
   117   161   159    1
   118   121   116   am
   119   121   122    1
   120    82    81    1
   121   116   117    2
   122   122   123    1
   123   141   142    1
   124    73    74    1
   125    73    79    1
   126   159   158    1
   127   118   119    1
   128    76    75    2
   129    40    41    2
   130   124   123    2
   131   176   175    1
   132   153   150    1
   133    75    80   am
   134    75    74    1
   135   130   131    1
   136   130   129    1
   137   142   145    1
   138   142   143    1
   139    80    81    1
   140    74    77    1
   141    81    84    1
   142    79    78    1
   143   177   175    1
   144   145   146    1
   145   131   132    2
   146   160   158    1
   147   175   174    1
   148   158   155    1
   149   148   147    1
   150   152   151    2
   151   151   150    1
   152   151   154   am
   153   150   149    1
   154   154   155    1
   155   147   146    1
   156   143   144    2
   157   155   156    1
   158    78    77    1
   159   174   171    1
   160   173   172    2
   161   156   157    2
   162   172   171    1
   163   172   178   am
   164   171   170    1
   165   167   169    1
   166   167   166    1
   167   178   179    1
   168   179   180    1
   169   179   182    1
   170   181   180    2
   171   168   166    1
   172   183   182    1
   173   183   184    1
   174   186   184   ar
   175   166   163    1
   176   163   162    1
   177   163   164    1
   178   165   164    2
   179   184   185   ar
