@<TRIPOS>MOLECULE
tmp/4oivB00.pdb
 234 227 0 0 0
SMALL
GASTEIGER

@<TRIPOS>ATOM
      1  N          3.7160   18.3990  -36.5030 N.3    44  LEU44      -0.1231
      2  CA         4.1040   18.9820  -37.7920 C.3    44  LEU44       0.1693
      3  C          5.4010   18.2800  -38.2430 C.2    44  LEU44       0.2592
      4  O          5.5810   17.9770  -39.4330 O.2    44  LEU44      -0.2718
      5  CB         4.3100   20.5050  -37.5750 C.3    44  LEU44       0.0284
      6  CG         5.7650   20.9330  -37.6790 C.3    44  LEU44       0.0019
      7  CD1        6.1170   21.7390  -38.8910 C.3    44  LEU44       0.0001
      8  CD2        6.4740   21.4570  -36.4870 C.3    44  LEU44       0.0001
      9  N          6.3450   18.0420  -37.3270 N.am   45  THR45      -0.1953
     10  CA         7.5880   17.4480  -37.7910 C.3    45  THR45       0.1897
     11  C          7.4150   15.9660  -38.1850 C.2    45  THR45       0.2313
     12  O          8.1210   15.4610  -39.1010 O.2    45  THR45      -0.2863
     13  CB         8.7590   17.5600  -36.7750 C.3    45  THR45       0.1794
     14  OG1        8.3280   17.0510  -35.4970 O.3    45  THR45      -0.2208
     15  CG2        9.2560   18.9940  -36.6680 C.3    45  THR45       0.0378
     16  N          4.6620   14.8480  -39.6870 N.3    47  MET47      -0.1230
     17  CA         4.1680   14.9890  -41.0820 C.3    47  MET47       0.1702
     18  C          5.2580   15.3060  -42.0500 C.2    47  MET47       0.2592
     19  O          5.3140   14.7210  -43.1290 O.2    47  MET47      -0.2718
     20  CB         3.1540   16.1380  -41.1330 C.3    47  MET47       0.0401
     21  CG         1.8600   15.8340  -40.3610 C.3    47  MET47       0.0596
     22  SD         0.8160   17.3320  -40.4490 S.3    47  MET47      -0.1393
     23  CE         0.8240   17.4850  -42.3200 C.3    47  MET47       0.0692
     24  N          6.1550   16.2430  -41.6790 N.am   48  ALA48      -0.1966
     25  CA         7.2240   16.5810  -42.5960 C.3    48  ALA48       0.1728
     26  C          8.1560   15.4130  -42.7820 C.2    48  ALA48       0.2616
     27  O          8.7240   15.2360  -43.8700 O.2    48  ALA48      -0.2715
     28  CB         8.0220   17.7880  -42.0670 C.3    48  ALA48       0.0334
     29  N          8.3470   14.6030  -41.7410 N.am   49  THR49      -0.1951
     30  CA         9.1730   13.4330  -41.8620 C.3    49  THR49       0.1897
     31  C          8.6100   12.4580  -42.9050 C.2    49  THR49       0.2313
     32  O          9.3800   11.8450  -43.7300 O.2    49  THR49      -0.2863
     33  CB         9.2690   12.7420  -40.4770 C.3    49  THR49       0.1794
     34  OG1       10.0430   13.5550  -39.5820 O.3    49  THR49      -0.2208
     35  CG2        9.9480   11.3180  -40.5450 C.3    49  THR49       0.0378
     36  N          6.7990   13.4330  -45.4630 N.3    51  HIS51      -0.1226
     37  CA         7.0270   14.1400  -46.7300 C.3    51  HIS51       0.1752
     38  C          8.4450   13.9500  -47.2310 C.2    51  HIS51       0.2595
     39  O          8.5960   13.8180  -48.4050 O.2    51  HIS51      -0.2718
     40  CB         6.7810   15.6350  -46.5900 C.3    51  HIS51       0.0759
     41  CG         5.3430   16.0070  -46.5740 C.ar   51  HIS51       0.0818
     42  ND1        4.3250   15.1180  -46.8910 N.ar   51  HIS51      -0.2268
     43  CD2        4.7440   17.1940  -46.3280 C.ar   51  HIS51       0.1154
     44  CE1        3.1600   15.7410  -46.8340 C.ar   51  HIS51       0.1986
     45  NE2        3.3900   17.0020  -46.5000 N.ar   51  HIS51      -0.2212
     46  N          9.4880   13.9730  -46.3600 N.am   52  VAL52      -0.1980
     47  CA        10.8170   13.7750  -46.8900 C.3    52  VAL52       0.1595
     48  C         10.8920   12.4040  -47.5230 C.2    52  VAL52       0.2287
     49  O         11.4320   12.1950  -48.6000 O.2    52  VAL52      -0.2864
     50  CB        11.8510   13.8450  -45.7260 C.3    52  VAL52       0.0276
     51  CG1       13.1700   13.4230  -46.2120 C.3    52  VAL52       0.0022
     52  CG2       11.9250   15.2890  -45.2450 C.3    52  VAL52       0.0022
     53  N         14.7300   21.2410  -50.1890 N.3    82  VAL82      -0.1245
     54  CA        13.9590   22.2660  -49.4590 C.3    82  VAL82       0.1561
     55  C         12.7830   22.8350  -50.3420 C.2    82  VAL82       0.2260
     56  O         11.6420   22.9190  -49.8930 O.2    82  VAL82      -0.2867
     57  CB        14.8410   23.4060  -48.9400 C.3    82  VAL82       0.0252
     58  CG1       13.9810   24.5130  -48.3240 C.3    82  VAL82       0.0019
     59  CG2       15.7790   22.8830  -47.8350 C.3    82  VAL82       0.0019
     60  N         10.1030   20.2690  -50.8490 N.3    85  MET85      -0.1230
     61  CA         9.2770   20.1620  -49.5840 C.3    85  MET85       0.1702
     62  C          8.3310   21.3730  -49.4610 C.2    85  MET85       0.2592
     63  O          7.1260   21.1890  -49.0720 O.2    85  MET85      -0.2718
     64  CB        10.1990   20.1790  -48.3620 C.3    85  MET85       0.0401
     65  CG        10.9810   18.8560  -48.2660 C.3    85  MET85       0.0596
     66  SD         9.9460   17.4300  -47.7060 S.3    85  MET85      -0.1393
     67  CE         9.7610   17.8830  -45.9510 C.3    85  MET85       0.0692
     68  N          8.8220   22.5960  -49.7490 N.am   86  PHE86      -0.1976
     69  CA         7.9380   23.7710  -49.6790 C.3    86  PHE86       0.1639
     70  C          6.7050   23.5860  -50.6000 C.2    86  PHE86       0.2290
     71  O          5.5430   23.8480  -50.2090 O.2    86  PHE86      -0.2864
     72  CB         8.6960   25.0010  -50.0850 C.3    86  PHE86       0.0560
     73  CG         9.6440   25.5470  -49.0170 C.ar   86  PHE86      -0.0200
     74  CD1       10.4700   26.6180  -49.2900 C.ar   86  PHE86      -0.0042
     75  CD2        9.7540   24.9240  -47.7770 C.ar   86  PHE86      -0.0042
     76  CE1       11.3330   27.1130  -48.2750 C.ar   86  PHE86      -0.0003
     77  CE2       10.6020   25.4300  -46.7620 C.ar   86  PHE86      -0.0003
     78  CZ        11.3460   26.5120  -47.0070 C.ar   86  PHE86      -0.0000
     79  N          4.3250   21.1470  -49.2620 N.3    89  SER89      -0.1217
     80  CA         3.5980   21.5550  -48.0750 C.3    89  SER89       0.1889
     81  C          2.3780   22.3440  -48.5390 C.2    89  SER89       0.2288
     82  O          1.3290   22.3470  -47.8620 O.2    89  SER89      -0.2866
     83  CB         4.4980   22.3250  -47.1210 C.3    89  SER89       0.2089
     84  OG         4.8590   23.6230  -47.5750 O.3    89  SER89      -0.2183
     85  N         -0.7760   20.2820  -49.1380 N.3    92  ILE92      -0.1231
     86  CA        -1.4750   20.0090  -47.8910 C.3    92  ILE92       0.1692
     87  C         -2.4890   21.1100  -47.4610 C.2    92  ILE92       0.2592
     88  O         -3.5340   20.7930  -46.9380 O.2    92  ILE92      -0.2718
     89  CB        -0.4840   19.5440  -46.7850 C.3    92  ILE92       0.0266
     90  CG1       -0.4410   18.0230  -46.7750 C.3    92  ILE92       0.0019
     91  CG2       -0.9490   19.9700  -45.4460 C.3    92  ILE92       0.0020
     92  CD1        0.5110   17.4550  -47.8450 C.3    92  ILE92       0.0001
     93  N         -2.2590   22.3810  -47.7860 N.am   93  PHE93      -0.1976
     94  CA        -3.2680   23.4340  -47.4620 C.3    93  PHE93       0.1639
     95  C         -4.3090   23.7860  -48.4870 C.2    93  PHE93       0.2290
     96  O         -5.2530   24.4840  -48.1750 O.2    93  PHE93      -0.2864
     97  CB        -2.5860   24.6860  -46.9790 C.3    93  PHE93       0.0560
     98  CG        -1.8550   24.4580  -45.7280 C.ar   93  PHE93      -0.0200
     99  CD1       -2.4800   24.6640  -44.5090 C.ar   93  PHE93      -0.0042
    100  CD2       -0.5880   23.9360  -45.7680 C.ar   93  PHE93      -0.0042
    101  CE1       -1.8430   24.3840  -43.3330 C.ar   93  PHE93      -0.0003
    102  CE2        0.0860   23.6590  -44.6000 C.ar   93  PHE93      -0.0003
    103  CZ        -0.5580   23.8750  -43.3640 C.ar   93  PHE93      -0.0000
    104  N         -4.5210   22.3870  -38.6350 N.3    98  LEU98      -0.1245
    105  CA        -3.1020   22.1970  -38.9300 C.3    98  LEU98       0.1561
    106  C         -2.4020   23.5580  -38.8510 C.2    98  LEU98       0.2260
    107  O         -1.3380   23.6920  -38.2420 O.2    98  LEU98      -0.2867
    108  CB        -2.9040   21.5690  -40.3260 C.3    98  LEU98       0.0270
    109  CG        -1.6910   20.5900  -40.4300 C.3    98  LEU98       0.0019
    110  CD1       -1.1290   20.5660  -41.8050 C.3    98  LEU98       0.0001
    111  CD2       -0.5190   20.6480  -39.4410 C.3    98  LEU98       0.0001
    112  N          0.5890   24.9310  -36.4640 N.3   102  ILE102     -0.1245
    113  CA         1.8020   25.5470  -36.9990 C.3   102  ILE102      0.1561
    114  C          2.0560   26.8920  -36.3040 C.2   102  ILE102      0.2260
    115  O          3.2060   27.2530  -35.9340 O.2   102  ILE102     -0.2867
    116  CB         1.7140   25.7360  -38.5350 C.3   102  ILE102      0.0252
    117  CG1        1.7820   24.3870  -39.2600 C.3   102  ILE102      0.0019
    118  CG2        2.7810   26.7390  -39.0160 C.3   102  ILE102      0.0019
    119  CD1        1.2390   24.5040  -40.6450 C.3   102  ILE102      0.0001
    120  N          7.6800   27.6850  -33.9730 N.3   107  ILE107     -0.1245
    121  CA         8.3280   28.1480  -35.2180 C.3   107  ILE107      0.1561
    122  C          8.0420   29.6190  -35.3240 C.2   107  ILE107      0.2260
    123  O          6.9260   30.0330  -35.0340 O.2   107  ILE107     -0.2867
    124  CB         7.8060   27.3870  -36.4610 C.3   107  ILE107      0.0252
    125  CG1        8.2180   25.8850  -36.3770 C.3   107  ILE107      0.0019
    126  CG2        8.3030   28.0270  -37.7790 C.3   107  ILE107      0.0019
    127  CD1        7.4690   24.9670  -37.3940 C.3   107  ILE107      0.0001
    128  N          9.2750   32.3770  -40.5750 N.3   111  TYR111     -0.1227
    129  CA         9.0830   31.3030  -41.5340 C.3   111  TYR111      0.1736
    130  C          7.6230   30.9950  -41.8520 C.2   111  TYR111      0.2595
    131  O          7.3440   30.3100  -42.8400 O.2   111  TYR111     -0.2718
    132  CB         9.8350   30.0150  -41.1090 C.3   111  TYR111      0.0548
    133  CG        11.2540   30.3060  -40.7380 C.ar  111  TYR111     -0.0200
    134  CD1       11.6430   30.4150  -39.3990 C.ar  111  TYR111     -0.0009
    135  CD2       12.2160   30.5400  -41.7440 C.ar  111  TYR111     -0.0009
    136  CE1       12.9940   30.7250  -39.0620 C.ar  111  TYR111      0.0417
    137  CE2       13.4970   30.8630  -41.4250 C.ar  111  TYR111      0.0417
    138  CZ        13.8730   30.9660  -40.0850 C.ar  111  TYR111      0.1957
    139  OH        15.1690   31.2470  -39.7850 O.3   111  TYR111     -0.2866
    140  N          6.6770   31.4060  -41.0190 N.am  112  ILE112     -0.1980
    141  CA         5.3220   31.0250  -41.2850 C.3   112  ILE112      0.1595
    142  C          4.6040   31.9610  -42.2960 C.2   112  ILE112      0.2287
    143  O          3.9460   31.5040  -43.2310 O.2   112  ILE112     -0.2864
    144  CB         4.5670   30.9370  -39.9550 C.3   112  ILE112      0.0276
    145  CG1        5.1510   29.8210  -39.1190 C.3   112  ILE112      0.0022
    146  CG2        3.0640   30.8170  -40.1420 C.3   112  ILE112      0.0022
    147  CD1        4.7100   30.0210  -37.7190 C.3   112  ILE112      0.0001
    148  N          5.3890   31.4150  -45.9770 N.3   115  MET115     -0.1230
    149  CA         4.8470   30.1490  -46.4500 C.3   115  MET115      0.1702
    150  C          3.3680   30.2510  -46.6940 C.2   115  MET115      0.2592
    151  O          2.8900   29.8670  -47.7420 O.2   115  MET115     -0.2718
    152  CB         5.1120   29.0170  -45.4290 C.3   115  MET115      0.0401
    153  CG         6.5740   28.6980  -45.2850 C.3   115  MET115      0.0596
    154  SD         7.3530   28.1590  -46.8480 S.3   115  MET115     -0.1393
    155  CE         6.2360   27.0010  -47.4800 C.3   115  MET115      0.0692
    156  N          2.6340   30.7850  -45.7180 N.am  116  PHE116     -0.1976
    157  CA         1.2020   31.0750  -45.9400 C.3   116  PHE116      0.1639
    158  C          0.8380   31.9920  -47.1030 C.2   116  PHE116      0.2290
    159  O         -0.1050   31.6530  -47.8290 O.2   116  PHE116     -0.2864
    160  CB         0.4430   31.3350  -44.6230 C.3   116  PHE116      0.0560
    161  CG         0.1550   30.0370  -43.8930 C.ar  116  PHE116     -0.0200
    162  CD1        1.0970   29.4940  -43.0460 C.ar  116  PHE116     -0.0042
    163  CD2       -1.0100   29.2860  -44.1970 C.ar  116  PHE116     -0.0042
    164  CE1        0.8780   28.3080  -42.4160 C.ar  116  PHE116     -0.0003
    165  CE2       -1.2530   28.0400  -43.5790 C.ar  116  PHE116     -0.0003
    166  CZ        -0.2920   27.5530  -42.6810 C.ar  116  PHE116     -0.0000
    167  N          1.2260   29.7630  -50.1070 N.3   119  TYR119     -0.1241
    168  CA         0.0700   28.8910  -50.2700 C.3   119  TYR119      0.1605
    169  C         -1.0950   29.6330  -50.9700 C.2   119  TYR119      0.2264
    170  O         -1.7620   29.0500  -51.8050 O.2   119  TYR119     -0.2867
    171  CB        -0.4060   28.3280  -48.9290 C.3   119  TYR119      0.0534
    172  CG         0.6380   27.5150  -48.1850 C.ar  119  TYR119     -0.0201
    173  CD1        0.4960   27.2560  -46.8100 C.ar  119  TYR119     -0.0009
    174  CD2        1.8060   27.0680  -48.8340 C.ar  119  TYR119     -0.0009
    175  CE1        1.4750   26.5150  -46.0880 C.ar  119  TYR119      0.0417
    176  CE2        2.7940   26.3410  -48.1280 C.ar  119  TYR119      0.0417
    177  CZ         2.6090   26.0580  -46.7920 C.ar  119  TYR119      0.1957
    178  OH         3.5920   25.3530  -46.1200 O.3   119  TYR119     -0.2866
    179  N         16.1380   27.5450  -41.9440 N.3   197  HIS197     -0.1226
    180  CA        15.3620   26.8400  -40.9620 C.3   197  HIS197      0.1752
    181  C         15.0590   25.3760  -41.5350 C.2   197  HIS197      0.2595
    182  O         15.2040   24.3570  -40.8170 O.2   197  HIS197     -0.2718
    183  CB        14.1020   27.6550  -40.6700 C.3   197  HIS197      0.0759
    184  CG        13.0410   26.9260  -39.8930 C.ar  197  HIS197      0.0818
    185  ND1       13.1310   26.7040  -38.5270 N.ar  197  HIS197     -0.2268
    186  CD2       11.8340   26.4400  -40.2670 C.ar  197  HIS197      0.1154
    187  CE1       12.0340   26.0990  -38.1030 C.ar  197  HIS197      0.1986
    188  NE2       11.2540   25.8850  -39.1510 N.ar  197  HIS197     -0.2212
    189  N         14.5860   25.3100  -42.7600 N.am  198  ALA198     -0.1980
    190  CA        14.2890   24.0320  -43.4240 C.3   198  ALA198      0.1597
    191  C         15.5470   23.1530  -43.4870 C.2   198  ALA198      0.2287
    192  O         15.4890   21.9580  -43.2680 O.2   198  ALA198     -0.2864
    193  CB        13.7050   24.2280  -44.8620 C.3   198  ALA198      0.0319
    194  N         16.1300   21.5730  -40.1940 N.3   201  LEU201     -0.1231
    195  CA        15.2350   20.4610  -39.9350 C.3   201  LEU201      0.1693
    196  C         15.3710   19.2150  -40.8340 C.2   201  LEU201      0.2591
    197  O         14.8820   18.1380  -40.5000 O.2   201  LEU201     -0.2718
    198  CB        13.7400   20.9320  -39.9820 C.3   201  LEU201      0.0284
    199  CG        13.6090   21.9540  -38.8360 C.3   201  LEU201      0.0019
    200  CD1       12.3960   22.8190  -39.0250 C.3   201  LEU201      0.0001
    201  CD2       13.5040   21.2610  -37.4240 C.3   201  LEU201      0.0001
    202  N         15.9820   19.3710  -41.9840 N.am  202  MET202     -0.1979
    203  CA        15.8080   18.3740  -43.0330 C.3   202  MET202      0.1605
    204  C         16.3240   16.9800  -42.6930 C.2   202  MET202      0.2287
    205  O         15.8480   15.9770  -43.2640 O.2   202  MET202     -0.2864
    206  CB        16.5800   18.7840  -44.2670 C.3   202  MET202      0.0413
    207  CG        15.7020   19.4320  -45.2010 C.3   202  MET202      0.0598
    208  SD        14.2840   18.4590  -45.9210 S.3   202  MET202     -0.1393
    209  CE        14.4200   19.8320  -47.0830 C.3   202  MET202      0.0692
    210  N         16.2050   15.7020  -39.4580 N.3   204  TRP204     -0.1227
    211  CA        15.5050   15.1520  -38.2940 C.3   204  TRP204      0.1737
    212  C         14.3350   14.2770  -38.6850 C.2   204  TRP204      0.2595
    213  O         13.5910   14.6150  -39.6370 O.2   204  TRP204     -0.2718
    214  CB        15.0360   16.3800  -37.4900 C.3   204  TRP204      0.0564
    215  CG        16.1920   17.0180  -36.8310 C.ar  204  TRP204      0.0003
    216  CD1       16.8920   18.1590  -37.2160 C.ar  204  TRP204      0.0946
    217  CD2       16.7720   16.5490  -35.6430 C.ar  204  TRP204      0.0152
    218  NE1       17.8690   18.4060  -36.2500 N.ar  204  TRP204     -0.2442
    219  CE2       17.7630   17.4490  -35.2680 C.ar  204  TRP204      0.0810
    220  CE3       16.4660   15.4450  -34.7880 C.ar  204  TRP204      0.0012
    221  CZ2       18.5850   17.2330  -34.1210 C.ar  204  TRP204      0.0191
    222  CZ3       17.2300   15.2560  -33.5860 C.ar  204  TRP204      0.0001
    223  CH2       18.2460   16.1610  -33.2580 C.ar  204  TRP204      0.0015
    224  N         14.1140   13.2020  -37.8940 N.am  205  ARG205     -0.1980
    225  CA        13.0540   12.1970  -38.2130 C.3   205  ARG205      0.1597
    226  C         12.2420   12.0350  -36.9140 C.2   205  ARG205      0.2287
    227  O         12.8330   11.7970  -35.8310 O.2   205  ARG205     -0.2864
    228  CB        13.6890   10.8780  -38.6230 C.3   205  ARG205      0.0334
    229  CG        14.6410   11.0790  -39.8760 C.3   205  ARG205      0.0492
    230  CD        13.8280   11.3140  -41.1970 C.3   205  ARG205      0.2205
    231  NE        14.8240   11.5770  -42.2620 N.pl3 205  ARG205     -0.0865
    232  CZ        15.0770   12.8090  -42.7530 C.cat 205  ARG205      0.5346
    233  NH1       14.4680   13.9160  -42.3070 N.pl3 205  ARG205      0.1354
    234  NH2       15.9820   12.9120  -43.7030 N.pl3 205  ARG205      0.1354
@<TRIPOS>BOND
     1   170   169    2
     2   169   168    1
     3    60    61    1
     4    70    71    2
     5    70    69    1
     6    55    56    2
     7    55    54    1
     8   168   167    1
     9   168   171    1
    10    53    54    1
    11    72    69    1
    12    72    73    1
    13    68    69    1
    14    68    62   am
    15    61    62    1
    16    61    64    1
    17    62    63    2
    18    54    57    1
    19    74    73   ar
    20    74    76   ar
    21    79    80    1
    22    85    86    1
    23    73    75   ar
    24    57    58    1
    25    57    59    1
    26   171   172    1
    27   174   172   ar
    28   174   176   ar
    29    49    48    2
    30    81    80    1
    31    81    82    2
    32    95    96    2
    33    95    94    1
    34    39    38    2
    35    64    65    1
    36    76    78   ar
    37    65    66    1
    38   172   173   ar
    39   176   177   ar
    40    80    83    1
    41    86    87    1
    42    86    89    1
    43    92    90    1
    44   159   158    2
    45    93    94    1
    46    93    87   am
    47    75    77   ar
    48   151   150    2
    49    66    67    1
    50    84    83    1
    51    48    47    1
    52   155   154    1
    53    94    97    1
    54    87    88    2
    55    38    37    1
    56    38    46   am
    57   158   157    1
    58   209   208    1
    59    78    77   ar
    60    97    98    1
    61    42    44   ar
    62    42    41   ar
    63    47    46    1
    64    47    50    1
    65   154   153    1
    66    44    45   ar
    67   173   175   ar
    68   177   178    1
    69   177   175   ar
    70    89    90    1
    71    89    91    1
    72    37    40    1
    73    37    36    1
    74   150   149    1
    75   150   156   am
    76    40    41    1
    77    41    43   ar
    78    45    43   ar
    79   149   148    1
    80   149   152    1
    81    51    50    1
    82   157   156    1
    83   157   160    1
    84   208   207    1
    85   100    98   ar
    86   100   102   ar
    87    98    99   ar
    88    50    52    1
    89   152   153    1
    90   207   206    1
    91   193   190    1
    92   160   161    1
    93   102   103   ar
    94    99   101   ar
    95   206   203    1
    96   163   161   ar
    97   163   165   ar
    98   161   162   ar
    99    27    26    2
   100    32    31    2
   101   234   232    1
   102   165   166   ar
   103   191   190    1
   104   191   192    2
   105   190   189    1
   106   103   101   ar
   107   205   204    2
   108   143   142    2
   109    19    18    2
   110   162   164   ar
   111   203   204    1
   112   203   202    1
   113    31    30    1
   114   131   130    2
   115    26    25    1
   116    26    29   am
   117   189   181   am
   118   232   233    1
   119   232   231    2
   120   166   164   ar
   121    25    28    1
   122    25    24    1
   123    23    22    1
   124   142   141    1
   125   231   230    1
   126    18    24   am
   127    18    17    1
   128   202   196   am
   129   179   180    1
   130    30    29    1
   131    30    33    1
   132   130   129    1
   133   130   140   am
   134   110   109    1
   135   135   137   ar
   136   135   133   ar
   137   181   180    1
   138   181   182    2
   139   129   132    1
   140   129   128    1
   141   137   138   ar
   142   141   140    1
   143   141   144    1
   144   230   229    1
   145    20    17    1
   146    20    21    1
   147   132   133    1
   148    17    16    1
   149   180   183    1
   150   196   197    2
   151   196   195    1
   152   133   134   ar
   153   183   184    1
   154   119   117    1
   155    35    33    1
   156    33    34    1
   157    22    21    1
   158   109   108    1
   159   109   111    1
   160   108   105    1
   161   186   184   ar
   162   186   188   ar
   163   194   195    1
   164   146   144    1
   165   138   139    1
   166   138   136   ar
   167   198   195    1
   168   198   199    1
   169   144   145    1
   170   184   185   ar
   171   229   228    1
   172   213   212    2
   173   210   211    1
   174     4     3    2
   175   134   136   ar
   176   117   116    1
   177   188   187   ar
   178   145   147    1
   179    12    11    2
   180   200   199    1
   181   118   116    1
   182   105   106    1
   183   105   104    1
   184     7     6    1
   185   106   107    2
   186   199   201    1
   187   212   211    1
   188   212   224   am
   189   228   225    1
   190   116   113    1
   191   185   187   ar
   192   211   214    1
   193     3     2    1
   194     3     9   am
   195   225   224    1
   196   225   226    1
   197    11    10    1
   198     2     5    1
   199     2     1    1
   200    10     9    1
   201    10    13    1
   202   126   124    1
   203     6     5    1
   204     6     8    1
   205   214   215    1
   206   127   125    1
   207   216   215   ar
   208   216   218   ar
   209   113   112    1
   210   113   114    1
   211   226   227    2
   212   215   217   ar
   213    13    15    1
   214    13    14    1
   215   124   125    1
   216   124   121    1
   217   114   115    2
   218   218   219   ar
   219   217   219   ar
   220   217   220   ar
   221   122   121    1
   222   122   123    2
   223   219   221   ar
   224   121   120    1
   225   220   222   ar
   226   221   223   ar
   227   222   223   ar
