@<TRIPOS>MOLECULE
tmp/4oj8B00.pdb
 114 103 0 0 0
SMALL
GASTEIGER

@<TRIPOS>ATOM
      1  N        -29.6300  -23.7200   -7.4710 N.3    83  LEU83      -0.1245
      2  CA       -30.2270  -23.7930   -8.7990 C.3    83  LEU83       0.1561
      3  C        -30.7150  -25.2150   -9.0250 C.2    83  LEU83       0.2260
      4  O        -29.9220  -26.1260   -9.2760 O.2    83  LEU83      -0.2867
      5  CB       -29.2450  -23.3590   -9.8910 C.3    83  LEU83       0.0270
      6  CG       -28.5880  -21.9870   -9.7220 C.3    83  LEU83       0.0019
      7  CD1      -27.1220  -22.1660   -9.3740 C.3    83  LEU83       0.0001
      8  CD2      -28.7340  -21.1640  -10.9910 C.3    83  LEU83       0.0001
      9  N        -33.5430  -17.7900  -13.8110 N.3    91  VAL91      -0.1245
     10  CA       -32.1580  -18.0320  -13.3870 C.3    91  VAL91       0.1561
     11  C        -32.0500  -19.4100  -12.7270 C.2    91  VAL91       0.2260
     12  O        -31.1880  -20.2130  -13.0960 O.2    91  VAL91      -0.2867
     13  CB       -31.6170  -16.9170  -12.4590 C.3    91  VAL91       0.0252
     14  CG1      -30.3110  -17.3410  -11.7990 C.3    91  VAL91       0.0019
     15  CG2      -31.4200  -15.6180  -13.2350 C.3    91  VAL91       0.0019
     16  N        -29.5490  -19.9090  -20.0540 N.3    97  LEU97      -0.1245
     17  CA       -28.9810  -18.6300  -19.6480 C.3    97  LEU97       0.1561
     18  C        -27.8420  -18.3070  -20.6200 C.2    97  LEU97       0.2260
     19  O        -26.8020  -18.9570  -20.5790 O.2    97  LEU97      -0.2867
     20  CB       -28.4790  -18.6640  -18.2000 C.3    97  LEU97       0.0270
     21  CG       -29.4900  -18.7110  -17.0450 C.3    97  LEU97       0.0019
     22  CD1      -28.7420  -18.7440  -15.7200 C.3    97  LEU97       0.0001
     23  CD2      -30.4710  -17.5440  -17.0690 C.3    97  LEU97       0.0001
     24  N        -22.9330  -14.5600  -20.3550 N.3   100  HIS100     -0.1241
     25  CA       -22.9740  -13.4710  -19.3860 C.3   100  HIS100      0.1621
     26  C        -21.7970  -13.5250  -18.4170 C.2   100  HIS100      0.2264
     27  O        -21.0640  -14.5160  -18.3550 O.2   100  HIS100     -0.2867
     28  CB       -24.3090  -13.4720  -18.6080 C.3   100  HIS100      0.0745
     29  CG       -24.4770  -14.6390  -17.6820 C.ar  100  HIS100      0.0817
     30  ND1      -25.0400  -15.8330  -18.0810 N.ar  100  HIS100     -0.2268
     31  CD2      -24.1540  -14.7930  -16.3770 C.ar  100  HIS100      0.1154
     32  CE1      -25.0520  -16.6740  -17.0620 C.ar  100  HIS100      0.1986
     33  NE2      -24.5240  -16.0670  -16.0150 N.ar  100  HIS100     -0.2212
     34  N        -21.4290  -12.8540  -14.1650 N.3   102  ASP102     -0.1239
     35  CA       -22.2530  -12.7200  -12.9570 C.3   102  ASP102      0.1674
     36  C        -22.0980  -11.3440  -12.3110 C.2   102  ASP102      0.2266
     37  O        -21.0870  -10.6700  -12.5010 O.2   102  ASP102     -0.2867
     38  CB       -21.8980  -13.8030  -11.9320 C.3   102  ASP102      0.1410
     39  CG       -22.4700  -15.1650  -12.2800 C.2   102  ASP102      0.3668
     40  OD1      -23.0680  -15.3310  -13.3680 O.co2 102  ASP102     -0.2456
     41  OD2      -22.3140  -16.0870  -11.4500 O.co2 102  ASP102     -0.2456
     42  N        -16.6950  -17.3610   -9.3390 N.3   113  VAL113     -0.1245
     43  CA       -17.9890  -18.0400   -9.2750 C.3   113  VAL113      0.1561
     44  C        -17.7670  -19.5440   -9.1120 C.2   113  VAL113      0.2260
     45  O        -16.9520  -20.1380   -9.8260 O.2   113  VAL113     -0.2867
     46  CB       -18.8350  -17.8120  -10.5480 C.3   113  VAL113      0.0252
     47  CG1      -20.2250  -18.4140  -10.3740 C.3   113  VAL113      0.0019
     48  CG2      -18.9330  -16.3360  -10.8860 C.3   113  VAL113      0.0019
     49  N        -19.5520  -23.4540   -8.7830 N.3   115  LEU115     -0.1245
     50  CA       -20.7190  -24.2740   -9.0860 C.3   115  LEU115      0.1561
     51  C        -20.4420  -25.7330   -8.7550 C.2   115  LEU115      0.2260
     52  O        -19.4920  -26.3270   -9.2780 O.2   115  LEU115     -0.2867
     53  CB       -21.1380  -24.1190  -10.5530 C.3   115  LEU115      0.0270
     54  CG       -21.8020  -22.8100  -10.9940 C.3   115  LEU115      0.0019
     55  CD1      -21.7170  -22.6480  -12.5040 C.3   115  LEU115      0.0001
     56  CD2      -23.2540  -22.7490  -10.5370 C.3   115  LEU115      0.0001
     57  N        -23.1420  -26.3670  -18.5680 N.3   129  THR129     -0.1218
     58  CA       -22.6000  -25.0530  -18.2610 C.3   129  THR129      0.1862
     59  C        -21.3950  -24.8740  -19.1780 C.2   129  THR129      0.2287
     60  O        -20.5530  -25.7680  -19.2830 O.2   129  THR129     -0.2866
     61  CB       -22.1980  -24.9350  -16.7770 C.3   129  THR129      0.1770
     62  OG1      -23.3390  -25.2090  -15.9590 O.3   129  THR129     -0.2211
     63  CG2      -21.6810  -23.5390  -16.4540 C.3   129  THR129      0.0375
     64  N        -19.7900  -16.9510  -19.3770 N.3   250  HIS250     -0.1241
     65  CA       -20.3710  -18.2900  -19.3470 C.3   250  HIS250      0.1621
     66  C        -21.8640  -18.3040  -19.6420 C.2   250  HIS250      0.2264
     67  O        -22.5330  -17.2690  -19.5750 O.2   250  HIS250     -0.2867
     68  CB       -20.0910  -18.9630  -17.9950 C.3   250  HIS250      0.0745
     69  CG       -20.7280  -18.2700  -16.8310 C.ar  250  HIS250      0.0817
     70  ND1      -20.1630  -17.1720  -16.2190 N.ar  250  HIS250     -0.2268
     71  CD2      -21.8920  -18.5060  -16.1810 C.ar  250  HIS250      0.1154
     72  CE1      -20.9480  -16.7660  -15.2370 C.ar  250  HIS250      0.1986
     73  NE2      -22.0020  -17.5600  -15.1920 N.ar  250  HIS250     -0.2212
     74  N        -25.6050  -21.1210  -19.4740 N.3   252  ARG252     -0.1245
     75  CA       -26.2550  -22.4150  -19.2620 C.3   252  ARG252      0.1563
     76  C        -27.1200  -22.7460  -20.4720 C.2   252  ARG252      0.2260
     77  O        -27.8860  -21.9060  -20.9490 O.2   252  ARG252     -0.2867
     78  CB       -27.1180  -22.4480  -17.9880 C.3   252  ARG252      0.0307
     79  CG       -27.8450  -23.7830  -17.8180 C.3   252  ARG252      0.0489
     80  CD       -28.7670  -23.8630  -16.6120 C.3   252  ARG252      0.2205
     81  NE       -29.9750  -23.0470  -16.7440 N.pl3 252  ARG252     -0.0865
     82  CZ       -30.4500  -22.2570  -15.7840 C.cat 252  ARG252      0.5346
     83  NH1      -29.8340  -22.1870  -14.6120 N.pl3 252  ARG252      0.1354
     84  NH2      -31.5550  -21.5510  -15.9890 N.pl3 252  ARG252      0.1354
     85  N        -31.4970  -31.7120  -11.9420 N.3   262  ARG262     -0.1245
     86  CA       -30.2820  -30.9070  -12.0250 C.3   262  ARG262      0.1563
     87  C        -30.2940  -29.8820  -10.8980 C.2   262  ARG262      0.2260
     88  O        -31.0090  -28.8780  -10.9640 O.2   262  ARG262     -0.2867
     89  CB       -30.1780  -30.2210  -13.3960 C.3   262  ARG262      0.0307
     90  CG       -28.8610  -29.5010  -13.6760 C.3   262  ARG262      0.0489
     91  CD       -29.0440  -28.5400  -14.8420 C.3   262  ARG262      0.2205
     92  NE       -27.8000  -27.9400  -15.3300 N.pl3 262  ARG262     -0.0865
     93  CZ       -27.3440  -26.7390  -14.9800 C.cat 262  ARG262      0.5346
     94  NH1      -28.0110  -25.9880  -14.1110 N.pl3 262  ARG262      0.1354
     95  NH2      -26.2070  -26.2890  -15.4940 N.pl3 262  ARG262      0.1354
     96  N        -27.6790  -27.5940   -8.6360 N.3   264  LEU264     -0.1245
     97  CA       -26.3370  -27.0430   -8.4360 C.3   264  LEU264      0.1561
     98  C        -26.3230  -26.0380   -7.2910 C.2   264  LEU264      0.2260
     99  O        -27.2960  -25.3050   -7.0980 O.2   264  LEU264     -0.2867
    100  CB       -25.8320  -26.3440   -9.7100 C.3   264  LEU264      0.0270
    101  CG       -25.8000  -27.0450  -11.0750 C.3   264  LEU264      0.0019
    102  CD1      -25.2530  -26.0950  -12.1370 C.3   264  LEU264      0.0001
    103  CD2      -24.9780  -28.3270  -11.0450 C.3   264  LEU264      0.0001
    104  N        -24.4200  -22.6010   -5.9350 N.3   266  ARG266     -0.1245
    105  CA       -23.6180  -21.4910   -6.4510 C.3   266  ARG266      0.1563
    106  C        -23.1340  -20.5550   -5.3490 C.2   266  ARG266      0.2260
    107  O        -23.9200  -20.0940   -4.5230 O.2   266  ARG266     -0.2867
    108  CB       -24.3790  -20.7220   -7.5390 C.3   266  ARG266      0.0307
    109  CG       -23.5430  -19.7000   -8.3020 C.3   266  ARG266      0.0489
    110  CD       -23.9620  -18.2830   -7.9560 C.3   266  ARG266      0.2205
    111  NE       -24.9850  -17.7800   -8.8690 N.pl3 266  ARG266     -0.0865
    112  CZ       -25.8110  -16.7660   -8.6110 C.cat 266  ARG266      0.5346
    113  NH1      -25.7740  -16.1290   -7.4470 N.pl3 266  ARG266      0.1354
    114  NH2      -26.6890  -16.3920   -9.5290 N.pl3 266  ARG266      0.1354
@<TRIPOS>BOND
     1    77    76    2
     2    18    19    2
     3    18    17    1
     4    76    75    1
     5    24    25    1
     6    16    17    1
     7    17    20    1
     8    66    67    2
     9    66    65    1
    10    74    75    1
    11    25    28    1
    12    25    26    1
    13    64    65    1
    14    65    68    1
    15    60    59    2
    16    75    78    1
    17    59    58    1
    18    28    29    1
    19    57    58    1
    20    26    27    2
    21    58    61    1
    22    20    21    1
    23    30    29   ar
    24    30    32   ar
    25    68    69    1
    26    78    79    1
    27    79    80    1
    28    29    31   ar
    29    23    21    1
    30    32    33   ar
    31    21    22    1
    32    69    70   ar
    33    69    71   ar
    34    61    63    1
    35    61    62    1
    36    81    80    1
    37    81    82    2
    38    31    33   ar
    39    70    72   ar
    40    71    73   ar
    41    84    82    1
    42    82    83    1
    43    95    93    1
    44    92    93    2
    45    92    91    1
    46    72    73   ar
    47    93    94    1
    48    91    90    1
    49    34    35    1
    50     9    10    1
    51    90    89    1
    52    89    86    1
    53    10    11    1
    54    10    13    1
    55    40    39   ar
    56    15    13    1
    57    12    11    2
    58    35    36    1
    59    35    38    1
    60    55    54    1
    61    37    36    2
    62    13    14    1
    63    39    38    1
    64    39    41   ar
    65   102   101    1
    66    86    85    1
    67    86    87    1
    68   101   103    1
    69   101   100    1
    70    54    53    1
    71    54    56    1
    72     8     6    1
    73    88    87    2
    74    48    46    1
    75    53    50    1
    76    46    47    1
    77    46    43    1
    78     5     6    1
    79     5     2    1
    80    45    44    2
    81     6     7    1
    82   100    97    1
    83   114   112    1
    84    42    43    1
    85    52    51    2
    86     4     3    2
    87    43    44    1
    88    50    49    1
    89    50    51    1
    90     3     2    1
    91   111   112    2
    92   111   110    1
    93     2     1    1
    94    96    97    1
    95   112   113    1
    96    97    98    1
    97   109   110    1
    98   109   108    1
    99   108   105    1
   100    98    99    2
   101   105   104    1
   102   105   106    1
   103   106   107    2
