@<TRIPOS>MOLECULE
tmp/4oj8B01.pdb
 163 160 0 0 0
SMALL
GASTEIGER

@<TRIPOS>ATOM
      1  N        -26.7730  -11.3130   -0.4800 N.3    66  TYR66      -0.1241
      2  CA       -27.8520  -10.3340   -0.4000 C.3    66  TYR66       0.1605
      3  C        -28.7910  -10.6560    0.7630 C.2    66  TYR66       0.2264
      4  O        -29.6500  -11.5400    0.6700 O.2    66  TYR66      -0.2867
      5  CB       -28.6090  -10.2540   -1.7320 C.3    66  TYR66       0.0534
      6  CG       -27.7130  -10.0290   -2.9360 C.ar   66  TYR66      -0.0201
      7  CD1      -27.3220   -8.7420   -3.3120 C.ar   66  TYR66      -0.0009
      8  CD2      -27.2530  -11.1050   -3.6930 C.ar   66  TYR66      -0.0009
      9  CE1      -26.4990   -8.5370   -4.4090 C.ar   66  TYR66       0.0417
     10  CE2      -26.4310  -10.9110   -4.7910 C.ar   66  TYR66       0.0417
     11  CZ       -26.0570   -9.6280   -5.1450 C.ar   66  TYR66       0.1957
     12  OH       -25.2420   -9.4420   -6.2370 O.3    66  TYR66      -0.2866
     13  N        -33.4190  -10.5720   -3.2700 N.3    73  VAL73      -0.1245
     14  CA       -32.5930  -11.0260   -4.3990 C.3    73  VAL73       0.1561
     15  C        -32.4230  -12.5460   -4.3940 C.2    73  VAL73       0.2260
     16  O        -31.9830  -13.1300   -3.3990 O.2    73  VAL73      -0.2867
     17  CB       -31.2040  -10.3380   -4.4300 C.3    73  VAL73       0.0252
     18  CG1      -30.3750  -10.8250   -5.6130 C.3    73  VAL73       0.0019
     19  CG2      -31.3540   -8.8300   -4.4960 C.3    73  VAL73       0.0019
     20  N        -31.9080  -16.2840   -0.8710 N.3    77  TYR77      -0.1241
     21  CA       -30.9030  -17.3390   -0.7150 C.3    77  TYR77       0.1605
     22  C        -29.7530  -16.9210    0.1980 C.2    77  TYR77       0.2264
     23  O        -29.0830  -17.7740    0.7850 O.2    77  TYR77      -0.2867
     24  CB       -30.3620  -17.7900   -2.0790 C.3    77  TYR77       0.0534
     25  CG       -29.4390  -16.8000   -2.7670 C.ar   77  TYR77      -0.0201
     26  CD1      -28.0520  -16.9170   -2.6570 C.ar   77  TYR77      -0.0009
     27  CD2      -29.9530  -15.7570   -3.5390 C.ar   77  TYR77      -0.0009
     28  CE1      -27.2050  -16.0210   -3.2920 C.ar   77  TYR77       0.0417
     29  CE2      -29.1140  -14.8550   -4.1780 C.ar   77  TYR77       0.0417
     30  CZ       -27.7440  -14.9920   -4.0500 C.ar   77  TYR77       0.1957
     31  OH       -26.9120  -14.1020   -4.6820 O.3    77  TYR77      -0.2866
     32  N        -33.5430  -17.7900  -13.8110 N.3    91  VAL91      -0.1245
     33  CA       -32.1580  -18.0320  -13.3870 C.3    91  VAL91       0.1561
     34  C        -32.0500  -19.4100  -12.7270 C.2    91  VAL91       0.2260
     35  O        -31.1880  -20.2130  -13.0960 O.2    91  VAL91      -0.2867
     36  CB       -31.6170  -16.9170  -12.4590 C.3    91  VAL91       0.0252
     37  CG1      -30.3110  -17.3410  -11.7990 C.3    91  VAL91       0.0019
     38  CG2      -31.4200  -15.6180  -13.2350 C.3    91  VAL91       0.0019
     39  N        -29.5490  -19.9090  -20.0540 N.3    97  LEU97      -0.1245
     40  CA       -28.9810  -18.6300  -19.6480 C.3    97  LEU97       0.1561
     41  C        -27.8420  -18.3070  -20.6200 C.2    97  LEU97       0.2260
     42  O        -26.8020  -18.9570  -20.5790 O.2    97  LEU97      -0.2867
     43  CB       -28.4790  -18.6640  -18.2000 C.3    97  LEU97       0.0270
     44  CG       -29.4900  -18.7110  -17.0450 C.3    97  LEU97       0.0019
     45  CD1      -28.7420  -18.7440  -15.7200 C.3    97  LEU97       0.0001
     46  CD2      -30.4710  -17.5440  -17.0690 C.3    97  LEU97       0.0001
     47  N        -22.9330  -14.5600  -20.3550 N.3   100  HIS100     -0.1226
     48  CA       -22.9740  -13.4710  -19.3860 C.3   100  HIS100      0.1752
     49  C        -21.7970  -13.5250  -18.4170 C.2   100  HIS100      0.2596
     50  O        -21.0640  -14.5160  -18.3550 O.2   100  HIS100     -0.2718
     51  CB       -24.3090  -13.4720  -18.6080 C.3   100  HIS100      0.0759
     52  CG       -24.4770  -14.6390  -17.6820 C.ar  100  HIS100      0.0818
     53  ND1      -25.0400  -15.8330  -18.0810 N.ar  100  HIS100     -0.2268
     54  CD2      -24.1540  -14.7930  -16.3770 C.ar  100  HIS100      0.1154
     55  CE1      -25.0520  -16.6740  -17.0620 C.ar  100  HIS100      0.1986
     56  NE2      -24.5240  -16.0670  -16.0150 N.ar  100  HIS100     -0.2212
     57  N        -21.6190  -12.4350  -17.6810 N.am  101  ALA101     -0.1966
     58  CA       -20.7930  -12.4250  -16.4840 C.3   101  ALA101      0.1728
     59  C        -21.7180  -12.1950  -15.2870 C.2   101  ALA101      0.2616
     60  O        -22.6890  -11.4430  -15.3910 O.2   101  ALA101     -0.2715
     61  CB       -19.7340  -11.3370  -16.5710 C.3   101  ALA101      0.0334
     62  N        -21.4290  -12.8540  -14.1650 N.am  102  ASP102     -0.1957
     63  CA       -22.2530  -12.7200  -12.9570 C.3   102  ASP102      0.1840
     64  C        -22.0980  -11.3440  -12.3110 C.2   102  ASP102      0.2623
     65  O        -21.0870  -10.6700  -12.5010 O.2   102  ASP102     -0.2715
     66  CB       -21.8980  -13.8030  -11.9320 C.3   102  ASP102      0.1450
     67  CG       -22.4700  -15.1650  -12.2800 C.2   102  ASP102      0.3671
     68  OD1      -23.0680  -15.3310  -13.3680 O.co2 102  ASP102     -0.2456
     69  OD2      -22.3140  -16.0870  -11.4500 O.co2 102  ASP102     -0.2456
     70  N        -23.1150  -10.9340  -11.5560 N.am  103  GLY103     -0.1940
     71  CA       -23.0460   -9.7220  -10.7430 C.3   103  GLY103      0.2014
     72  C        -23.4670   -8.4310  -11.4200 C.2   103  GLY103      0.2639
     73  O        -24.2060   -7.6360  -10.8330 O.2   103  GLY103     -0.2714
     74  N        -23.0070   -8.2290  -12.6540 N.am  104  GLY104     -0.1939
     75  CA       -23.1820   -6.9650  -13.3820 C.3   104  GLY104      0.2014
     76  C        -24.5630   -6.3300  -13.3600 C.2   104  GLY104      0.2639
     77  O        -24.6860   -5.1200  -13.1680 O.2   104  GLY104     -0.2714
     78  N        -25.6030   -7.1420  -13.5480 N.am  105  LEU105     -0.1963
     79  CA       -26.9760   -6.6350  -13.5890 C.3   105  LEU105      0.1728
     80  C        -27.4750   -6.1900  -12.2160 C.2   105  LEU105      0.2616
     81  O        -28.3720   -5.3480  -12.1160 O.2   105  LEU105     -0.2715
     82  CB       -27.9330   -7.6730  -14.1940 C.3   105  LEU105      0.0311
     83  CG       -27.6820   -8.1400  -15.6340 C.3   105  LEU105      0.0022
     84  CD1      -28.7780   -9.0910  -16.0830 C.3   105  LEU105      0.0001
     85  CD2      -27.5680   -6.9710  -16.6020 C.3   105  LEU105      0.0001
     86  N        -26.8830   -6.7590  -11.1690 N.am  106  LEU106     -0.1977
     87  CA       -27.1940   -6.3920   -9.7880 C.3   106  LEU106      0.1596
     88  C        -26.2700   -5.2840   -9.2730 C.2   106  LEU106      0.2287
     89  O        -26.3820   -4.8570   -8.1200 O.2   106  LEU106     -0.2864
     90  CB       -27.1080   -7.6250   -8.8840 C.3   106  LEU106      0.0297
     91  CG       -28.1860   -8.7000   -9.0630 C.3   106  LEU106      0.0022
     92  CD1      -27.6990  -10.0420   -8.5390 C.3   106  LEU106      0.0001
     93  CD2      -29.4870   -8.2940   -8.3830 C.3   106  LEU106      0.0001
     94  N        -36.3460  -12.0740   -9.2530 N.3   163  TYR163     -0.1227
     95  CA       -34.9420  -12.3710   -8.9760 C.3   163  TYR163      0.1736
     96  C        -34.1380  -11.1320   -8.5780 C.2   163  TYR163      0.2595
     97  O        -33.3600  -11.1760   -7.6240 O.2   163  TYR163     -0.2718
     98  CB       -34.2660  -13.0730  -10.1660 C.3   163  TYR163      0.0548
     99  CG       -32.8710  -13.5660   -9.8370 C.ar  163  TYR163     -0.0200
    100  CD1      -32.6660  -14.8570   -9.3500 C.ar  163  TYR163     -0.0009
    101  CD2      -31.7570  -12.7350   -9.9900 C.ar  163  TYR163     -0.0009
    102  CE1      -31.3960  -15.3090   -9.0300 C.ar  163  TYR163      0.0417
    103  CE2      -30.4830  -13.1780   -9.6730 C.ar  163  TYR163      0.0417
    104  CZ       -30.3080  -14.4670   -9.1960 C.ar  163  TYR163      0.1957
    105  OH       -29.0490  -14.9220   -8.8790 O.3   163  TYR163     -0.2866
    106  N        -34.3220  -10.0390   -9.3160 N.am  164  TYR164     -0.1976
    107  CA       -33.4810   -8.8470   -9.1700 C.3   164  TYR164      0.1639
    108  C        -34.1010   -7.7690   -8.2820 C.2   164  TYR164      0.2290
    109  O        -33.4300   -6.7960   -7.9240 O.2   164  TYR164     -0.2864
    110  CB       -33.1370   -8.2610  -10.5470 C.3   164  TYR164      0.0560
    111  CG       -32.4880   -9.2450  -11.4960 C.ar  164  TYR164     -0.0198
    112  CD1      -31.1050   -9.4450  -11.4920 C.ar  164  TYR164     -0.0009
    113  CD2      -33.2550   -9.9810  -12.3980 C.ar  164  TYR164     -0.0009
    114  CE1      -30.5100  -10.3480  -12.3600 C.ar  164  TYR164      0.0417
    115  CE2      -32.6690  -10.8830  -13.2690 C.ar  164  TYR164      0.0417
    116  CZ       -31.2990  -11.0650  -13.2440 C.ar  164  TYR164      0.1957
    117  OH       -30.7230  -11.9640  -14.1070 O.3   164  TYR164     -0.2866
    118  N        -24.3100   -9.1320  -21.8430 N.3   190  TYR190     -0.1241
    119  CA       -25.5180   -9.8980  -21.5560 C.3   190  TYR190      0.1605
    120  C        -26.2690  -10.2210  -22.8410 C.2   190  TYR190      0.2264
    121  O        -27.0350   -9.4080  -23.3600 O.2   190  TYR190     -0.2867
    122  CB       -26.3710   -9.1700  -20.4930 C.3   190  TYR190      0.0534
    123  CG       -25.5870   -9.0480  -19.2050 C.ar  190  TYR190     -0.0201
    124  CD1      -24.7460   -7.9540  -18.9740 C.ar  190  TYR190     -0.0009
    125  CD2      -25.6160  -10.0670  -18.2570 C.ar  190  TYR190     -0.0009
    126  CE1      -23.9810   -7.8710  -17.8210 C.ar  190  TYR190      0.0417
    127  CE2      -24.8600   -9.9910  -17.1030 C.ar  190  TYR190      0.0417
    128  CZ       -24.0450   -8.8930  -16.8910 C.ar  190  TYR190      0.1957
    129  OH       -23.2960   -8.8230  -15.7410 O.3   190  TYR190     -0.2866
    130  N        -33.2830  -11.3200  -18.6910 N.3   201  TRP201     -0.1241
    131  CA       -32.8100   -9.9870  -19.0650 C.3   201  TRP201      0.1605
    132  C        -32.9230   -9.7580  -20.5730 C.2   201  TRP201      0.2264
    133  O        -33.2880  -10.6680  -21.3170 O.2   201  TRP201     -0.2867
    134  CB       -31.3670   -9.7640  -18.5980 C.3   201  TRP201      0.0550
    135  CG       -30.3570  -10.7050  -19.2020 C.ar  201  TRP201      0.0003
    136  CD1      -29.8540  -10.6660  -20.4750 C.ar  201  TRP201      0.0946
    137  CD2      -29.7100  -11.8050  -18.5510 C.ar  201  TRP201      0.0152
    138  NE1      -28.9460  -11.6820  -20.6600 N.ar  201  TRP201     -0.2442
    139  CE2      -28.8360  -12.3960  -19.4950 C.ar  201  TRP201      0.0810
    140  CE3      -29.7880  -12.3560  -17.2620 C.ar  201  TRP201      0.0012
    141  CZ2      -28.0450  -13.5100  -19.1900 C.ar  201  TRP201      0.0191
    142  CZ3      -28.9980  -13.4640  -16.9580 C.ar  201  TRP201      0.0001
    143  CH2      -28.1390  -14.0280  -17.9210 C.ar  201  TRP201      0.0015
    144  N        -24.4200  -22.6010   -5.9350 N.3   266  ARG266     -0.1245
    145  CA       -23.6180  -21.4910   -6.4510 C.3   266  ARG266      0.1563
    146  C        -23.1340  -20.5550   -5.3490 C.2   266  ARG266      0.2260
    147  O        -23.9200  -20.0940   -4.5230 O.2   266  ARG266     -0.2867
    148  CB       -24.3790  -20.7220   -7.5390 C.3   266  ARG266      0.0307
    149  CG       -23.5430  -19.7000   -8.3020 C.3   266  ARG266      0.0489
    150  CD       -23.9620  -18.2830   -7.9560 C.3   266  ARG266      0.2205
    151  NE       -24.9850  -17.7800   -8.8690 N.pl3 266  ARG266     -0.0865
    152  CZ       -25.8110  -16.7660   -8.6110 C.cat 266  ARG266      0.5346
    153  NH1      -25.7740  -16.1290   -7.4470 N.pl3 266  ARG266      0.1354
    154  NH2      -26.6890  -16.3920   -9.5290 N.pl3 266  ARG266      0.1354
    155  N        -20.3370  -17.0580   -4.7110 N.3   268  GLN268     -0.1245
    156  CA       -19.6510  -15.9350   -5.3620 C.3   268  GLN268      0.1566
    157  C        -18.8040  -15.1710   -4.3500 C.2   268  GLN268      0.2260
    158  O        -19.2500  -14.9230   -3.2210 O.2   268  GLN268     -0.2867
    159  CB       -20.6580  -14.9610   -5.9830 C.3   268  GLN268      0.0367
    160  CG       -21.5500  -15.5270   -7.0790 C.3   268  GLN268      0.0905
    161  CD       -22.6530  -14.5630   -7.4700 C.2   268  GLN268      0.2608
    162  OE1      -22.9950  -13.6570   -6.7100 O.2   268  GLN268     -0.2717
    163  NE2      -23.2170  -14.7500   -8.6610 N.am  268  GLN268     -0.0878
@<TRIPOS>BOND
     1   121   120    2
     2   120   119    1
     3   118   119    1
     4   119   122    1
     5   133   132    2
     6   138   136   ar
     7   138   139   ar
     8    41    42    2
     9    41    40    1
    10   132   131    1
    11   122   123    1
    12   136   135   ar
    13    47    48    1
    14    39    40    1
    15    40    43    1
    16   139   141   ar
    17   139   137   ar
    18    48    51    1
    19    48    49    1
    20   123   124   ar
    21   123   125   ar
    22   135   134    1
    23   135   137   ar
    24   141   143   ar
    25   131   130    1
    26   131   134    1
    27   124   126   ar
    28    51    52    1
    29   137   140   ar
    30    49    50    2
    31    49    57   am
    32   125   127   ar
    33    43    44    1
    34    53    52   ar
    35    53    55   ar
    36   143   142   ar
    37   126   128   ar
    38    52    54   ar
    39    57    58    1
    40   140   142   ar
    41   127   128   ar
    42    46    44    1
    43    55    56   ar
    44    44    45    1
    45   128   129    1
    46    85    83    1
    47    61    58    1
    48    58    59    1
    49    54    56   ar
    50    84    83    1
    51    83    82    1
    52    60    59    2
    53    59    62   am
    54    82    79    1
    55    62    63    1
    56   117   116    1
    57    32    33    1
    58    79    78    1
    59    79    80    1
    60    78    76   am
    61    33    34    1
    62    33    36    1
    63    75    76    1
    64    75    74    1
    65    68    67   ar
    66    76    77    2
    67   115   116   ar
    68   115   113   ar
    69   116   114   ar
    70    38    36    1
    71    35    34    2
    72    63    64    1
    73    63    66    1
    74    74    72   am
    75    65    64    2
    76    36    37    1
    77   113   111   ar
    78   114   112   ar
    79    64    70   am
    80    67    66    1
    81    67    69   ar
    82    80    81    2
    83    80    86   am
    84    70    71    1
    85   111   112   ar
    86   111   110    1
    87    72    73    2
    88    72    71    1
    89    86    87    1
    90   110   107    1
    91    98    99    1
    92    98    95    1
    93   101    99   ar
    94   101   103   ar
    95    99   100   ar
    96    87    88    1
    97    87    90    1
    98   103   104   ar
    99   154   152    1
   100   100   102   ar
   101   106   107    1
   102   106    96   am
   103    88    89    2
   104    94    95    1
   105   104   102   ar
   106   104   105    1
   107   107   108    1
   108    91    90    1
   109    91    92    1
   110    91    93    1
   111    95    96    1
   112   151   152    2
   113   151   150    1
   114   163   161   am
   115   152   153    1
   116    96    97    2
   117   149   150    1
   118   149   148    1
   119   108   109    2
   120   148   145    1
   121   161   160    1
   122   161   162    2
   123   160   159    1
   124   145   144    1
   125   145   146    1
   126    12    11    1
   127   159   156    1
   128    18    17    1
   129   156   155    1
   130   156   157    1
   131   146   147    2
   132    11    10   ar
   133    11     9   ar
   134    10     8   ar
   135    31    30    1
   136    19    17    1
   137    17    14    1
   138     9     7   ar
   139    14    15    1
   140    14    13    1
   141    15    16    2
   142   157   158    2
   143    29    30   ar
   144    29    27   ar
   145    30    28   ar
   146     8     6   ar
   147    27    25   ar
   148     7     6   ar
   149    28    26   ar
   150     6     5    1
   151    25    26   ar
   152    25    24    1
   153    24    21    1
   154     5     2    1
   155    20    21    1
   156    21    22    1
   157     1     2    1
   158     2     3    1
   159    22    23    2
   160     4     3    2
