@<TRIPOS>MOLECULE
tmp/4ojcA00.pdb
 125 123 0 0 0
SMALL
GASTEIGER

@<TRIPOS>ATOM
      1  N          0.2760  -19.8410   11.0230 N.3     7  CYS7       -0.1235
      2  CA         0.1730  -18.4230   10.7250 C.3     7  CYS7        0.1677
      3  C          1.0140  -18.1330    9.5310 C.2     7  CYS7        0.2270
      4  O          2.2320  -18.2760    9.5900 O.2     7  CYS7       -0.2867
      5  CB         0.6260  -17.6160   11.9300 C.3     7  CYS7        0.0956
      6  SG        -0.2810  -18.0180   13.4370 S.3     7  CYS7       -0.0801
      7  N         -1.6050   -9.8170   16.8270 N.3    41  ARG41      -0.1245
      8  CA        -1.7700   -9.3800   18.2180 C.3    41  ARG41       0.1563
      9  C         -2.0940   -7.8710   18.2830 C.2    41  ARG41       0.2260
     10  O         -1.5260   -7.0880   17.5100 O.2    41  ARG41      -0.2867
     11  CB        -0.5120   -9.7050   19.0500 C.3    41  ARG41       0.0307
     12  CG        -0.4960  -11.1340   19.6180 C.3    41  ARG41       0.0489
     13  CD         0.0370  -11.2060   21.0500 C.3    41  ARG41       0.2205
     14  NE        -0.8290  -10.4880   21.9960 N.pl3  41  ARG41      -0.0865
     15  CZ        -1.3500  -11.0150   23.1000 C.cat  41  ARG41       0.5346
     16  NH1       -2.1380  -10.2850   23.8830 N.pl3  41  ARG41       0.1354
     17  NH2       -1.0850  -12.2750   23.4320 N.pl3  41  ARG41       0.1354
     18  N         -1.9130   -4.3620   20.3490 N.3    43  TYR43      -0.1241
     19  CA        -1.1630   -3.6050   21.3630 C.3    43  TYR43       0.1605
     20  C         -1.6100   -2.1490   21.4590 C.2    43  TYR43       0.2264
     21  O         -1.4800   -1.5330   22.5180 O.2    43  TYR43      -0.2867
     22  CB         0.3520   -3.6670   21.0840 C.3    43  TYR43       0.0534
     23  CG         0.9540   -5.0590   21.0250 C.ar   43  TYR43      -0.0201
     24  CD1        0.5030   -6.0750   21.8660 C.ar   43  TYR43      -0.0009
     25  CD2        2.0380   -5.3350   20.1980 C.ar   43  TYR43      -0.0009
     26  CE1        1.0780   -7.3460   21.8420 C.ar   43  TYR43       0.0417
     27  CE2        2.6210   -6.6030   20.1620 C.ar   43  TYR43       0.0417
     28  CZ         2.1400   -7.6060   20.9880 C.ar   43  TYR43       0.1957
     29  OH         2.7180   -8.8550   20.9580 O.3    43  TYR43      -0.2866
     30  N         -3.9900  -13.7760   21.0390 N.3    45  LEU45      -0.1245
     31  CA        -3.5220  -13.8540   19.6430 C.3    45  LEU45       0.1561
     32  C         -4.7360  -14.1350   18.7080 C.2    45  LEU45       0.2260
     33  O         -5.4370  -15.1330   18.8890 O.2    45  LEU45      -0.2867
     34  CB        -2.3950  -14.9370   19.6010 C.3    45  LEU45       0.0270
     35  CG        -1.9730  -15.8020   18.3730 C.3    45  LEU45       0.0019
     36  CD1       -2.7840  -17.0820   18.2500 C.3    45  LEU45       0.0001
     37  CD2       -1.6510  -14.9990   17.0980 C.3    45  LEU45       0.0001
     38  N         -2.1570  -18.3490   25.6690 N.3   163  PHE163     -0.1241
     39  CA        -1.1760  -19.3290   26.1370 C.3   163  PHE163      0.1605
     40  C         -1.1550  -19.4160   27.6870 C.2   163  PHE163      0.2264
     41  O         -0.3560  -18.7420   28.3480 O.2   163  PHE163     -0.2867
     42  CB         0.2030  -19.0420   25.5210 C.3   163  PHE163      0.0534
     43  CG         1.1620  -20.2030   25.5790 C.ar  163  PHE163     -0.0203
     44  CD1        1.0000  -21.3030   24.7430 C.ar  163  PHE163     -0.0042
     45  CD2        2.2420  -20.1890   26.4510 C.ar  163  PHE163     -0.0042
     46  CE1        1.8910  -22.3800   24.7960 C.ar  163  PHE163     -0.0003
     47  CE2        3.1260  -21.2690   26.5100 C.ar  163  PHE163     -0.0003
     48  CZ         2.9500  -22.3530   25.6760 C.ar  163  PHE163     -0.0000
     49  N         -2.1650  -23.7840   24.6600 N.3   168  TRP168     -0.1241
     50  CA        -3.0260  -22.8250   23.9400 C.3   168  TRP168      0.1605
     51  C         -4.4920  -23.0370   24.3080 C.2   168  TRP168      0.2264
     52  O         -4.9260  -24.1860   24.4490 O.2   168  TRP168     -0.2867
     53  CB        -2.8890  -22.9850   22.4090 C.3   168  TRP168      0.0550
     54  CG        -1.6490  -22.3990   21.8070 C.ar  168  TRP168      0.0003
     55  CD1       -0.6070  -23.0790   21.2490 C.ar  168  TRP168      0.0946
     56  CD2       -1.3460  -21.0100   21.6590 C.ar  168  TRP168      0.0152
     57  NE1        0.3400  -22.1990   20.7860 N.ar  168  TRP168     -0.2442
     58  CE2       -0.0820  -20.9210   21.0380 C.ar  168  TRP168      0.0810
     59  CE3       -2.0030  -19.8270   22.0300 C.ar  168  TRP168      0.0012
     60  CZ2        0.5280  -19.6950   20.7620 C.ar  168  TRP168      0.0191
     61  CZ3       -1.4020  -18.6110   21.7480 C.ar  168  TRP168      0.0001
     62  CH2       -0.1510  -18.5530   21.1230 C.ar  168  TRP168      0.0015
     63  N          2.0460  -11.9600   12.8990 N.3   341  PHE341     -0.1227
     64  CA         2.9890  -13.0530   13.1500 C.3   341  PHE341      0.1736
     65  C          2.9260  -14.1800   12.1640 C.2   341  PHE341      0.2595
     66  O          1.8880  -14.4140   11.5570 O.2   341  PHE341     -0.2718
     67  CB         2.8880  -13.5880   14.6020 C.3   341  PHE341      0.0547
     68  CG         3.1490  -12.5160   15.6330 C.ar  341  PHE341     -0.0202
     69  CD1        4.4460  -12.0770   15.8910 C.ar  341  PHE341     -0.0042
     70  CD2        2.0940  -11.8770   16.2770 C.ar  341  PHE341     -0.0042
     71  CE1        4.6830  -11.0190   16.7760 C.ar  341  PHE341     -0.0003
     72  CE2        2.3320  -10.8310   17.1730 C.ar  341  PHE341     -0.0003
     73  CZ         3.6250  -10.4090   17.4200 C.ar  341  PHE341     -0.0000
     74  N          4.0300  -14.9010   12.0100 N.am  342  HIS342     -0.1961
     75  CA         4.0600  -16.0490   11.1200 C.3   342  HIS342      0.1787
     76  C          5.0000  -17.1610   11.5360 C.2   342  HIS342      0.2620
     77  O          6.1760  -16.9180   11.8000 O.2   342  HIS342     -0.2715
     78  CB         4.2840  -15.6440    9.6660 C.3   342  HIS342      0.0785
     79  CG         5.6630  -15.1890    9.3400 C.ar  342  HIS342      0.0821
     80  ND1        6.0230  -13.8610    9.4330 N.ar  342  HIS342     -0.2267
     81  CD2        6.7130  -15.8990    8.8700 C.ar  342  HIS342      0.1154
     82  CE1        7.2790  -13.8050    9.0240 C.ar  342  HIS342      0.1986
     83  NE2        7.7390  -15.0070    8.6860 N.ar  342  HIS342     -0.2212
     84  N          4.4870  -18.3910   11.5690 N.am  343  ASN343     -0.1958
     85  CA         5.3030  -19.5530   11.8970 C.3   343  ASN343      0.1819
     86  C          6.2130  -19.9110   10.6930 C.2   343  ASN343      0.2621
     87  O          6.0110  -19.4080    9.5840 O.2   343  ASN343     -0.2715
     88  CB         4.4230  -20.7320   12.3200 C.3   343  ASN343      0.1195
     89  CG         3.6560  -20.5160   13.6010 C.2   343  ASN343      0.2630
     90  OD1        2.4160  -20.4890   13.6210 O.2   343  ASN343     -0.2716
     91  ND2        4.3750  -20.3730   14.7020 N.am  343  ASN343     -0.0877
     92  N          7.2330  -20.7420   10.9260 N.am  344  ALA344     -0.1977
     93  CA         8.1550  -21.1310    9.8700 C.3   344  ALA344      0.1597
     94  C          7.6400  -22.3080    9.0600 C.2   344  ALA344      0.2287
     95  O          6.8070  -23.0890    9.5340 O.2   344  ALA344     -0.2864
     96  CB         9.5220  -21.4450   10.4510 C.3   344  ALA344      0.0319
     97  N          8.4390  -25.8500    7.0250 N.3   346  ARG346     -0.1245
     98  CA         9.3290  -27.0090    7.0990 C.3   346  ARG346      0.1563
     99  C          8.8940  -28.1470    6.1860 C.2   346  ARG346      0.2260
    100  O          7.7410  -28.1730    5.7390 O.2   346  ARG346     -0.2867
    101  CB         9.5710  -27.4850    8.5560 C.3   346  ARG346      0.0307
    102  CG         8.3970  -28.1650    9.2620 C.3   346  ARG346      0.0489
    103  CD         7.6080  -27.1490   10.0520 C.3   346  ARG346      0.2205
    104  NE         7.3030  -27.6040   11.4070 N.pl3 346  ARG346     -0.0865
    105  CZ         6.6220  -26.8880   12.2970 C.cat 346  ARG346      0.5346
    106  NH1        6.3890  -27.3750   13.5100 N.pl3 346  ARG346      0.1354
    107  NH2        6.1630  -25.6800   11.9810 N.pl3 346  ARG346      0.1354
    108  N         -0.3130  -26.5540   11.7150 N.3   400  LEU400     -0.1231
    109  CA         0.6360  -25.8020   12.5440 C.3   400  LEU400      0.1693
    110  C          1.8650  -26.6620   12.7700 C.2   400  LEU400      0.2592
    111  O          2.9960  -26.1960   12.6000 O.2   400  LEU400     -0.2718
    112  CB        -0.0080  -25.4680   13.8980 C.3   400  LEU400      0.0284
    113  CG         0.8740  -24.7270   14.8910 C.3   400  LEU400      0.0019
    114  CD1        0.8540  -23.2230   14.6330 C.3   400  LEU400      0.0001
    115  CD2        0.4450  -25.0290   16.3040 C.3   400  LEU400      0.0001
    116  N          1.6080  -27.9340   13.1490 N.am  401  HIS401     -0.1976
    117  CA         2.6100  -28.9580   13.3970 C.3   401  HIS401      0.1656
    118  C          2.8210  -29.7630   12.1360 C.2   401  HIS401      0.2291
    119  O          1.8440  -30.1520   11.4800 O.2   401  HIS401     -0.2864
    120  CB         2.1980  -29.8700   14.5710 C.3   401  HIS401      0.0771
    121  CG         2.1510  -29.1720   15.8990 C.ar  401  HIS401      0.0820
    122  ND1        3.1310  -28.2650   16.2800 N.ar  401  HIS401     -0.2267
    123  CD2        1.2580  -29.2960   16.9060 C.ar  401  HIS401      0.1154
    124  CE1        2.7870  -27.8490   17.4880 C.ar  401  HIS401      0.1986
    125  NE2        1.6710  -28.4440   17.9100 N.ar  401  HIS401     -0.2212
@<TRIPOS>BOND
     1   100    99    2
     2    99    98    1
     3    97    98    1
     4    98   101    1
     5   101   102    1
     6    83    81   ar
     7    83    82   ar
     8    81    79   ar
     9    82    80   ar
    10    94    95    2
    11    94    93    1
    12   102   103    1
    13    79    80   ar
    14    79    78    1
    15     3     4    2
    16     3     2    1
    17    87    86    2
    18    78    75    1
    19    93    96    1
    20    93    92    1
    21   103   104    1
    22    86    92   am
    23    86    85    1
    24     2     1    1
    25     2     5    1
    26    75    76    1
    27    75    74    1
    28   104   105    2
    29   119   118    2
    30    76    84   am
    31    76    77    2
    32    66    65    2
    33    84    85    1
    34   108   109    1
    35    85    88    1
    36     5     6    1
    37   107   105    1
    38    74    65   am
    39   118   117    1
    40    65    64    1
    41   105   106    1
    42    88    89    1
    43   109   110    1
    44   109   112    1
    45   111   110    2
    46   110   116   am
    47    63    64    1
    48   116   117    1
    49    64    67    1
    50   117   120    1
    51    89    90    2
    52    89    91   am
    53   112   113    1
    54   120   121    1
    55    67    68    1
    56   114   113    1
    57   113   115    1
    58    68    69   ar
    59    68    70   ar
    60    69    71   ar
    61   121   122   ar
    62   121   123   ar
    63    70    72   ar
    64   122   124   ar
    65    71    73   ar
    66     7     8    1
    67   123   125   ar
    68    37    35    1
    69    72    73   ar
    70   124   125   ar
    71    10     9    2
    72     8     9    1
    73     8    11    1
    74    36    35    1
    75    35    34    1
    76    32    33    2
    77    32    31    1
    78    11    12    1
    79    34    31    1
    80    12    13    1
    81    31    30    1
    82    27    25   ar
    83    27    28   ar
    84    25    23   ar
    85    18    19    1
    86    60    58   ar
    87    60    62   ar
    88    57    58   ar
    89    57    55   ar
    90    29    28    1
    91    28    26   ar
    92    23    22    1
    93    23    24   ar
    94    58    56   ar
    95    13    14    1
    96    22    19    1
    97    62    61   ar
    98    55    54   ar
    99    19    20    1
   100    20    21    2
   101    56    54   ar
   102    56    59   ar
   103    61    59   ar
   104    54    53    1
   105    26    24   ar
   106    14    15    2
   107    53    50    1
   108    15    17    1
   109    15    16    1
   110    50    51    1
   111    50    49    1
   112    51    52    2
   113    44    46   ar
   114    44    43   ar
   115    46    48   ar
   116    42    43    1
   117    42    39    1
   118    43    45   ar
   119    38    39    1
   120    48    47   ar
   121    39    40    1
   122    45    47   ar
   123    40    41    2
