@<TRIPOS>MOLECULE
tmp/4ojdA00.pdb
 136 133 0 0 0
SMALL
GASTEIGER

@<TRIPOS>ATOM
      1  N        -60.0580  -47.6340  -20.6750 N.3     4  PRO4       -0.2116
      2  CA       -59.1090  -47.2540  -21.7200 C.3     4  PRO4        0.1372
      3  C        -58.9360  -45.7450  -21.8170 C.2     4  PRO4        0.2244
      4  O        -59.8450  -44.9810  -21.4880 O.2     4  PRO4       -0.2868
      5  CB       -59.7350  -47.8300  -23.0020 C.3     4  PRO4        0.0268
      6  CG       -61.1560  -48.0710  -22.6720 C.3     4  PRO4        0.0207
      7  CD       -61.1580  -48.4440  -21.2360 C.3     4  PRO4        0.0892
      8  N        -58.5930  -43.0160  -27.4120 N.3     7  CYS7       -0.1235
      9  CA       -57.9040  -43.6680  -28.5200 C.3     7  CYS7        0.1677
     10  C        -57.7880  -42.6220  -29.6210 C.2     7  CYS7        0.2270
     11  O        -58.8090  -42.1690  -30.1320 O.2     7  CYS7       -0.2867
     12  CB       -58.6830  -44.8970  -28.9760 C.3     7  CYS7        0.0956
     13  SG       -58.7900  -46.1930  -27.7200 S.3     7  CYS7       -0.0801
     14  N        -57.1400  -53.6550  -32.1430 N.3    39  ARG39      -0.1245
     15  CA       -57.6180  -55.0060  -31.8880 C.3    39  ARG39       0.1563
     16  C        -56.9270  -55.9320  -32.8760 C.2    39  ARG39       0.2260
     17  O        -56.5890  -55.5270  -34.0040 O.2    39  ARG39      -0.2867
     18  CB       -59.1420  -55.1300  -31.9840 C.3    39  ARG39       0.0307
     19  CG       -59.8620  -54.5260  -30.7810 C.3    39  ARG39       0.0489
     20  CD       -61.3440  -54.8110  -30.8260 C.3    39  ARG39       0.2205
     21  NE       -62.0460  -54.2710  -29.6580 N.pl3  39  ARG39      -0.0865
     22  CZ       -62.2560  -54.9400  -28.5290 C.cat  39  ARG39       0.5346
     23  NH1      -62.9180  -54.3750  -27.5300 N.pl3  39  ARG39       0.1354
     24  NH2      -61.8110  -56.1780  -28.3920 N.pl3  39  ARG39       0.1354
     25  N        -57.3140  -59.3840  -34.8660 N.3    41  TYR41      -0.1241
     26  CA       -58.3220  -60.3380  -35.3540 C.3    41  TYR41       0.1605
     27  C        -57.6690  -61.5680  -35.9590 C.2    41  TYR41       0.2264
     28  O        -57.2140  -62.4290  -35.2100 O.2    41  TYR41      -0.2867
     29  CB       -59.3070  -59.6770  -36.3390 C.3    41  TYR41       0.0534
     30  CG       -60.1390  -58.5770  -35.7110 C.ar   41  TYR41      -0.0201
     31  CD1      -61.2790  -58.8730  -34.9660 C.ar   41  TYR41      -0.0009
     32  CD2      -59.7780  -57.2380  -35.8470 C.ar   41  TYR41      -0.0009
     33  CE1      -62.0340  -57.8620  -34.3660 C.ar   41  TYR41       0.0417
     34  CE2      -60.5360  -56.2210  -35.2700 C.ar   41  TYR41       0.0417
     35  CZ       -61.6590  -56.5360  -34.5250 C.ar   41  TYR41       0.1957
     36  OH       -62.3960  -55.5310  -33.9550 O.3    41  TYR41      -0.2866
     37  N        -58.8750  -55.0880  -26.3360 N.3    44  LEU44      -0.1245
     38  CA       -58.5550  -53.7510  -26.8480 C.3    44  LEU44       0.1561
     39  C        -57.1730  -53.4000  -26.2990 C.2    44  LEU44       0.2260
     40  O        -57.0150  -53.1840  -25.0930 O.2    44  LEU44      -0.2867
     41  CB       -59.6270  -52.7070  -26.4170 C.3    44  LEU44       0.0270
     42  CG       -59.7780  -51.3510  -27.2070 C.3    44  LEU44       0.0019
     43  CD1      -59.6110  -50.1290  -26.3430 C.3    44  LEU44       0.0001
     44  CD2      -59.1150  -51.3050  -28.5940 C.3    44  LEU44       0.0001
     45  N        -64.1670  -55.9720  -22.4590 N.3   158  PHE158     -0.1241
     46  CA       -65.4350  -55.3700  -22.0990 C.3   158  PHE158      0.1605
     47  C        -66.3600  -56.5440  -21.8410 C.2   158  PHE158      0.2264
     48  O        -66.8050  -57.1840  -22.7910 O.2   158  PHE158     -0.2867
     49  CB       -65.9570  -54.4050  -23.2040 C.3   158  PHE158      0.0534
     50  CG       -67.1790  -53.6100  -22.7930 C.ar  158  PHE158     -0.0203
     51  CD1      -67.0480  -52.3820  -22.1540 C.ar  158  PHE158     -0.0042
     52  CD2      -68.4630  -54.1210  -22.9900 C.ar  158  PHE158     -0.0042
     53  CE1      -68.1760  -51.6670  -21.7300 C.ar  158  PHE158     -0.0003
     54  CE2      -69.5940  -53.3970  -22.5790 C.ar  158  PHE158     -0.0003
     55  CZ       -69.4430  -52.1770  -21.9500 C.ar  158  PHE158     -0.0000
     56  N        -70.6500  -55.6700  -18.7550 N.3   161  GLY161     -0.1225
     57  CA       -71.0780  -54.2900  -18.9840 C.3   161  GLY161      0.1811
     58  C        -70.0470  -53.2320  -18.6420 C.2   161  GLY161      0.2280
     59  O        -70.3600  -52.0410  -18.6570 O.2   161  GLY161     -0.2866
     60  N        -65.5180  -52.1180  -18.8210 N.3   163  TRP163     -0.1241
     61  CA       -64.1630  -52.3700  -19.2450 C.3   163  TRP163      0.1605
     62  C        -63.4290  -52.9910  -18.0610 C.2   163  TRP163      0.2264
     63  O        -63.5840  -52.5420  -16.9230 O.2   163  TRP163     -0.2867
     64  CB       -63.4600  -51.0490  -19.5960 C.3   163  TRP163      0.0550
     65  CG       -63.9380  -50.4630  -20.8800 C.ar  163  TRP163      0.0003
     66  CD1      -64.7370  -49.3690  -21.0420 C.ar  163  TRP163      0.0946
     67  CD2      -63.6370  -50.9430  -22.1950 C.ar  163  TRP163      0.0152
     68  NE1      -64.9660  -49.1470  -22.3800 N.ar  163  TRP163     -0.2442
     69  CE2      -64.2780  -50.0820  -23.1110 C.ar  163  TRP163      0.0810
     70  CE3      -62.9060  -52.0380  -22.6890 C.ar  163  TRP163      0.0012
     71  CZ2      -64.1770  -50.2590  -24.4930 C.ar  163  TRP163      0.0191
     72  CZ3      -62.8350  -52.2390  -24.0560 C.ar  163  TRP163      0.0001
     73  CH2      -63.4630  -51.3570  -24.9460 C.ar  163  TRP163      0.0015
     74  N        -58.3830  -48.3550  -33.8900 N.3   338  PHE338     -0.1227
     75  CA       -59.6290  -47.6570  -33.5840 C.3   338  PHE338      0.1736
     76  C        -59.3680  -46.3520  -32.8620 C.2   338  PHE338      0.2595
     77  O        -58.4600  -46.2710  -32.0240 O.2   338  PHE338     -0.2718
     78  CB       -60.5660  -48.5240  -32.7000 C.3   338  PHE338      0.0547
     79  CG       -61.0360  -49.8260  -33.3150 C.ar  338  PHE338     -0.0202
     80  CD1      -62.1950  -49.8720  -34.0840 C.ar  338  PHE338     -0.0042
     81  CD2      -60.3090  -51.0000  -33.1430 C.ar  338  PHE338     -0.0042
     82  CE1      -62.6210  -51.0740  -34.6680 C.ar  338  PHE338     -0.0003
     83  CE2      -60.7350  -52.1990  -33.7220 C.ar  338  PHE338     -0.0003
     84  CZ       -61.8840  -52.2250  -34.4890 C.ar  338  PHE338     -0.0000
     85  N        -60.2060  -45.3440  -33.1420 N.am  339  HIS339     -0.1961
     86  CA       -60.1490  -44.0900  -32.4110 C.3   339  HIS339      0.1787
     87  C        -61.5400  -43.6740  -31.9040 C.2   339  HIS339      0.2620
     88  O        -62.5620  -44.1040  -32.4330 O.2   339  HIS339     -0.2715
     89  CB       -59.4810  -42.9670  -33.2210 C.3   339  HIS339      0.0785
     90  CG       -60.2370  -42.5680  -34.4520 C.ar  339  HIS339      0.0821
     91  ND1      -61.1960  -41.5590  -34.4220 N.ar  339  HIS339     -0.2267
     92  CD2      -60.1860  -43.0840  -35.6960 C.ar  339  HIS339      0.1154
     93  CE1      -61.6710  -41.4760  -35.6520 C.ar  339  HIS339      0.1986
     94  NE2      -61.0600  -42.3430  -36.4660 N.ar  339  HIS339     -0.2212
     95  N        -61.5480  -42.8000  -30.8970 N.am  340  ASN340     -0.1958
     96  CA       -62.7350  -42.1990  -30.3200 C.3   340  ASN340      0.1819
     97  C        -62.9330  -40.8300  -30.9640 C.2   340  ASN340      0.2621
     98  O        -61.9760  -40.2060  -31.4520 O.2   340  ASN340     -0.2715
     99  CB       -62.5660  -42.0520  -28.7990 C.3   340  ASN340      0.1195
    100  CG       -62.5460  -43.3820  -28.0810 C.2   340  ASN340      0.2630
    101  OD1      -61.5200  -43.7830  -27.5060 O.2   340  ASN340     -0.2716
    102  ND2      -63.6870  -44.0850  -28.1280 N.am  340  ASN340     -0.0877
    103  N        -64.1800  -40.3650  -30.9580 N.am  341  ALA341     -0.1977
    104  CA       -64.5610  -39.0440  -31.4460 C.3   341  ALA341      0.1597
    105  C        -63.9760  -38.0030  -30.4750 C.2   341  ALA341      0.2287
    106  O        -63.7370  -38.2980  -29.2990 O.2   341  ALA341     -0.2864
    107  CB       -66.0820  -38.9250  -31.4690 C.3   341  ALA341      0.0319
    108  N        -64.4070  -34.1260  -28.7340 N.3   343  ARG343     -0.1245
    109  CA       -65.5060  -33.2710  -28.2910 C.3   343  ARG343      0.1563
    110  C        -65.0200  -32.1310  -27.4250 C.2   343  ARG343      0.2260
    111  O        -63.9690  -32.2450  -26.7810 O.2   343  ARG343     -0.2867
    112  CB       -66.5880  -34.0970  -27.5460 C.3   343  ARG343      0.0307
    113  CG       -66.1030  -34.8060  -26.2860 C.3   343  ARG343      0.0489
    114  CD       -67.1920  -35.6630  -25.6840 C.3   343  ARG343      0.2205
    115  NE       -66.6630  -36.6590  -24.7510 N.pl3 343  ARG343     -0.0865
    116  CZ       -66.2610  -37.8800  -25.1020 C.cat 343  ARG343      0.5346
    117  NH1      -65.8100  -38.7240  -24.1850 N.pl3 343  ARG343      0.1354
    118  NH2      -66.3050  -38.2640  -26.3740 N.pl3 343  ARG343      0.1354
    119  N        -60.7040  -40.2730  -21.5700 N.3   397  LEU397     -0.1231
    120  CA       -61.7080  -40.9740  -22.3670 C.3   397  LEU397      0.1693
    121  C        -63.0570  -40.2440  -22.2800 C.2   397  LEU397      0.2592
    122  O        -63.7900  -40.1970  -23.2680 O.2   397  LEU397     -0.2718
    123  CB       -61.8500  -42.4340  -21.8700 C.3   397  LEU397      0.0284
    124  CG       -62.7530  -43.3550  -22.6860 C.3   397  LEU397      0.0019
    125  CD1      -62.0880  -43.7780  -23.9880 C.3   397  LEU397      0.0001
    126  CD2      -63.2060  -44.5520  -21.8670 C.3   397  LEU397      0.0001
    127  N        -63.3860  -39.6960  -21.1040 N.am  398  HIS398     -0.1976
    128  CA       -64.6480  -38.9910  -20.9140 C.3   398  HIS398      0.1656
    129  C        -64.4300  -37.5050  -20.8500 C.2   398  HIS398      0.2291
    130  O        -63.3470  -37.0580  -20.4650 O.2   398  HIS398     -0.2864
    131  CB       -65.4060  -39.5080  -19.6840 C.3   398  HIS398      0.0771
    132  CG       -65.7180  -40.9700  -19.7570 C.ar  398  HIS398      0.0820
    133  ND1      -66.5830  -41.4780  -20.7140 N.ar  398  HIS398     -0.2267
    134  CD2      -65.2630  -41.9890  -18.9900 C.ar  398  HIS398      0.1154
    135  CE1      -66.6220  -42.7830  -20.5010 C.ar  398  HIS398      0.1986
    136  NE2      -65.8450  -43.1360  -19.4730 N.ar  398  HIS398     -0.2212
@<TRIPOS>BOND
     1    94    92   ar
     2    94    93   ar
     3    29    30    1
     4    29    26    1
     5    27    26    1
     6    27    28    2
     7    32    30   ar
     8    32    34   ar
     9    30    31   ar
    10    92    90   ar
    11    93    91   ar
    12    26    25    1
    13    34    35   ar
    14    31    33   ar
    15    82    84   ar
    16    82    80   ar
    17    35    33   ar
    18    35    36    1
    19    84    83   ar
    20    90    91   ar
    21    90    89    1
    22    80    79   ar
    23    17    16    2
    24    74    75    1
    25    83    81   ar
    26    75    76    1
    27    75    78    1
    28    79    81   ar
    29    79    78    1
    30    89    86    1
    31    85    76   am
    32    85    86    1
    33    16    15    1
    34    76    77    2
    35    88    87    2
    36    86    87    1
    37    14    15    1
    38    18    15    1
    39    18    19    1
    40    87    95   am
    41   107   104    1
    42    98    97    2
    43   104   103    1
    44   104   105    1
    45    97   103   am
    46    97    96    1
    47    95    96    1
    48    20    19    1
    49    20    21    1
    50   105   106    2
    51    96    99    1
    52    11    10    2
    53    21    22    2
    54    10     9    1
    55    12     9    1
    56    12    13    1
    57    99   100    1
    58   108   109    1
    59    44    42    1
    60    22    24    1
    61    22    23    1
    62     9     8    1
    63   109   112    1
    64   109   110    1
    65   102   100   am
    66   100   101    2
    67   112   113    1
    68   110   111    2
    69    42    41    1
    70    42    43    1
    71    38    41    1
    72    38    37    1
    73    38    39    1
    74   118   116    1
    75    39    40    2
    76   113   114    1
    77   114   115    1
    78   116   115    2
    79   116   117    1
    80    73    71   ar
    81    73    72   ar
    82    71    69   ar
    83    72    70   ar
    84   125   124    1
    85   122   121    2
    86    49    50    1
    87    49    46    1
    88    69    68   ar
    89    69    67   ar
    90     5     6    1
    91     5     2    1
    92    52    50   ar
    93    52    54   ar
    94    50    51   ar
    95    48    47    2
    96    70    67   ar
    97   124   123    1
    98   124   126    1
    99     6     7    1
   100    54    55   ar
   101    45    46    1
   102    68    66   ar
   103   120   121    1
   104   120   123    1
   105   120   119    1
   106   121   127   am
   107    67    65   ar
   108    51    53   ar
   109    46    47    1
   110    55    53   ar
   111     3     2    1
   112     3     4    2
   113     2     1    1
   114     7     1    1
   115   127   128    1
   116    66    65   ar
   117   128   129    1
   118   128   131    1
   119    65    64    1
   120   129   130    2
   121   133   135   ar
   122   133   132   ar
   123   135   136   ar
   124   132   131    1
   125   132   134   ar
   126    64    61    1
   127   136   134   ar
   128    61    60    1
   129    61    62    1
   130    57    56    1
   131    57    58    1
   132    59    58    2
   133    62    63    2
