@<TRIPOS>MOLECULE
tmp/4ojfA00.pdb
 97 95 0 0 0
SMALL
GASTEIGER

@<TRIPOS>ATOM
      1  N         68.3650   45.2520  116.2920 N.3    32  GLY32      -0.1210
      2  CA        67.1410   44.4850  116.1540 C.3    32  GLY32       0.1956
      3  C         67.4300   42.9850  116.2070 C.2    32  GLY32       0.2612
      4  O         68.5240   42.5160  115.8350 O.2    32  GLY32      -0.2717
      5  N         66.4500   42.2310  116.7010 N.am   33  MET33      -0.1965
      6  CA        66.5510   40.7840  116.8610 C.3    33  MET33       0.1736
      7  C         65.2690   40.0980  116.3840 C.2    33  MET33       0.2617
      8  O         64.1750   40.6890  116.3880 O.2    33  MET33      -0.2715
      9  CB        66.7460   40.4210  118.3410 C.3    33  MET33       0.0427
     10  CG        67.9470   41.0420  119.0170 C.3    33  MET33       0.0599
     11  SD        69.5450   40.4520  118.4090 S.3    33  MET33      -0.1393
     12  CE        69.4480   38.7060  118.7870 C.3    33  MET33       0.0692
     13  N         65.3860   38.8310  116.0100 N.am   34  SER34      -0.1950
     14  CA        64.1940   38.0640  115.6700 C.3    34  SER34       0.1924
     15  C         64.3360   36.6210  116.1280 C.2    34  SER34       0.2314
     16  O         65.4250   36.1740  116.5000 O.2    34  SER34      -0.2863
     17  CB        63.9150   38.1620  114.1580 C.3    34  SER34       0.2116
     18  OG        64.9080   37.4790  113.3920 O.3    34  SER34      -0.2180
     19  N         60.1340   32.5300  109.6560 N.3    46  TRP46      -0.1241
     20  CA        60.2020   33.6720  110.5700 C.3    46  TRP46       0.1605
     21  C         59.0330   33.6750  111.5560 C.2    46  TRP46       0.2264
     22  O         57.8860   33.4140  111.1850 O.2    46  TRP46      -0.2867
     23  CB        60.2690   34.9760  109.7800 C.3    46  TRP46       0.0550
     24  CG        60.1250   36.1910  110.6450 C.ar   46  TRP46       0.0003
     25  CD1       61.0640   36.7130  111.4770 C.ar   46  TRP46       0.0946
     26  CD2       58.9620   37.0160  110.7780 C.ar   46  TRP46       0.0152
     27  NE1       60.5730   37.8260  112.1080 N.ar   46  TRP46      -0.2442
     28  CE2       59.2750   38.0310  111.7040 C.ar   46  TRP46       0.0810
     29  CE3       57.6940   37.0130  110.1810 C.ar   46  TRP46       0.0012
     30  CZ2       58.3710   39.0200  112.0690 C.ar   46  TRP46       0.0191
     31  CZ3       56.7850   38.0030  110.5420 C.ar   46  TRP46       0.0001
     32  CH2       57.1350   39.0000  111.4730 C.ar   46  TRP46       0.0015
     33  N         59.8610   39.5960  115.4980 N.3    49  SER49      -0.1202
     34  CA        60.9670   40.5400  115.4840 C.3    49  SER49       0.2020
     35  C         60.6940   41.6570  116.4720 C.2    49  SER49       0.2619
     36  O         59.5270   41.9760  116.7440 O.2    49  SER49      -0.2717
     37  CB        61.1410   41.1770  114.1010 C.3    49  SER49       0.2103
     38  OG        61.6260   40.2540  113.1620 O.3    49  SER49      -0.2182
     39  N         61.7790   42.2430  116.9840 N.am   50  ILE50      -0.1965
     40  CA        61.7310   43.4100  117.8630 C.3    50  ILE50       0.1727
     41  C         62.8650   44.3760  117.4930 C.2    50  ILE50       0.2616
     42  O         64.0230   43.9850  117.3030 O.2    50  ILE50      -0.2715
     43  CB        61.7900   43.0220  119.3490 C.3    50  ILE50       0.0290
     44  CG1       61.5960   44.2490  120.2340 C.3    50  ILE50       0.0022
     45  CG2       63.0900   42.2820  119.6780 C.3    50  ILE50       0.0023
     46  CD1       61.2310   43.9190  121.6870 C.3    50  ILE50       0.0001
     47  N         62.5000   45.6360  117.3550 N.am   51  ARG51      -0.1977
     48  CA        63.4580   46.6690  117.0100 C.3    51  ARG51       0.1597
     49  C         64.3730   47.0090  118.1760 C.2    51  ARG51       0.2287
     50  O         64.0830   46.6790  119.3320 O.2    51  ARG51      -0.2864
     51  CB        62.7130   47.9210  116.5930 C.3    51  ARG51       0.0334
     52  CG        61.9870   47.7930  115.2850 C.3    51  ARG51       0.0492
     53  CD        62.2170   49.0610  114.5140 C.3    51  ARG51       0.2205
     54  NE        61.3350   49.2110  113.3720 N.pl3  51  ARG51      -0.0865
     55  CZ        61.5950   50.0180  112.3560 C.cat  51  ARG51       0.5346
     56  NH1       62.7210   50.7240  112.3560 N.pl3  51  ARG51       0.1354
     57  NH2       60.7440   50.1090  111.3420 N.pl3  51  ARG51       0.1354
     58  N         56.8000   42.7220  115.7400 N.3    58  TYR58      -0.1241
     59  CA        56.1840   42.2270  114.5090 C.3    58  TYR58       0.1605
     60  C         56.0840   40.7210  114.6520 C.2    58  TYR58       0.2264
     61  O         57.0160   40.1110  115.1590 O.2    58  TYR58      -0.2867
     62  CB        57.0550   42.5630  113.2870 C.3    58  TYR58       0.0534
     63  CG        57.4550   44.0290  113.2150 C.ar   58  TYR58      -0.0201
     64  CD1       58.4790   44.5200  113.9990 C.ar   58  TYR58      -0.0009
     65  CD2       56.7970   44.9170  112.3700 C.ar   58  TYR58      -0.0009
     66  CE1       58.8320   45.8490  113.9630 C.ar   58  TYR58       0.0417
     67  CE2       57.1630   46.2670  112.3170 C.ar   58  TYR58       0.0417
     68  CZ        58.1680   46.7200  113.1250 C.ar   58  TYR58       0.1957
     69  OH        58.5360   48.0480  113.1080 O.3    58  TYR58      -0.2866
     70  N         69.6650   41.0210  113.6100 N.3    98  TYR98      -0.1241
     71  CA        69.5700   41.8030  112.3900 C.3    98  TYR98       0.1605
     72  C         70.7170   42.8120  112.3500 C.2    98  TYR98       0.2264
     73  O         70.8690   43.6260  113.2520 O.2    98  TYR98      -0.2867
     74  CB        68.2470   42.5410  112.2880 C.3    98  TYR98       0.0534
     75  CG        68.1850   43.4090  111.0640 C.ar   98  TYR98      -0.0201
     76  CD1       67.9920   42.8480  109.8120 C.ar   98  TYR98      -0.0009
     77  CD2       68.3580   44.7850  111.1530 C.ar   98  TYR98      -0.0009
     78  CE1       67.9410   43.6240  108.6910 C.ar   98  TYR98       0.0417
     79  CE2       68.3090   45.5780  110.0310 C.ar   98  TYR98       0.0417
     80  CZ        68.0980   44.9960  108.8050 C.ar   98  TYR98       0.1957
     81  OH        68.0560   45.7710  107.6820 O.3    98  TYR98      -0.2866
     82  N         72.1430   45.3300  106.1990 N.3   103  GLY103     -0.1210
     83  CA        70.7600   45.2850  105.7740 C.3   103  GLY103      0.1956
     84  C         70.1460   43.8950  105.7710 C.2   103  GLY103      0.2613
     85  O         69.2130   43.6270  105.0210 O.2   103  GLY103     -0.2717
     86  N         70.6370   43.0310  106.6440 N.am  104  SER104     -0.1938
     87  CA        70.3240   41.6180  106.5860 C.3   104  SER104      0.2055
     88  C         70.5570   40.9750  107.9550 C.2   104  SER104      0.2643
     89  O         71.4550   41.3870  108.6830 O.2   104  SER104     -0.2714
     90  CB        71.2500   41.0090  105.5290 C.3   104  SER104      0.2130
     91  OG        71.5170   39.6600  105.7570 O.3   104  SER104     -0.2179
     92  N         69.7160   40.0040  108.3170 N.am  105  SER105     -0.1949
     93  CA        70.0000   39.1400  109.4520 C.3   105  SER105      0.1924
     94  C         71.3460   38.4710  109.2360 C.2   105  SER105      0.2314
     95  O         71.6390   38.0230  108.1240 O.2   105  SER105     -0.2863
     96  CB        68.9230   38.0590  109.5880 C.3   105  SER105      0.2116
     97  OG        67.6900   38.6330  109.9860 O.3   105  SER105     -0.2180
@<TRIPOS>BOND
     1    85    84    2
     2    90    91    1
     3    90    87    1
     4    84    83    1
     5    84    86   am
     6    83    82    1
     7    87    86    1
     8    87    88    1
     9    81    80    1
    10    88    92   am
    11    88    89    2
    12    95    94    2
    13    92    93    1
    14    78    80   ar
    15    78    76   ar
    16    80    79   ar
    17    94    93    1
    18    93    96    1
    19    96    97    1
    20    19    20    1
    21    23    20    1
    22    23    24    1
    23    76    75   ar
    24    79    77   ar
    25    29    31   ar
    26    29    26   ar
    27    31    32   ar
    28    20    21    1
    29    24    26   ar
    30    24    25   ar
    31    26    28   ar
    32    75    77   ar
    33    75    74    1
    34    22    21    2
    35    57    55    1
    36    32    30   ar
    37    25    27   ar
    38    28    30   ar
    39    28    27   ar
    40    74    71    1
    41    67    65   ar
    42    67    68   ar
    43    72    71    1
    44    72    73    2
    45    56    55    1
    46    55    54    2
    47    65    63   ar
    48    71    70    1
    49    69    68    1
    50    68    66   ar
    51    38    37    1
    52    63    62    1
    53    63    64   ar
    54    62    59    1
    55    54    53    1
    56    18    17    1
    57    66    64   ar
    58    37    34    1
    59    17    14    1
    60    59    60    1
    61    59    58    1
    62    53    52    1
    63    60    61    2
    64    52    51    1
    65    34    33    1
    66    34    35    1
    67    14    13    1
    68    14    15    1
    69     4     3    2
    70    13     7   am
    71    15    16    2
    72     2     3    1
    73     2     1    1
    74     3     5   am
    75     7     8    2
    76     7     6    1
    77    35    36    2
    78    35    39   am
    79    51    48    1
    80     5     6    1
    81     6     9    1
    82    39    40    1
    83    48    47    1
    84    48    49    1
    85    42    41    2
    86    47    41   am
    87    41    40    1
    88    40    43    1
    89    49    50    2
    90     9    10    1
    91    11    12    1
    92    11    10    1
    93    43    45    1
    94    43    44    1
    95    44    46    1
