@<TRIPOS>MOLECULE
tmp/4ojkA00.pdb
 147 143 0 0 0
SMALL
GASTEIGER

@<TRIPOS>ATOM
      1  N        -57.1290    7.0300  -11.2930 N.3    15  SER15      -0.1202
      2  CA       -57.2150    6.7390  -12.7150 C.3    15  SER15       0.2020
      3  C        -57.5400    8.0230  -13.4640 C.2    15  SER15       0.2619
      4  O        -58.3300    8.8420  -12.9930 O.2    15  SER15      -0.2717
      5  CB       -58.2850    5.6790  -12.9910 C.3    15  SER15       0.2103
      6  OG       -59.5860    6.2070  -12.7960 O.3    15  SER15      -0.2182
      7  N        -56.9150    8.2080  -14.6210 N.am   16  GLY16      -0.1942
      8  CA       -57.2030    9.3590  -15.4560 C.3    16  GLY16       0.2014
      9  C        -56.3090   10.5620  -15.2300 C.2    16  GLY16       0.2639
     10  O        -56.4360   11.5640  -15.9320 O.2    16  GLY16      -0.2714
     11  N        -55.4030   10.4720  -14.2600 N.am   17  VAL17      -0.1963
     12  CA       -54.4810   11.5720  -13.9820 C.3    17  VAL17       0.1727
     13  C        -53.3560   11.6600  -15.0140 C.2    17  VAL17       0.2617
     14  O        -52.7360   12.7100  -15.1740 O.2    17  VAL17      -0.2715
     15  CB       -53.8830   11.4870  -12.5620 C.3    17  VAL17       0.0290
     16  CG1      -54.9900   11.5360  -11.5210 C.3    17  VAL17       0.0023
     17  CG2      -53.0460   10.2250  -12.4060 C.3    17  VAL17       0.0023
     18  N        -53.0920   10.5570  -15.7100 N.am   18  GLY18      -0.1940
     19  CA       -52.1330   10.5600  -16.8010 C.3    18  GLY18       0.2014
     20  C        -50.9230    9.6650  -16.6080 C.2    18  GLY18       0.2639
     21  O        -49.8850    9.8810  -17.2340 O.2    18  GLY18      -0.2714
     22  N        -51.0510    8.6570  -15.7530 N.am   19  LYS19      -0.1963
     23  CA       -49.9300    7.7690  -15.4580 C.3    19  LYS19       0.1728
     24  C        -49.4310    7.0350  -16.7020 C.2    19  LYS19       0.2617
     25  O        -48.2320    7.0140  -16.9760 O.2    19  LYS19      -0.2715
     26  CB       -50.3020    6.7640  -14.3660 C.3    19  LYS19       0.0311
     27  CG       -50.6260    7.3920  -13.0240 C.3    19  LYS19       0.0038
     28  CD       -50.8540    6.3270  -11.9650 C.3    19  LYS19       0.0206
     29  CE       -52.0030    5.4040  -12.3440 C.3    19  LYS19       0.1093
     30  NZ       -53.3190    6.0960  -12.2880 N.3    19  LYS19      -0.1314
     31  N        -50.3530    6.4430  -17.4560 N.am   20  SER20      -0.1936
     32  CA       -49.9820    5.6710  -18.6360 C.3    20  SER20       0.2055
     33  C        -49.2850    6.5420  -19.6740 C.2    20  SER20       0.2643
     34  O        -48.3430    6.0980  -20.3310 O.2    20  SER20      -0.2714
     35  CB       -51.2040    4.9900  -19.2580 C.3    20  SER20       0.2130
     36  OG       -51.9660    5.9010  -20.0290 O.3    20  SER20      -0.2179
     37  N        -49.7460    7.7800  -19.8190 N.am   21  ASN21      -0.1971
     38  CA       -49.1680    8.6760  -20.8130 C.3    21  ASN21       0.1688
     39  C        -47.8200    9.2490  -20.4080 C.2    21  ASN21       0.2292
     40  O        -46.9750    9.5000  -21.2640 O.2    21  ASN21      -0.2864
     41  CB       -50.1400    9.7880  -21.1970 C.3    21  ASN21       0.1181
     42  CG       -51.1610    9.3320  -22.2150 C.2    21  ASN21       0.2629
     43  OD1      -50.8370    9.1420  -23.3890 O.2    21  ASN21      -0.2716
     44  ND2      -52.4020    9.1530  -21.7740 N.am   21  ASN21      -0.0877
     45  N        -48.1130    9.4100  -27.1110 N.3    31  PHE31      -0.1227
     46  CA       -49.2170    9.8550  -26.2720 C.3    31  PHE31       0.1736
     47  C        -50.5520    9.3360  -26.7970 C.2    31  PHE31       0.2595
     48  O        -50.7820    9.2990  -28.0040 O.2    31  PHE31      -0.2718
     49  CB       -49.2370   11.3820  -26.2040 C.3    31  PHE31       0.0547
     50  CG       -50.2780   11.9350  -25.2760 C.ar   31  PHE31      -0.0202
     51  CD1      -49.9810   12.1680  -23.9440 C.ar   31  PHE31      -0.0042
     52  CD2      -51.5520   12.2330  -25.7370 C.ar   31  PHE31      -0.0042
     53  CE1      -50.9380   12.6800  -23.0850 C.ar   31  PHE31      -0.0003
     54  CE2      -52.5110   12.7450  -24.8830 C.ar   31  PHE31      -0.0003
     55  CZ       -52.2030   12.9690  -23.5560 C.ar   31  PHE31      -0.0000
     56  N        -51.4340    8.9410  -25.8850 N.am   32  ASN32      -0.1960
     57  CA       -52.7700    8.4980  -26.2680 C.3    32  ASN32       0.1819
     58  C        -53.8460    9.4890  -25.8320 C.2    32  ASN32       0.2621
     59  O        -54.0320    9.7380  -24.6400 O.2    32  ASN32      -0.2715
     60  CB       -53.0620    7.1100  -25.6990 C.3    32  ASN32       0.1195
     61  CG       -54.3840    6.5500  -26.1810 C.2    32  ASN32       0.2630
     62  OD1      -54.9430    7.0150  -27.1740 O.2    32  ASN32      -0.2716
     63  ND2      -54.8940    5.5470  -25.4770 N.am   32  ASN32      -0.0877
     64  N        -54.5490   10.0560  -26.8070 N.am   33  LEU33      -0.1963
     65  CA       -55.6050   11.0250  -26.5310 C.3    33  LEU33       0.1728
     66  C        -56.8130   10.3810  -25.8540 C.2    33  LEU33       0.2616
     67  O        -57.5790   11.0520  -25.1660 O.2    33  LEU33      -0.2715
     68  CB       -56.0530   11.6960  -27.8290 C.3    33  LEU33       0.0311
     69  CG       -55.0060   12.4860  -28.6130 C.3    33  LEU33       0.0022
     70  CD1      -55.5350   12.8330  -29.9950 C.3    33  LEU33       0.0001
     71  CD2      -54.6040   13.7500  -27.8570 C.3    33  LEU33       0.0001
     72  N        -56.9820    9.0790  -26.0530 N.am   34  GLU34      -0.1963
     73  CA       -58.1640    8.3790  -25.5630 C.3    34  GLU34       0.1733
     74  C        -57.9040    7.6860  -24.2310 C.2    34  GLU34       0.2617
     75  O        -56.7780    7.6870  -23.7300 O.2    34  GLU34      -0.2715
     76  CB       -58.6280    7.3610  -26.6010 C.3    34  GLU34       0.0429
     77  CG       -58.7090    7.9300  -28.0070 C.3    34  GLU34       0.1163
     78  CD       -58.9320    6.8660  -29.0620 C.2    34  GLU34       0.3649
     79  OE1      -59.3290    5.7380  -28.6990 O.co2  34  GLU34      -0.2457
     80  OE2      -58.7030    7.1560  -30.2550 O.co2  34  GLU34      -0.2457
     81  N        -58.9520    7.0980  -23.6620 N.am   35  SER35      -0.1936
     82  CA       -58.8250    6.3350  -22.4260 C.3    35  SER35       0.2055
     83  C        -58.0150    5.0650  -22.6610 C.2    35  SER35       0.2642
     84  O        -58.2050    4.3730  -23.6610 O.2    35  SER35      -0.2714
     85  CB       -60.2030    5.9880  -21.8660 C.3    35  SER35       0.2130
     86  OG       -60.8980    7.1650  -21.4940 O.3    35  SER35      -0.2179
     87  N        -57.1090    4.7660  -21.7360 N.am   36  LYS36      -0.1977
     88  CA       -56.1970    3.6390  -21.8950 C.3    36  LYS36       0.1596
     89  C        -56.9060    2.2950  -21.7800 C.2    36  LYS36       0.2287
     90  O        -57.9560    2.1840  -21.1480 O.2    36  LYS36      -0.2864
     91  CB       -55.0640    3.7150  -20.8700 C.3    36  LYS36       0.0298
     92  CG       -55.4930    3.4580  -19.4340 C.3    36  LYS36       0.0038
     93  CD       -54.2830    3.4350  -18.5200 C.3    36  LYS36       0.0206
     94  CE       -54.6480    3.1290  -17.0820 C.3    36  LYS36       0.1093
     95  NZ       -53.4500    3.2690  -16.2100 N.3    36  LYS36      -0.1314
     96  N        -49.9840   16.5640  -13.0850 N.3   119  ASN119     -0.1225
     97  CA       -50.0050   16.4240  -14.5340 C.3   119  ASN119      0.1785
     98  C        -51.0960   17.2920  -15.1530 C.2   119  ASN119      0.2597
     99  O        -51.9430   17.8370  -14.4390 O.2   119  ASN119     -0.2718
    100  CB       -50.1980   14.9540  -14.9220 C.3   119  ASN119      0.1169
    101  CG       -49.8980   14.6910  -16.3870 C.2   119  ASN119      0.2627
    102  OD1      -49.0280   15.3310  -16.9840 O.2   119  ASN119     -0.2716
    103  ND2      -50.6290   13.7530  -16.9790 N.am  119  ASN119     -0.0877
    104  N        -51.0570   17.4130  -16.4800 N.am  120  LYS120     -0.1980
    105  CA       -52.0060   18.2080  -17.2590 C.3   120  LYS120      0.1596
    106  C        -51.8560   19.6980  -16.9860 C.2   120  LYS120      0.2287
    107  O        -52.8440   20.4200  -16.8800 O.2   120  LYS120     -0.2864
    108  CB       -53.4510   17.7520  -17.0230 C.3   120  LYS120      0.0298
    109  CG       -53.6430   16.2470  -17.1240 C.3   120  LYS120      0.0038
    110  CD       -55.1110   15.8770  -17.1560 C.3   120  LYS120      0.0206
    111  CE       -55.2960   14.3720  -17.2030 C.3   120  LYS120      0.1093
    112  NZ       -56.7190   14.0090  -17.3980 N.3   120  LYS120     -0.1314
    113  N        -50.9640   21.7570  -18.9870 N.3   122  ASP122     -0.1225
    114  CA       -51.5090   22.4180  -20.1690 C.3   122  ASP122      0.1805
    115  C        -52.9590   22.8660  -19.9580 C.2   122  ASP122      0.2597
    116  O        -53.4690   23.7180  -20.6840 O.2   122  ASP122     -0.2718
    117  CB       -51.4070   21.4980  -21.3890 C.3   122  ASP122      0.1424
    118  CG       -52.1420   20.1810  -21.1950 C.2   122  ASP122      0.3668
    119  OD1      -51.6230   19.3070  -20.4700 O.co2 122  ASP122     -0.2456
    120  OD2      -53.2350   20.0160  -21.7760 O.co2 122  ASP122     -0.2456
    121  N        -53.6170   22.2840  -18.9600 N.am  123  LEU123     -0.1979
    122  CA       -54.9900   22.6510  -18.6340 C.3   123  LEU123      0.1596
    123  C        -55.0190   23.6840  -17.5170 C.2   123  LEU123      0.2287
    124  O        -55.9160   23.6770  -16.6760 O.2   123  LEU123     -0.2864
    125  CB       -55.7930   21.4160  -18.2220 C.3   123  LEU123      0.0297
    126  CG       -55.8040   20.2640  -19.2250 C.3   123  LEU123      0.0022
    127  CD1      -56.6340   19.1070  -18.6910 C.3   123  LEU123      0.0001
    128  CD2      -56.3220   20.7270  -20.5720 C.3   123  LEU123      0.0001
    129  N        -46.8150   18.0390  -18.2210 N.3   149  SER149     -0.1202
    130  CA       -47.8530   17.8510  -19.2160 C.3   149  SER149      0.2020
    131  C        -47.4080   16.7600  -20.1770 C.2   149  SER149      0.2619
    132  O        -46.5990   17.0050  -21.0660 O.2   149  SER149     -0.2717
    133  CB       -48.1200   19.1410  -19.9870 C.3   149  SER149      0.2103
    134  OG       -48.9780   18.8910  -21.0900 O.3   149  SER149     -0.2182
    135  N        -47.9280   15.5530  -19.9870 N.am  150  ALA150     -0.1965
    136  CA       -47.6090   14.4440  -20.8750 C.3   150  ALA150      0.1728
    137  C        -48.0190   14.7700  -22.3080 C.2   150  ALA150      0.2616
    138  O        -47.3660   14.3480  -23.2650 O.2   150  ALA150     -0.2715
    139  CB       -48.2890   13.1690  -20.3990 C.3   150  ALA150      0.0334
    140  N        -49.0980   15.5350  -22.4460 N.am  151  LEU151     -0.1977
    141  CA       -49.6030   15.9300  -23.7560 C.3   151  LEU151      0.1596
    142  C        -48.6300   16.8490  -24.4880 C.2   151  LEU151      0.2287
    143  O        -48.2550   16.5860  -25.6320 O.2   151  LEU151     -0.2864
    144  CB       -50.9700   16.6080  -23.6220 C.3   151  LEU151      0.0297
    145  CG       -51.5750   17.2080  -24.8950 C.3   151  LEU151      0.0022
    146  CD1      -51.7330   16.1490  -25.9790 C.3   151  LEU151      0.0001
    147  CD2      -52.9050   17.8710  -24.5920 C.3   151  LEU151      0.0001
@<TRIPOS>BOND
     1    80    78   ar
     2    70    69    1
     3    78    79   ar
     4    78    77    1
     5    69    71    1
     6    69    68    1
     7    77    76    1
     8    48    47    2
     9    68    65    1
    10    62    61    2
    11    45    46    1
    12    64    65    1
    13    64    58   am
    14    47    46    1
    15    47    56   am
    16    76    73    1
    17    65    66    1
    18    46    49    1
    19    57    56    1
    20    57    58    1
    21    57    60    1
    22    49    50    1
    23    61    60    1
    24    61    63   am
    25    72    66   am
    26    72    73    1
    27   146   145    1
    28    66    67    2
    29    58    59    2
    30    52    50   ar
    31    52    54   ar
    32   143   142    2
    33    73    74    1
    34    50    51   ar
    35   145   147    1
    36   145   144    1
    37    54    55   ar
    38   142   141    1
    39    74    75    2
    40    74    81   am
    41    51    53   ar
    42   141   144    1
    43   141   140    1
    44    81    82    1
    45    84    83    2
    46    55    53   ar
    47    43    42    2
    48   138   137    2
    49    83    82    1
    50    83    87   am
    51   140   137   am
    52    82    85    1
    53   137   136    1
    54    42    44   am
    55    42    41    1
    56    88    89    1
    57    88    87    1
    58    88    91    1
    59    85    86    1
    60    89    90    2
    61   120   118   ar
    62   117   118    1
    63   117   114    1
    64    40    39    2
    65    41    38    1
    66   118   119   ar
    67   134   133    1
    68   132   131    2
    69   136   139    1
    70   136   135    1
    71    91    92    1
    72    38    39    1
    73    38    37    1
    74   116   115    2
    75   128   126    1
    76    34    33    2
    77   131   135   am
    78   131   130    1
    79   114   115    1
    80   114   113    1
    81    36    35    1
    82   133   130    1
    83   115   121   am
    84    37    33   am
    85    33    32    1
    86    92    93    1
    87    35    32    1
    88   126   127    1
    89   126   125    1
    90   130   129    1
    91   121   122    1
    92    32    31    1
    93   122   125    1
    94   122   123    1
    95    93    94    1
    96   123   124    2
    97    31    24   am
    98   112   111    1
    99   105   108    1
   100   105   106    1
   101   105   104    1
   102    21    20    2
   103   111   110    1
   104   110   109    1
   105   109   108    1
   106    94    95    1
   107   106   107    2
   108   102   101    2
   109   103   101   am
   110    25    24    2
   111    19    20    1
   112    19    18    1
   113    24    23    1
   114    20    22   am
   115   104    98   am
   116   101   100    1
   117    10     9    2
   118    22    23    1
   119    18    13   am
   120    23    26    1
   121     8     9    1
   122     8     7    1
   123     9    11   am
   124    14    13    2
   125    98    97    1
   126    98    99    2
   127    13    12    1
   128   100    97    1
   129     7     3   am
   130    97    96    1
   131    26    27    1
   132    11    12    1
   133    12    15    1
   134     3     4    2
   135     3     2    1
   136    27    28    1
   137     5     6    1
   138     5     2    1
   139     2     1    1
   140    15    17    1
   141    15    16    1
   142    29    30    1
   143    29    28    1
