@<TRIPOS>MOLECULE
tmp/4ojlC00.pdb
 82 76 0 0 0
SMALL
GASTEIGER

@<TRIPOS>ATOM
      1  N         49.1530  197.3480   53.4530 N.3   565  PHE565     -0.1241
      2  CA        48.6760  198.4000   54.3410 C.3   565  PHE565      0.1605
      3  C         48.3730  199.7210   53.6330 C.2   565  PHE565      0.2264
      4  O         47.3850  200.3920   53.9560 O.2   565  PHE565     -0.2867
      5  CB        49.6760  198.6800   55.4650 C.3   565  PHE565      0.0534
      6  CG        49.2600  199.8200   56.3650 C.ar  565  PHE565     -0.0203
      7  CD1       49.6800  201.1230   56.1050 C.ar  565  PHE565     -0.0042
      8  CD2       48.4470  199.5850   57.4780 C.ar  565  PHE565     -0.0042
      9  CE1       49.3030  202.1800   56.9290 C.ar  565  PHE565     -0.0003
     10  CE2       48.0500  200.6440   58.3200 C.ar  565  PHE565     -0.0003
     11  CZ        48.4800  201.9400   58.0400 C.ar  565  PHE565     -0.0000
     12  N         46.5510  188.8260   59.6460 N.3   602  THR602     -0.1203
     13  CA        46.4540  190.2510   59.9220 C.3   602  THR602      0.1994
     14  C         45.5230  191.0970   59.0420 C.2   602  THR602      0.2617
     15  O         44.6550  191.8080   59.5480 O.2   602  THR602     -0.2717
     16  CB        47.8520  190.8570   59.8710 C.3   602  THR602      0.1784
     17  OG1       48.7130  190.0850   60.7150 O.3   602  THR602     -0.2211
     18  CG2       47.8290  192.3140   60.3430 C.3   602  THR602      0.0376
     19  N         45.6810  190.9950   57.7310 N.am  603  ASN603     -0.1974
     20  CA        44.8980  191.8060   56.8120 C.3   603  ASN603      0.1688
     21  C         43.9060  191.0460   55.9470 C.2   603  ASN603      0.2292
     22  O         43.4950  191.5510   54.9020 O.2   603  ASN603     -0.2864
     23  CB        45.8590  192.5760   55.8930 C.3   603  ASN603      0.1181
     24  CG        46.7370  193.5580   56.6510 C.2   603  ASN603      0.2629
     25  OD1       46.2420  194.5050   57.2440 O.2   603  ASN603     -0.2716
     26  ND2       48.0440  193.3370   56.6250 N.am  603  ASN603     -0.0877
     27  N         40.7410  190.4910   56.3160 N.3   605  ALA605     -0.1231
     28  CA        39.4470  191.1570   56.1740 C.3   605  ALA605      0.1694
     29  C         39.5730  192.2830   55.1480 C.2   605  ALA605      0.2591
     30  O         38.7530  192.4010   54.2480 O.2   605  ALA605     -0.2718
     31  CB        38.9300  191.6900   57.5220 C.3   605  ALA605      0.0304
     32  N         40.6060  193.1040   55.2940 N.am  606  LYS606     -0.1980
     33  CA        40.8540  194.2090   54.3760 C.3   606  LYS606      0.1596
     34  C         41.0080  193.7380   52.9240 C.2   606  LYS606      0.2287
     35  O         40.4010  194.3020   52.0210 O.2   606  LYS606     -0.2864
     36  CB        42.1030  194.9730   54.8180 C.3   606  LYS606      0.0298
     37  CG        42.6110  196.0110   53.8220 C.3   606  LYS606      0.0038
     38  CD        43.9330  196.6110   54.3180 C.3   606  LYS606      0.0206
     39  CE        44.5100  197.6390   53.3480 C.3   606  LYS606      0.1093
     40  NZ        44.0000  198.9930   53.6410 N.3   606  LYS606     -0.1314
     41  N         37.7590  192.5950   51.5050 N.3   609  GLN609     -0.1245
     42  CA        36.8590  193.7290   51.2310 C.3   609  GLN609      0.1566
     43  C         37.2710  194.4090   49.9370 C.2   609  GLN609      0.2260
     44  O         36.4330  194.7430   49.1110 O.2   609  GLN609     -0.2867
     45  CB        36.8750  194.7640   52.3580 C.3   609  GLN609      0.0367
     46  CG        36.2380  194.2970   53.6520 C.3   609  GLN609      0.0905
     47  CD        36.7270  195.0860   54.8700 C.2   609  GLN609      0.2608
     48  OE1       37.4920  196.0490   54.7370 O.2   609  GLN609     -0.2717
     49  NE2       36.2890  194.6760   56.0650 N.am  609  GLN609     -0.0878
     50  N         41.6300  190.0640   65.8270 N.3   629  THR629     -0.1203
     51  CA        41.6940  190.2330   64.3760 C.3   629  THR629      0.1994
     52  C         40.3690  189.9290   63.7080 C.2   629  THR629      0.2617
     53  O         39.7380  188.9260   64.0100 O.2   629  THR629     -0.2717
     54  CB        42.7820  189.2960   63.7850 C.3   629  THR629      0.1784
     55  OG1       44.0300  189.5410   64.4510 O.3   629  THR629     -0.2211
     56  CG2       42.9670  189.5190   62.3040 C.3   629  THR629      0.0376
     57  N         39.9720  190.7840   62.7730 N.am  630  GLU630     -0.1979
     58  CA        38.7060  190.6040   62.0680 C.3   630  GLU630      0.1602
     59  C         38.7470  189.5060   61.0250 C.2   630  GLU630      0.2287
     60  O         39.7430  189.3430   60.3170 O.2   630  GLU630     -0.2864
     61  CB        38.2700  191.8990   61.3740 C.3   630  GLU630      0.0415
     62  CG        36.8500  191.8090   60.7760 C.3   630  GLU630      0.1163
     63  CD        36.4640  193.0040   59.9040 C.2   630  GLU630      0.3649
     64  OE1       37.2360  193.9880   59.8260 O.co2 630  GLU630     -0.2457
     65  OE2       35.3750  192.9480   59.2880 O.co2 630  GLU630     -0.2457
     66  N         37.3730  188.6810   65.4110 N.3   651  LEU651     -0.1245
     67  CA        36.3190  189.7060   65.3920 C.3   651  LEU651      0.1561
     68  C         35.3660  189.6210   64.2040 C.2   651  LEU651      0.2260
     69  O         35.7670  189.3400   63.0640 O.2   651  LEU651     -0.2867
     70  CB        36.9350  191.1140   65.4400 C.3   651  LEU651      0.0270
     71  CG        37.9670  191.3880   66.5490 C.3   651  LEU651      0.0019
     72  CD1       38.5360  192.8030   66.4690 C.3   651  LEU651      0.0001
     73  CD2       37.3480  191.1490   67.9170 C.3   651  LEU651      0.0001
     74  N         32.8350  192.0660   62.4390 N.3   653  LYS653     -0.1245
     75  CA        32.4240  193.4580   62.3910 C.3   653  LYS653      0.1561
     76  C         31.4240  193.7530   61.2990 C.2   653  LYS653      0.2260
     77  O         31.0180  194.9010   61.1400 O.2   653  LYS653     -0.2867
     78  CB        33.6440  194.3650   62.1890 C.3   653  LYS653      0.0271
     79  CG        34.7760  194.2200   63.2150 C.3   653  LYS653      0.0035
     80  CD        35.6180  195.4990   63.2060 C.3   653  LYS653      0.0206
     81  CE        36.9500  195.2960   63.8870 C.3   653  LYS653      0.1093
     82  NZ        37.8740  196.4310   63.6470 N.3   653  LYS653     -0.1314
@<TRIPOS>BOND
     1    44    43    2
     2    43    42    1
     3    42    41    1
     4    42    45    1
     5    35    34    2
     6    45    46    1
     7    34    33    1
     8    39    40    1
     9    39    38    1
    10     1     2    1
    11     3     4    2
    12     3     2    1
    13    46    47    1
    14    37    38    1
    15    37    36    1
    16    30    29    2
    17     2     5    1
    18    33    36    1
    19    33    32    1
    20    48    47    2
    21    47    49   am
    22    22    21    2
    23    29    32   am
    24    29    28    1
    25     5     6    1
    26    23    24    1
    27    23    20    1
    28    21    20    1
    29     7     6   ar
    30     7     9   ar
    31    28    27    1
    32    28    31    1
    33     6     8   ar
    34    26    24   am
    35    24    25    2
    36    20    19    1
    37     9    11   ar
    38     8    10   ar
    39    19    14   am
    40    11    10   ar
    41    14    15    2
    42    14    13    1
    43    65    63   ar
    44    12    13    1
    45    64    63   ar
    46    16    13    1
    47    16    18    1
    48    16    17    1
    49    63    62    1
    50    60    59    2
    51    62    61    1
    52    59    58    1
    53    77    76    2
    54    76    75    1
    55    61    58    1
    56    58    57    1
    57    78    75    1
    58    78    79    1
    59    56    54    1
    60    75    74    1
    61    57    52   am
    62    69    68    2
    63    80    79    1
    64    80    81    1
    65    82    81    1
    66    52    53    2
    67    52    51    1
    68    54    51    1
    69    54    55    1
    70    68    67    1
    71    51    50    1
    72    67    66    1
    73    67    70    1
    74    70    71    1
    75    72    71    1
    76    71    73    1
