@<TRIPOS>MOLECULE
tmp/4ojmA00.pdb
 126 115 0 0 0
SMALL
GASTEIGER

@<TRIPOS>ATOM
      1  N         22.1200   24.2460   13.2340 N.3    68  TYR68      -0.1241
      2  CA        23.3800   24.5060   12.5560 C.3    68  TYR68       0.1605
      3  C         24.0470   23.2630   11.9920 C.2    68  TYR68       0.2264
      4  O         23.8200   22.1230   12.4400 O.2    68  TYR68      -0.2867
      5  CB        24.3870   25.2810   13.4430 C.3    68  TYR68       0.0534
      6  CG        25.3860   24.4660   14.2630 C.ar   68  TYR68      -0.0201
      7  CD1       25.0170   23.8610   15.4740 C.ar   68  TYR68      -0.0009
      8  CD2       26.7230   24.3600   13.8720 C.ar   68  TYR68      -0.0009
      9  CE1       25.9350   23.1460   16.2370 C.ar   68  TYR68       0.0417
     10  CE2       27.6490   23.6580   14.6400 C.ar   68  TYR68       0.0417
     11  CZ        27.2470   23.0480   15.8170 C.ar   68  TYR68       0.1957
     12  OH        28.1690   22.3610   16.5730 O.3    68  TYR68      -0.2866
     13  N         28.1650   22.4220   10.9040 N.3    70  GLY70      -0.1210
     14  CA        29.5310   22.8690   10.9320 C.3    70  GLY70       0.1956
     15  C         30.2650   22.3560    9.7100 C.2    70  GLY70       0.2612
     16  O         30.0730   21.2180    9.3020 O.2    70  GLY70      -0.2717
     17  N         31.1110   23.2030    9.1350 N.am   71  ILE71      -0.1965
     18  CA        31.9800   22.8020    8.0430 C.3    71  ILE71       0.1727
     19  C         33.4180   23.2320    8.3220 C.2    71  ILE71       0.2616
     20  O         33.6780   24.4180    8.5330 O.2    71  ILE71      -0.2715
     21  CB        31.5110   23.4090    6.7180 C.3    71  ILE71       0.0290
     22  CG1       30.0770   22.9370    6.4110 C.3    71  ILE71       0.0022
     23  CG2       32.4690   23.0080    5.6020 C.3    71  ILE71       0.0023
     24  CD1       29.4990   23.4680    5.1180 C.3    71  ILE71       0.0001
     25  N         34.3440   22.2730    8.3070 N.am   72  ASP72      -0.1971
     26  CA        35.7710   22.5740    8.4900 C.3    72  ASP72       0.1709
     27  C         36.3760   22.9630    7.1400 C.2    72  ASP72       0.2293
     28  O         36.3330   22.1620    6.2050 O.2    72  ASP72      -0.2864
     29  CB        36.5400   21.3740    9.0640 C.3    72  ASP72       0.1436
     30  CG        36.6320   21.3880   10.5970 C.2    72  ASP72       0.3671
     31  OD1       35.9560   22.2040   11.2540 O.co2  72  ASP72      -0.2456
     32  OD2       37.3800   20.5570   11.1550 O.co2  72  ASP72      -0.2456
     33  N         28.2280   27.0440   10.3450 N.3   102  LEU102     -0.1245
     34  CA        29.3950   27.4150   11.1320 C.3   102  LEU102      0.1561
     35  C         30.6800   26.9660   10.4230 C.2   102  LEU102      0.2260
     36  O         30.8400   25.7820   10.0970 O.2   102  LEU102     -0.2867
     37  CB        29.3200   26.7750   12.5260 C.3   102  LEU102      0.0270
     38  CG        30.4970   26.9740   13.4860 C.3   102  LEU102      0.0019
     39  CD1       30.5780   28.4010   13.9840 C.3   102  LEU102      0.0001
     40  CD2       30.3750   26.0640   14.7020 C.3   102  LEU102      0.0001
     41  N         34.4890   26.1360   10.6470 N.3   104  GLY104     -0.1225
     42  CA        35.4240   25.6820   11.6660 C.3   104  GLY104      0.1811
     43  C         36.8270   26.2250   11.4420 C.2   104  GLY104      0.2280
     44  O         37.7800   25.4580   11.2730 O.2   104  GLY104     -0.2866
     45  N         39.0510   25.0370   14.3160 N.3   107  THR107     -0.1218
     46  CA        38.9720   23.5980   14.5250 C.3   107  THR107      0.1862
     47  C         39.5190   22.8040   13.3140 C.2   107  THR107      0.2287
     48  O         39.9830   21.6700   13.4740 O.2   107  THR107     -0.2866
     49  CB        37.5230   23.2150   14.9410 C.3   107  THR107      0.1770
     50  OG1       37.4780   21.8940   15.4910 O.3   107  THR107     -0.2211
     51  CG2       36.5760   23.3280   13.8000 C.3   107  THR107      0.0375
     52  N         39.3360   16.9830   12.3010 N.3   112  ASP112     -0.1239
     53  CA        38.4240   15.9500   12.8020 C.3   112  ASP112      0.1674
     54  C         39.0590   14.5790   12.5510 C.2   112  ASP112      0.2266
     55  O         39.3070   14.2300   11.3910 O.2   112  ASP112     -0.2867
     56  CB        37.0620   16.0440   12.0880 C.3   112  ASP112      0.1410
     57  CG        35.9930   15.1270   12.7000 C.2   112  ASP112      0.3668
     58  OD1       36.3350   14.2610   13.5330 O.co2 112  ASP112     -0.2456
     59  OD2       34.8050   15.2740   12.3450 O.co2 112  ASP112     -0.2456
     60  N         33.9490   29.8340   13.9910 N.3   160  ASN160     -0.1240
     61  CA        34.2390   29.5630   15.4100 C.3   160  ASN160      0.1653
     62  C         35.5350   30.1890   15.9020 C.2   160  ASN160      0.2266
     63  O         35.7850   30.2290   17.1120 O.2   160  ASN160     -0.2867
     64  CB        34.1720   28.0700   15.7430 C.3   160  ASN160      0.1155
     65  CG        35.2800   27.2660   15.1050 C.2   160  ASN160      0.2627
     66  OD1       36.2300   27.8090   14.5370 O.2   160  ASN160     -0.2716
     67  ND2       35.1490   25.9440   15.1870 N.am  160  ASN160     -0.0877
     68  N         39.2060   17.5250   19.8880 N.3   208  TYR208     -0.1241
     69  CA        38.3600   18.0490   18.8060 C.3   208  TYR208      0.1605
     70  C         36.8450   18.0080   19.1010 C.2   208  TYR208      0.2264
     71  O         36.1730   19.0230   18.9780 O.2   208  TYR208     -0.2867
     72  CB        38.6830   17.3280   17.4800 C.3   208  TYR208      0.0534
     73  CG        37.9450   17.8790   16.2790 C.ar  208  TYR208     -0.0201
     74  CD1       36.6280   17.4940   15.9960 C.ar  208  TYR208     -0.0009
     75  CD2       38.5530   18.8010   15.4310 C.ar  208  TYR208     -0.0009
     76  CE1       35.9480   18.0120   14.9010 C.ar  208  TYR208      0.0417
     77  CE2       37.8830   19.3190   14.3300 C.ar  208  TYR208      0.0417
     78  CZ        36.5860   18.9240   14.0720 C.ar  208  TYR208      0.1957
     79  OH        35.9260   19.4430   12.9840 O.3   208  TYR208     -0.2866
     80  N         34.1350   21.1400   19.3920 N.3   212  GLN212     -0.1245
     81  CA        32.9290   21.1540   18.5750 C.3   212  GLN212      0.1566
     82  C         31.6900   21.2630   19.4790 C.2   212  GLN212      0.2260
     83  O         30.7100   21.9130   19.1240 O.2   212  GLN212     -0.2867
     84  CB        32.8950   19.9110   17.6700 C.3   212  GLN212      0.0367
     85  CG        31.6010   19.7310   16.8790 C.3   212  GLN212      0.0905
     86  CD        31.7090   18.7280   15.7280 C.2   212  GLN212      0.2608
     87  OE1       32.8100   18.3250   15.3320 O.2   212  GLN212     -0.2717
     88  NE2       30.5520   18.3230   15.1820 N.am  212  GLN212     -0.0878
     89  N         31.5330   24.8740   20.6150 N.3   215  ASP215     -0.1239
     90  CA        30.9450   25.5930   19.4840 C.3   215  ASP215      0.1674
     91  C         29.4140   25.6200   19.6030 C.2   215  ASP215      0.2266
     92  O         28.7900   26.6860   19.5520 O.2   215  ASP215     -0.2867
     93  CB        31.3110   24.9340   18.1530 C.3   215  ASP215      0.1410
     94  CG        32.7470   25.1670   17.7360 C.2   215  ASP215      0.3668
     95  OD1       33.5130   25.8860   18.4190 O.co2 215  ASP215     -0.2456
     96  OD2       33.0980   24.6190   16.6820 O.co2 215  ASP215     -0.2456
     97  N         21.8990   20.4210   16.1180 N.3   228  GLN228     -0.1245
     98  CA        23.0130   20.2460   15.1930 C.3   228  GLN228      0.1566
     99  C         22.6200   19.1700   14.1800 C.2   228  GLN228      0.2260
    100  O         22.1260   18.0930   14.5510 O.2   228  GLN228     -0.2867
    101  CB        24.3180   19.8460   15.8840 C.3   228  GLN228      0.0367
    102  CG        25.4900   19.8970   14.9170 C.3   228  GLN228      0.0905
    103  CD        26.8580   19.5200   15.4630 C.2   228  GLN228      0.2608
    104  OE1       27.7880   19.3180   14.6690 O.2   228  GLN228     -0.2717
    105  NE2       27.0050   19.4270   16.7850 N.am  228  GLN228     -0.0878
    106  N         27.0820   15.5590    9.1570 N.3   231  GLY231     -0.1225
    107  CA        27.4070   14.5780    8.1530 C.3   231  GLY231      0.1811
    108  C         27.2840   13.1610    8.6770 C.2   231  GLY231      0.2280
    109  O         27.2250   12.9020    9.9020 O.2   231  GLY231     -0.2866
    110  N         29.1390   10.7560    9.1950 N.3   233  ASP233     -0.1225
    111  CA        30.1300   10.2730   10.1620 C.3   233  ASP233      0.1805
    112  C         30.1850   11.0630   11.4760 C.2   233  ASP233      0.2597
    113  O         31.0790   10.8260   12.2890 O.2   233  ASP233     -0.2718
    114  CB        31.5280   10.2650    9.5250 C.3   233  ASP233      0.1424
    115  CG        32.0000   11.6570    9.1020 C.2   233  ASP233      0.3668
    116  OD1       31.2560   12.6510    9.2520 O.co2 233  ASP233     -0.2456
    117  OD2       33.1280   11.7570    8.5890 O.co2 233  ASP233     -0.2456
    118  N         29.2280   11.9640   11.7050 N.am  234  GLN234     -0.1979
    119  CA        29.2930   12.8910   12.8410 C.3   234  GLN234      0.1601
    120  C         28.5020   12.4830   14.0840 C.2   234  GLN234      0.2287
    121  O         28.4010   13.2690   15.0290 O.2   234  GLN234     -0.2864
    122  CB        28.8090   14.2800   12.3860 C.3   234  GLN234      0.0394
    123  CG        29.7480   14.9530   11.4090 C.3   234  GLN234      0.0908
    124  CD        31.1010   15.2220   12.0370 C.2   234  GLN234      0.2608
    125  OE1       31.2040   15.9590   13.0210 O.2   234  GLN234     -0.2717
    126  NE2       32.1430   14.6210   11.4800 N.am  234  GLN234     -0.0878
@<TRIPOS>BOND
     1    24    22    1
     2    23    21    1
     3    28    27    2
     4    22    21    1
     5    21    18    1
     6    27    26    1
     7    18    19    1
     8    18    17    1
     9   107   108    1
    10   107   106    1
    11    25    19   am
    12    25    26    1
    13    19    20    2
    14    26    29    1
    15   117   115   ar
    16   108   109    2
    17    29    30    1
    18   115   116   ar
    19   115   114    1
    20    17    15   am
    21   110   111    1
    22    16    15    2
    23   114   111    1
    24    15    14    1
    25    36    35    2
    26   111   112    1
    27    33    34    1
    28    35    34    1
    29    30    32   ar
    30    30    31   ar
    31    41    42    1
    32    13    14    1
    33    34    37    1
    34    44    43    2
    35    55    54    2
    36   123   124    1
    37   123   122    1
    38    43    42    1
    39   112   118   am
    40   112   113    2
    41   126   124   am
    42   118   119    1
    43     3     4    2
    44     3     2    1
    45   124   125    2
    46    56    57    1
    47    56    53    1
    48    52    53    1
    49    59    57   ar
    50   122   119    1
    51    37    38    1
    52    54    53    1
    53     2     1    1
    54     2     5    1
    55    57    58   ar
    56   119   120    1
    57    79    78    1
    58    47    48    2
    59    47    46    1
    60     5     6    1
    61    38    39    1
    62    38    40    1
    63    51    49    1
    64     8     6   ar
    65     8    10   ar
    66    60    61    1
    67    78    77   ar
    68    78    76   ar
    69   120   121    2
    70    99   100    2
    71    99    98    1
    72     6     7   ar
    73    45    46    1
    74    77    75   ar
    75    46    49    1
    76    66    65    2
    77    10    11   ar
    78   104   103    2
    79    76    74   ar
    80   102   103    1
    81   102   101    1
    82    49    50    1
    83    65    67   am
    84    65    64    1
    85    88    86   am
    86    98   101    1
    87    98    97    1
    88    87    86    2
    89    61    64    1
    90    61    62    1
    91    75    73   ar
    92   103   105   am
    93     7     9   ar
    94    86    85    1
    95    11     9   ar
    96    11    12    1
    97    62    63    2
    98    74    73   ar
    99    73    72    1
   100    96    94   ar
   101    85    84    1
   102    72    69    1
   103    84    81    1
   104    94    93    1
   105    94    95   ar
   106    93    90    1
   107    81    80    1
   108    81    82    1
   109    69    70    1
   110    69    68    1
   111    71    70    2
   112    83    82    2
   113    90    91    1
   114    90    89    1
   115    92    91    2
