@<TRIPOS>MOLECULE
tmp/4ojnD00.pdb
 101 92 0 0 0
SMALL
GASTEIGER

@<TRIPOS>ATOM
      1  N         80.3860    7.9820   -2.6630 N.3    30  VAL30      -0.1245
      2  CA        79.8300    8.2500   -4.0040 C.3    30  VAL30       0.1561
      3  C         80.2650    7.1900   -5.0180 C.2    30  VAL30       0.2260
      4  O         79.4440    6.6280   -5.7460 O.2    30  VAL30      -0.2867
      5  CB        80.2490    9.6380   -4.5220 C.3    30  VAL30       0.0252
      6  CG1       79.8460    9.8050   -5.9850 C.3    30  VAL30       0.0019
      7  CG2       79.6350   10.7360   -3.6560 C.3    30  VAL30       0.0019
      8  N         85.0680    9.9240   -9.4810 N.3    94  THR94      -0.1218
      9  CA        84.4350   10.4430   -8.2720 C.3    94  THR94       0.1862
     10  C         85.4650   11.0310   -7.3030 C.2    94  THR94       0.2287
     11  O         85.0850   11.7570   -6.4060 O.2    94  THR94      -0.2866
     12  CB        83.5910    9.3550   -7.5660 C.3    94  THR94       0.1770
     13  OG1       84.4430    8.3750   -6.9660 O.3    94  THR94      -0.2211
     14  CG2       82.6780    8.6680   -8.5660 C.3    94  THR94       0.0375
     15  N         88.1880   13.3430   -5.5850 N.3    96  GLY96      -0.1210
     16  CA        88.5750   14.7330   -5.5110 C.3    96  GLY96       0.1956
     17  C         89.0840   15.1150   -4.1370 C.2    96  GLY96       0.2612
     18  O         89.0360   14.3220   -3.2110 O.2    96  GLY96      -0.2717
     19  N         89.5440   16.3480   -4.0110 N.am   97  ALA97      -0.1965
     20  CA        90.0510   16.8580   -2.7670 C.3    97  ALA97       0.1728
     21  C         88.8880   17.4130   -1.9520 C.2    97  ALA97       0.2616
     22  O         87.8910   17.8500   -2.5100 O.2    97  ALA97      -0.2715
     23  CB        91.0890   17.9340   -3.0380 C.3    97  ALA97       0.0334
     24  N         89.0180   17.3510   -0.6260 N.am   98  ARG98      -0.1977
     25  CA        88.0430   17.9300    0.3060 C.3    98  ARG98       0.1597
     26  C         88.4590   19.3630    0.6010 C.2    98  ARG98       0.2287
     27  O         89.6200   19.6210    0.9350 O.2    98  ARG98      -0.2864
     28  CB        88.0240   17.1530    1.6250 C.3    98  ARG98       0.0334
     29  CG        87.7380   15.6630    1.4950 C.3    98  ARG98       0.0492
     30  CD        86.2500   15.3540    1.5940 C.3    98  ARG98       0.2205
     31  NE        85.6940   15.6620    2.9180 N.pl3  98  ARG98      -0.0865
     32  CZ        85.6610   14.8280    3.9600 C.cat  98  ARG98       0.5346
     33  NH1       86.1520   13.5920    3.8700 N.pl3  98  ARG98       0.1354
     34  NH2       85.1280   15.2390    5.1100 N.pl3  98  ARG98       0.1354
     35  N         82.1010   13.1080  -12.0820 N.3   135  VAL135     -0.1231
     36  CA        81.1310   13.3400  -11.0200 C.3   135  VAL135      0.1692
     37  C         81.6490   14.2980   -9.9320 C.2   135  VAL135      0.2593
     38  O         80.8620   14.9370   -9.2300 O.2   135  VAL135     -0.2718
     39  CB        80.7710   12.0040  -10.3250 C.3   135  VAL135      0.0266
     40  CG1       79.5720   12.1740   -9.4040 C.3   135  VAL135      0.0020
     41  CG2       80.5030   10.9320  -11.3590 C.3   135  VAL135      0.0020
     42  N         82.9720   14.3480   -9.7880 N.am  136  SER136     -0.1938
     43  CA        83.6670   15.1220   -8.7630 C.3   136  SER136      0.2055
     44  C         83.2180   16.5660   -8.6640 C.2   136  SER136      0.2643
     45  O         83.1410   17.2260   -9.6620 O.2   136  SER136     -0.2714
     46  CB        85.1460   15.1330   -9.1030 C.3   136  SER136      0.2130
     47  OG        85.6380   13.8200   -9.2450 O.3   136  SER136     -0.2179
     48  N         82.9490   17.0670   -7.4610 N.am  137  ASN137     -0.1971
     49  CA        82.6940   18.5040   -7.2700 C.3   137  ASN137      0.1688
     50  C         83.9670   19.3400   -7.3020 C.2   137  ASN137      0.2292
     51  O         85.0130   18.8760   -6.8820 O.2   137  ASN137     -0.2864
     52  CB        82.0230   18.7770   -5.9380 C.3   137  ASN137      0.1181
     53  CG        80.7700   17.9650   -5.7490 C.2   137  ASN137      0.2629
     54  OD1       79.8450   18.0250   -6.5620 O.2   137  ASN137     -0.2716
     55  ND2       80.7350   17.1910   -4.6590 N.am  137  ASN137     -0.0877
     56  N         71.1750   14.6830  -11.5570 N.3   164  LEU164     -0.1245
     57  CA        70.4750   14.3330  -10.3170 C.3   164  LEU164      0.1561
     58  C         69.5500   15.4650   -9.9210 C.2   164  LEU164      0.2260
     59  O         68.4270   15.2290   -9.5220 O.2   164  LEU164     -0.2867
     60  CB        71.4520   13.9940   -9.1940 C.3   164  LEU164      0.0270
     61  CG        70.8710   13.7750   -7.7810 C.3   164  LEU164      0.0019
     62  CD1       69.8350   12.6600   -7.7150 C.3   164  LEU164      0.0001
     63  CD2       71.9800   13.5220   -6.7620 C.3   164  LEU164      0.0001
     64  N         75.6620   23.2910  -12.2420 N.3   192  HIS192     -0.1241
     65  CA        75.2670   22.4510  -11.1120 C.3   192  HIS192      0.1621
     66  C         75.5640   23.2070   -9.7980 C.2   192  HIS192      0.2264
     67  O         76.7230   23.4290   -9.4750 O.2   192  HIS192     -0.2867
     68  CB        76.0370   21.1400  -11.1460 C.3   192  HIS192      0.0745
     69  CG        75.7820   20.2600   -9.9660 C.ar  192  HIS192      0.0817
     70  ND1       74.5200   19.8310   -9.6160 N.ar  192  HIS192     -0.2268
     71  CD2       76.6290   19.7210   -9.0590 C.ar  192  HIS192      0.1154
     72  CE1       74.6030   19.0580   -8.5500 C.ar  192  HIS192      0.1986
     73  NE2       75.8720   18.9720   -8.1960 N.ar  192  HIS192     -0.2212
     74  N         71.2610   18.2850   -1.3530 N.3   237  ALA237     -0.1245
     75  CA        72.4850   17.6040   -0.9620 C.3   237  ALA237      0.1562
     76  C         72.9790   18.1180    0.3880 C.2   237  ALA237      0.2260
     77  O         73.3910   17.3260    1.2450 O.2   237  ALA237     -0.2867
     78  CB        73.5650   17.7690   -2.0200 C.3   237  ALA237      0.0290
     79  N         73.4280   15.8840    3.6820 N.3   241  ILE241     -0.1245
     80  CA        74.7380   15.8610    4.3410 C.3   241  ILE241      0.1561
     81  C         74.6250   16.2150    5.8210 C.2   241  ILE241      0.2260
     82  O         75.1870   15.5240    6.6660 O.2   241  ILE241     -0.2867
     83  CB        75.7520   16.7990    3.6530 C.3   241  ILE241      0.0252
     84  CG1       76.2010   16.1970    2.3300 C.3   241  ILE241      0.0019
     85  CG2       76.9890   17.0200    4.5350 C.3   241  ILE241      0.0019
     86  CD1       77.0140   17.1340    1.4690 C.3   241  ILE241      0.0001
     87  N         76.1100   12.1310    1.0400 N.3   247  THR247     -0.1218
     88  CA        75.1170   11.6030    0.1130 C.3   247  THR247      0.1862
     89  C         75.7430   10.4640   -0.6720 C.2   247  THR247      0.2287
     90  O         76.9760   10.3530   -0.7240 O.2   247  THR247     -0.2866
     91  CB        74.6790   12.6590   -0.8940 C.3   247  THR247      0.1770
     92  OG1       75.7970   12.9890   -1.7410 O.3   247  THR247     -0.2211
     93  CG2       74.1600   13.8960   -0.1910 C.3   247  THR247      0.0375
     94  N         72.8800    9.8350   -6.1770 N.3   251  ILE251     -0.1245
     95  CA        73.9350   10.0730   -7.1580 C.3   251  ILE251      0.1561
     96  C         74.3940    8.7510   -7.7830 C.2   251  ILE251      0.2260
     97  O         74.6280    8.6750   -8.9860 O.2   251  ILE251     -0.2867
     98  CB        75.1180   10.9230   -6.5820 C.3   251  ILE251      0.0252
     99  CG1       76.1270   11.2730   -7.6950 C.3   251  ILE251      0.0019
    100  CG2       75.8350   10.2170   -5.4390 C.3   251  ILE251      0.0019
    101  CD1       75.5900   12.2120   -8.7760 C.3   251  ILE251      0.0001
@<TRIPOS>BOND
     1    64    65    1
     2    35    36    1
     3    56    57    1
     4    41    39    1
     5    68    65    1
     6    68    69    1
     7    65    66    1
     8    36    39    1
     9    36    37    1
    10    39    40    1
    11    57    58    1
    12    57    60    1
    13    69    70   ar
    14    69    71   ar
    15    37    42   am
    16    37    38    2
    17    58    59    2
    18    66    67    2
    19    42    43    1
    20    45    44    2
    21    70    72   ar
    22     8     9    1
    23    47    46    1
    24    60    61    1
    25    46    43    1
    26    71    73   ar
    27    97    96    2
    28   101    99    1
    29    43    44    1
    30    44    48   am
    31    14    12    1
    32    72    73   ar
    33     9    12    1
    34     9    10    1
    35    96    95    1
    36    61    62    1
    37    61    63    1
    38    99    98    1
    39    12    13    1
    40    48    49    1
    41    10    11    2
    42    50    49    1
    43    50    51    2
    44    49    52    1
    45    95    98    1
    46    95    94    1
    47    98   100    1
    48    54    53    2
    49     6     5    1
    50    52    53    1
    51    53    55   am
    52     4     3    2
    53    15    16    1
    54    16    17    1
    55     3     2    1
    56     5     2    1
    57     5     7    1
    58    17    19   am
    59    17    18    2
    60    19    20    1
    61     2     1    1
    62    23    20    1
    63    20    21    1
    64    22    21    2
    65    78    75    1
    66    21    24   am
    67    92    91    1
    68    74    75    1
    69    75    76    1
    70    91    93    1
    71    91    88    1
    72    90    89    2
    73    89    88    1
    74    24    25    1
    75    88    87    1
    76    25    26    1
    77    25    28    1
    78    76    77    2
    79    26    27    2
    80    86    84    1
    81    29    30    1
    82    29    28    1
    83    30    31    1
    84    84    83    1
    85    31    32    2
    86    83    80    1
    87    83    85    1
    88    79    80    1
    89    33    32    1
    90    32    34    1
    91    80    81    1
    92    81    82    2
