@<TRIPOS>MOLECULE
tmp/4ojpC00.pdb
 96 94 0 0 0
SMALL
GASTEIGER

@<TRIPOS>ATOM
      1  N         72.6670  221.0360   42.0330 N.3   294  ASP294     -0.1239
      2  CA        71.6160  220.4180   42.8270 C.3   294  ASP294      0.1674
      3  C         70.3550  221.2610   42.9940 C.2   294  ASP294      0.2266
      4  O         69.3280  220.7490   43.4200 O.2   294  ASP294     -0.2867
      5  CB        72.1560  220.0340   44.2010 C.3   294  ASP294      0.1410
      6  CG        73.3250  219.0920   44.1190 C.2   294  ASP294      0.3668
      7  OD1       73.3390  218.2370   43.2080 O.co2 294  ASP294     -0.2456
      8  OD2       74.2390  219.1990   44.9650 O.co2 294  ASP294     -0.2456
      9  N         66.8980  223.3050   42.3370 N.3   296  TYR296     -0.1241
     10  CA        65.7080  223.1920   41.5050 C.3   296  TYR296      0.1605
     11  C         64.6400  224.0260   42.2020 C.2   296  TYR296      0.2264
     12  O         64.5230  224.0050   43.4240 O.2   296  TYR296     -0.2867
     13  CB        65.2810  221.7240   41.2960 C.3   296  TYR296      0.0534
     14  CG        64.8260  221.0380   42.5590 C.ar  296  TYR296     -0.0201
     15  CD1       65.7150  220.2790   43.3220 C.ar  296  TYR296     -0.0009
     16  CD2       63.5040  221.1560   43.0020 C.ar  296  TYR296     -0.0009
     17  CE1       65.2950  219.6590   44.5020 C.ar  296  TYR296      0.0417
     18  CE2       63.0830  220.5480   44.1760 C.ar  296  TYR296      0.0417
     19  CZ        63.9730  219.8030   44.9160 C.ar  296  TYR296      0.1957
     20  OH        63.5420  219.1940   46.0720 O.3   296  TYR296     -0.2866
     21  N         58.4780  218.2470   42.8780 N.3   390  ASP390     -0.1239
     22  CA        57.6120  219.3950   43.1390 C.3   390  ASP390      0.1674
     23  C         56.6320  219.6550   41.9960 C.2   390  ASP390      0.2266
     24  O         56.2960  218.7440   41.2590 O.2   390  ASP390     -0.2867
     25  CB        58.4740  220.6330   43.4380 C.3   390  ASP390      0.1410
     26  CG        57.9570  221.4420   44.6090 C.2   390  ASP390      0.3668
     27  OD1       57.0440  222.2740   44.4040 O.co2 390  ASP390     -0.2456
     28  OD2       58.4800  221.2560   45.7300 O.co2 390  ASP390     -0.2456
     29  N         70.7340  209.7990   43.7110 N.3   416  VAL416     -0.1231
     30  CA        71.2280  211.1070   44.1170 C.3   416  VAL416      0.1692
     31  C         70.1100  212.0680   44.5350 C.2   416  VAL416      0.2592
     32  O         70.2080  212.7270   45.5670 O.2   416  VAL416     -0.2718
     33  CB        72.0550  211.7170   42.9750 C.3   416  VAL416      0.0266
     34  CG1       72.7200  213.0130   43.4100 C.3   416  VAL416      0.0020
     35  CG2       73.0730  210.7010   42.4990 C.3   416  VAL416      0.0020
     36  N         69.0590  212.1630   43.7210 N.am  417  TYR417     -0.1962
     37  CA        67.9300  213.0260   44.0340 C.3   417  TYR417      0.1771
     38  C         66.7790  212.0580   44.2970 C.2   417  TYR417      0.2619
     39  O         66.3070  211.3720   43.3850 O.2   417  TYR417     -0.2715
     40  CB        67.6410  213.9900   42.8880 C.3   417  TYR417      0.0574
     41  CG        68.8580  214.7650   42.4520 C.ar  417  TYR417     -0.0198
     42  CD1       69.2500  215.9250   43.1130 C.ar  417  TYR417     -0.0009
     43  CD2       69.6310  214.3270   41.3800 C.ar  417  TYR417     -0.0009
     44  CE1       70.3820  216.6350   42.7120 C.ar  417  TYR417      0.0417
     45  CE2       70.7550  215.0200   40.9770 C.ar  417  TYR417      0.0417
     46  CZ        71.1280  216.1690   41.6410 C.ar  417  TYR417      0.1957
     47  OH        72.2440  216.8440   41.2170 O.3   417  TYR417     -0.2866
     48  N         66.3420  211.9950   45.5530 N.am  418  LYS418     -0.1964
     49  CA        65.3370  211.0230   45.9550 C.3   418  LYS418      0.1713
     50  C         64.5750  211.5050   47.1780 C.2   418  LYS418      0.2458
     51  O         65.0860  212.3210   47.9490 O.2   418  LYS418     -0.2730
     52  CB        66.0780  209.7370   46.3450 C.3   418  LYS418      0.0311
     53  CG        67.1440  210.0210   47.4490 C.3   418  LYS418      0.0038
     54  CD        67.8460  208.7970   47.9800 C.3   418  LYS418      0.0206
     55  CE        68.3820  209.0240   49.4180 C.3   418  LYS418      0.1093
     56  NZ        67.3140  208.9880   50.5020 N.3   418  LYS418     -0.1314
     57  N         63.3510  210.9930   47.3830 N.am  419  PRO419     -0.2716
     58  CA        62.6460  211.4320   48.5930 C.3   419  PRO419      0.1536
     59  C         63.2790  210.8020   49.8360 C.2   419  PRO419      0.2598
     60  O         63.9280  209.7600   49.7310 O.2   419  PRO419     -0.2715
     61  CB        61.2320  210.8850   48.3890 C.3   419  PRO419      0.0310
     62  CG        61.4280  209.6440   47.5650 C.3   419  PRO419      0.0237
     63  CD        62.5860  209.9870   46.6220 C.3   419  PRO419      0.0939
     64  N         63.0840  211.4370   50.9910 N.am  420  ALA420     -0.1964
     65  CA        63.6150  210.9530   52.2720 C.3   420  ALA420      0.1728
     66  C         63.2190  209.4980   52.5700 C.2   420  ALA420      0.2616
     67  O         64.0390  208.7090   53.0370 O.2   420  ALA420     -0.2715
     68  CB        63.1700  211.8710   53.4010 C.3   420  ALA420      0.0334
     69  N         61.9660  209.1450   52.2860 N.am  421  GLY421     -0.1955
     70  CA        61.4920  207.7880   52.5000 C.3   421  GLY421      0.1869
     71  C         62.1770  206.7220   51.6460 C.2   421  GLY421      0.2309
     72  O         62.0330  205.5250   51.9200 O.2   421  GLY421     -0.2863
     73  N         58.7570  212.8540   43.3510 N.3   433  PHE433     -0.1227
     74  CA        58.3850  213.1850   44.7200 C.3   433  PHE433      0.1736
     75  C         58.0610  214.6540   44.9100 C.2   433  PHE433      0.2595
     76  O         58.0920  215.4330   43.9540 O.2   433  PHE433     -0.2718
     77  CB        59.4420  212.7210   45.7330 C.3   433  PHE433      0.0547
     78  CG        60.8030  213.3660   45.5710 C.ar  433  PHE433     -0.0202
     79  CD1       61.6770  212.9580   44.5710 C.ar  433  PHE433     -0.0042
     80  CD2       61.2380  214.3310   46.4790 C.ar  433  PHE433     -0.0042
     81  CE1       62.9590  213.5280   44.4740 C.ar  433  PHE433     -0.0003
     82  CE2       62.5020  214.9060   46.3760 C.ar  433  PHE433     -0.0003
     83  CZ        63.3580  214.5050   45.3750 C.ar  433  PHE433     -0.0000
     84  N         57.7360  215.0040   46.1540 N.am  434  ALA434     -0.1980
     85  CA        57.3680  216.3650   46.5670 C.3   434  ALA434      0.1597
     86  C         56.1030  216.9100   45.8980 C.2   434  ALA434      0.2287
     87  O         55.9780  218.1140   45.6820 O.2   434  ALA434     -0.2864
     88  CB        58.5470  217.3490   46.4040 C.3   434  ALA434      0.0319
     89  N         54.6180  214.9920   51.2750 N.3   458  ASP458     -0.1239
     90  CA        54.7010  214.7190   52.7150 C.3   458  ASP458      0.1674
     91  C         53.4760  215.1030   53.5370 C.2   458  ASP458      0.2266
     92  O         53.0080  214.3490   54.3870 O.2   458  ASP458     -0.2867
     93  CB        55.8890  215.4660   53.3160 C.3   458  ASP458      0.1410
     94  CG        57.1970  214.7760   53.0730 C.2   458  ASP458      0.3668
     95  OD1       57.1990  213.6430   52.5340 O.co2 458  ASP458     -0.2456
     96  OD2       58.2350  215.3710   53.4430 O.co2 458  ASP458     -0.2456
@<TRIPOS>BOND
     1    45    43   ar
     2    45    46   ar
     3    47    46    1
     4    24    23    2
     5    13    10    1
     6    13    14    1
     7    43    41   ar
     8    10    11    1
     9    10     9    1
    10    46    44   ar
    11    23    22    1
    12     1     2    1
    13    11    12    2
    14    41    40    1
    15    41    42   ar
    16    35    33    1
    17    14    16   ar
    18    14    15   ar
    19    44    42   ar
    20     2     3    1
    21     2     5    1
    22    21    22    1
    23    40    37    1
    24    33    34    1
    25    33    30    1
    26     3     4    2
    27    16    18   ar
    28    22    25    1
    29     7     6   ar
    30    15    17   ar
    31    73    74    1
    32    39    38    2
    33    25    26    1
    34    29    30    1
    35    36    37    1
    36    36    31   am
    37    76    75    2
    38    37    38    1
    39    30    31    1
    40     6     5    1
    41     6     8   ar
    42    18    19   ar
    43    38    48   am
    44    27    26   ar
    45    81    79   ar
    46    81    83   ar
    47    17    19   ar
    48    31    32    2
    49    79    78   ar
    50    26    28   ar
    51    74    75    1
    52    74    77    1
    53    75    84   am
    54    19    20    1
    55    83    82   ar
    56    48    49    1
    57    78    77    1
    58    78    80   ar
    59    87    86    2
    60    86    85    1
    61    49    52    1
    62    49    50    1
    63    84    85    1
    64    52    53    1
    65    82    80   ar
    66    88    85    1
    67    63    57    1
    68    63    62    1
    69    50    57   am
    70    50    51    2
    71    57    58    1
    72    53    54    1
    73    62    61    1
    74    54    55    1
    75    61    58    1
    76    58    59    1
    77    55    56    1
    78    60    59    2
    79    59    64   am
    80    64    65    1
    81    89    90    1
    82    71    72    2
    83    71    70    1
    84    65    66    1
    85    65    68    1
    86    69    70    1
    87    69    66   am
    88    95    94   ar
    89    66    67    2
    90    90    93    1
    91    90    91    1
    92    94    93    1
    93    94    96   ar
    94    91    92    2
