@<TRIPOS>MOLECULE
tmp/4ojvA00.pdb
 108 106 0 0 0
SMALL
GASTEIGER

@<TRIPOS>ATOM
      1  N         -8.1770  -21.2990  -25.7870 N.3    12  ASN12      -0.1240
      2  CA        -8.9290  -21.4860  -27.0240 C.3    12  ASN12       0.1653
      3  C         -9.3490  -22.9470  -27.1760 C.2    12  ASN12       0.2266
      4  O         -8.5100  -23.8390  -27.0780 O.2    12  ASN12      -0.2867
      5  CB        -8.0130  -21.0440  -28.1660 C.3    12  ASN12       0.1155
      6  CG        -8.5730  -21.3040  -29.5440 C.2    12  ASN12       0.2627
      7  OD1       -9.7680  -21.4580  -29.7420 O.2    12  ASN12      -0.2716
      8  ND2       -7.6790  -21.3570  -30.5140 N.am   12  ASN12      -0.0877
      9  N         -9.5190  -22.7920  -34.4530 N.3    16  THR16      -0.1218
     10  CA        -8.2470  -22.1140  -34.7370 C.3    16  THR16       0.1862
     11  C         -7.1830  -22.7440  -33.8290 C.2    16  THR16       0.2287
     12  O         -7.4820  -23.2180  -32.7210 O.2    16  THR16      -0.2866
     13  CB        -8.2880  -20.5790  -34.6030 C.3    16  THR16       0.1770
     14  OG1       -8.3640  -20.2160  -33.2220 O.3    16  THR16      -0.2211
     15  CG2       -9.4560  -19.9750  -35.3830 C.3    16  THR16       0.0375
     16  N         -8.0710   -9.4560  -28.0030 N.3    60  PRO60      -0.2102
     17  CA        -8.5660   -9.9500  -29.2970 C.3    60  PRO60       0.1504
     18  C         -9.9450  -10.6010  -29.2040 C.2    60  PRO60       0.2576
     19  O        -10.2580  -11.2360  -28.1840 O.2    60  PRO60      -0.2718
     20  CB        -7.5210  -10.9950  -29.6980 C.3    60  PRO60       0.0282
     21  CG        -6.2810  -10.5660  -28.9840 C.3    60  PRO60       0.0208
     22  CD        -6.7530  -10.0260  -27.6660 C.3    60  PRO60       0.0893
     23  N        -10.7570  -10.4180  -30.2500 N.am   61  SER61      -0.1938
     24  CA       -12.0930  -11.0010  -30.3140 C.3    61  SER61       0.2055
     25  C        -12.3920  -11.5490  -31.7100 C.2    61  SER61       0.2643
     26  O        -12.5350  -12.7610  -31.8830 O.2    61  SER61      -0.2714
     27  CB       -13.1440   -9.9640  -29.8980 C.3    61  SER61       0.2130
     28  OG       -14.4490  -10.4630  -30.0830 O.3    61  SER61      -0.2179
     29  N        -12.4920  -10.6480  -32.6930 N.am   62  PHE62      -0.1959
     30  CA       -12.7000  -10.9640  -34.1210 C.3    62  PHE62       0.1771
     31  C        -14.1590  -11.1940  -34.5230 C.2    62  PHE62       0.2619
     32  O        -14.4430  -11.7500  -35.5870 O.2    62  PHE62      -0.2715
     33  CB       -11.7640  -12.0870  -34.6090 C.3    62  PHE62       0.0574
     34  CG       -10.3120  -11.8180  -34.3200 C.ar   62  PHE62      -0.0200
     35  CD1       -9.6590  -10.7280  -34.8930 C.ar   62  PHE62      -0.0042
     36  CD2       -9.6040  -12.6340  -33.4490 C.ar   62  PHE62      -0.0042
     37  CE1       -8.3230  -10.4680  -34.6130 C.ar   62  PHE62      -0.0003
     38  CE2       -8.2630  -12.3930  -33.1790 C.ar   62  PHE62      -0.0003
     39  CZ        -7.6240  -11.3080  -33.7590 C.ar   62  PHE62      -0.0000
     40  N        -15.0810  -10.7260  -33.6860 N.am   63  TYR63      -0.1974
     41  CA       -16.5010  -10.8400  -33.9840 C.3    63  TYR63       0.1639
     42  C        -17.0670   -9.4440  -34.2520 C.2    63  TYR63       0.2290
     43  O        -16.6660   -8.8070  -35.2210 O.2    63  TYR63      -0.2864
     44  CB       -17.2370  -11.6020  -32.8820 C.3    63  TYR63       0.0560
     45  CG       -16.7830  -13.0490  -32.7930 C.ar   63  TYR63      -0.0198
     46  CD1      -15.6250  -13.4090  -32.0900 C.ar   63  TYR63      -0.0009
     47  CD2      -17.5080  -14.0590  -33.4210 C.ar   63  TYR63      -0.0009
     48  CE1      -15.2000  -14.7290  -32.0130 C.ar   63  TYR63       0.0417
     49  CE2      -17.0880  -15.3890  -33.3560 C.ar   63  TYR63       0.0417
     50  CZ       -15.9330  -15.7130  -32.6480 C.ar   63  TYR63       0.1957
     51  OH       -15.5230  -17.0400  -32.5620 O.3    63  TYR63      -0.2866
     52  N        -13.3610  -22.1080  -24.7890 N.3   321  VAL321     -0.1231
     53  CA       -14.4710  -21.6790  -25.6340 C.3   321  VAL321      0.1692
     54  C        -14.0510  -21.8140  -27.0990 C.2   321  VAL321      0.2592
     55  O        -12.9640  -21.3860  -27.4930 O.2   321  VAL321     -0.2718
     56  CB       -14.9340  -20.2430  -25.3090 C.3   321  VAL321      0.0266
     57  CG1      -16.0290  -19.7930  -26.2700 C.3   321  VAL321      0.0020
     58  CG2      -15.4310  -20.1660  -23.8700 C.3   321  VAL321      0.0020
     59  N        -14.9210  -22.4240  -27.8950 N.am  322  LYS322     -0.1966
     60  CA       -14.6370  -22.6320  -29.3090 C.3   322  LYS322      0.1728
     61  C        -15.0290  -21.4250  -30.1480 C.2   322  LYS322      0.2616
     62  O        -15.9710  -20.6930  -29.8130 O.2   322  LYS322     -0.2715
     63  CB       -15.3850  -23.8700  -29.7980 C.3   322  LYS322      0.0311
     64  CG       -14.7950  -25.1600  -29.2470 C.3   322  LYS322      0.0038
     65  CD       -15.5220  -26.4020  -29.7470 C.3   322  LYS322      0.0206
     66  CE       -14.8890  -27.6990  -29.2510 C.3   322  LYS322      0.1093
     67  NZ       -13.5040  -27.9610  -29.7460 N.3   322  LYS322     -0.1314
     68  N        -14.3200  -21.2140  -31.2540 N.am  323  SER323     -0.1950
     69  CA       -14.8090  -20.2690  -32.2650 C.3   323  SER323      0.1924
     70  C        -16.0620  -20.8330  -32.9150 C.2   323  SER323      0.2314
     71  O        -16.3090  -22.0480  -32.9160 O.2   323  SER323     -0.2863
     72  CB       -13.7840  -20.0150  -33.3690 C.3   323  SER323      0.2116
     73  OG       -12.5960  -19.4680  -32.8680 O.3   323  SER323     -0.2180
     74  N        -19.1820  -12.7050  -30.3040 N.3   329  ASP329     -0.1225
     75  CA       -18.1440  -13.4930  -29.6470 C.3   329  ASP329      0.1790
     76  C        -18.8010  -14.4990  -28.6980 C.2   329  ASP329      0.2440
     77  O        -19.5230  -14.1090  -27.7760 O.2   329  ASP329     -0.2733
     78  CB       -17.2280  -12.5230  -28.8940 C.3   329  ASP329      0.1423
     79  CG       -15.9380  -13.1590  -28.3780 C.2   329  ASP329      0.3668
     80  OD1      -15.9530  -14.3070  -27.8810 O.co2 329  ASP329     -0.2456
     81  OD2      -14.9060  -12.4550  -28.4500 O.co2 329  ASP329     -0.2456
     82  N        -18.5660  -15.8100  -28.9190 N.am  330  PRO330     -0.2718
     83  CA       -19.2570  -16.7930  -28.0860 C.3   330  PRO330      0.1535
     84  C        -18.8390  -16.7320  -26.6250 C.2   330  PRO330      0.2598
     85  O        -19.5880  -17.1780  -25.7720 O.2   330  PRO330     -0.2715
     86  CB       -18.8520  -18.1350  -28.7070 C.3   330  PRO330      0.0310
     87  CG       -17.5750  -17.8530  -29.4140 C.3   330  PRO330      0.0237
     88  CD       -17.7290  -16.4550  -29.9460 C.3   330  PRO330      0.0939
     89  N        -17.6680  -16.1720  -26.3280 N.am  331  ARG331     -0.1978
     90  CA       -17.2830  -16.0100  -24.9300 C.3   331  ARG331      0.1597
     91  C        -18.2500  -15.0640  -24.2140 C.2   331  ARG331      0.2287
     92  O        -18.5830  -15.2810  -23.0490 O.2   331  ARG331     -0.2864
     93  CB       -15.8600  -15.4820  -24.8250 C.3   331  ARG331      0.0334
     94  CG       -14.8330  -16.4760  -25.3530 C.3   331  ARG331      0.0492
     95  CD       -13.4410  -15.8860  -25.4450 C.3   331  ARG331      0.2205
     96  NE       -13.3920  -14.7380  -26.3480 N.pl3 331  ARG331     -0.0865
     97  CZ       -12.3360  -13.9490  -26.4880 C.cat 331  ARG331      0.5346
     98  NH1      -11.2270  -14.1990  -25.7940 N.pl3 331  ARG331      0.1354
     99  NH2      -12.3900  -12.9110  -27.3140 N.pl3 331  ARG331      0.1354
    100  N         -6.2240  -15.3190  -22.4900 N.3   357  GLU357     -0.1245
    101  CA        -4.8160  -15.5280  -22.7650 C.3   357  GLU357      0.1567
    102  C         -4.0200  -14.2620  -22.5140 C.2   357  GLU357      0.2260
    103  O         -4.5270  -13.1460  -22.7050 O.2   357  GLU357     -0.2867
    104  CB        -4.6300  -15.9260  -24.2240 C.3   357  GLU357      0.0388
    105  CG        -5.2480  -17.2520  -24.5810 C.3   357  GLU357      0.1160
    106  CD        -6.7080  -17.2110  -24.9970 C.2   357  GLU357      0.3649
    107  OE1       -7.4570  -16.1740  -24.8460 O.co2 357  GLU357     -0.2457
    108  OE2       -7.0850  -18.2960  -25.4940 O.co2 357  GLU357     -0.2457
@<TRIPOS>BOND
     1    32    31    2
     2    15    13    1
     3    43    42    2
     4    35    37   ar
     5    35    34   ar
     6    10    13    1
     7    10     9    1
     8    10    11    1
     9    37    39   ar
    10    33    34    1
    11    33    30    1
    12    13    14    1
    13    31    30    1
    14    31    40   am
    15    34    36   ar
    16    42    41    1
    17    30    29    1
    18    41    40    1
    19    41    44    1
    20    11    12    2
    21    39    38   ar
    22    36    38   ar
    23    47    49   ar
    24    47    45   ar
    25    72    73    1
    26    72    69    1
    27    49    50   ar
    28    71    70    2
    29    70    69    1
    30    44    45    1
    31    45    46   ar
    32    29    25   am
    33    50    51    1
    34    50    48   ar
    35    69    68    1
    36    46    48   ar
    37    26    25    2
    38    25    24    1
    39    68    61   am
    40     8     6   am
    41    24    23    1
    42    24    27    1
    43    74    75    1
    44    23    18   am
    45    61    62    2
    46    61    60    1
    47    28    27    1
    48    88    87    1
    49    88    82    1
    50    63    60    1
    51    63    64    1
    52    65    66    1
    53    65    64    1
    54    67    66    1
    55     7     6    2
    56    20    17    1
    57    20    21    1
    58    75    78    1
    59    75    76    1
    60     6     5    1
    61    87    86    1
    62    60    59    1
    63    17    18    1
    64    17    16    1
    65    18    19    2
    66    21    22    1
    67    82    76   am
    68    82    83    1
    69    78    79    1
    70    86    83    1
    71    76    77    2
    72    81    79   ar
    73    79    80   ar
    74     5     2    1
    75    83    84    1
    76    16    22    1
    77    59    54   am
    78    55    54    2
    79    99    97    1
    80     3     4    2
    81     3     2    1
    82    54    53    1
    83     2     1    1
    84    84    89   am
    85    84    85    2
    86    97    96    2
    87    97    98    1
    88    96    95    1
    89    89    90    1
    90    57    56    1
    91    53    56    1
    92    53    52    1
    93   108   106   ar
    94    95    94    1
    95    94    93    1
    96    56    58    1
    97   106   107   ar
    98   106   105    1
    99    90    93    1
   100    90    91    1
   101   105   104    1
   102   104   101    1
   103    91    92    2
   104   101   102    1
   105   101   100    1
   106   103   102    2
