@<TRIPOS>MOLECULE
tmp/4ojxA01.pdb
 114 107 0 0 0
SMALL
GASTEIGER

@<TRIPOS>ATOM
      1  N        -10.6210  -23.1160  -27.4110 N.3    13  GLY13      -0.1225
      2  CA       -11.1010  -24.4770  -27.6230 C.3    13  GLY13       0.1811
      3  C        -10.9870  -24.9960  -29.0410 C.2    13  GLY13       0.2280
      4  O        -11.3240  -26.1510  -29.2910 O.2    13  GLY13      -0.2866
      5  N         -5.4720  -35.1960  -26.5780 N.3   124  HIS124     -0.1241
      6  CA        -5.9000  -34.5160  -27.8120 C.3   124  HIS124      0.1621
      7  C         -4.8930  -33.4710  -28.1880 C.2   124  HIS124      0.2264
      8  O         -4.3340  -32.7830  -27.3240 O.2   124  HIS124     -0.2867
      9  CB        -7.2600  -33.8630  -27.6540 C.3   124  HIS124      0.0745
     10  CG        -8.4160  -34.8150  -27.8080 C.ar  124  HIS124      0.0817
     11  ND1       -9.6620  -34.5200  -27.3540 N.ar  124  HIS124     -0.2268
     12  CD2       -8.4980  -36.0560  -28.4210 C.ar  124  HIS124      0.1154
     13  CE1      -10.4860  -35.5350  -27.6510 C.ar  124  HIS124      0.1986
     14  NE2       -9.7790  -36.4740  -28.3050 N.ar  124  HIS124     -0.2212
     15  N         -4.7010  -30.4910  -29.3400 N.3   126  ASP126     -0.1239
     16  CA        -4.7870  -29.1040  -28.8610 C.3   126  ASP126      0.1674
     17  C         -4.2580  -28.9310  -27.4400 C.2   126  ASP126      0.2266
     18  O         -3.9610  -27.8020  -27.0330 O.2   126  ASP126     -0.2867
     19  CB        -6.2040  -28.4820  -29.0120 C.3   126  ASP126      0.1410
     20  CG        -7.3040  -29.2820  -28.2970 C.2   126  ASP126      0.3668
     21  OD1       -7.3230  -30.5130  -28.5370 O.co2 126  ASP126     -0.2456
     22  OD2       -8.1540  -28.7120  -27.5100 O.co2 126  ASP126     -0.2456
     23  N        -15.1340  -37.5200  -21.6290 N.3   207  HIS207     -0.1241
     24  CA       -14.9320  -36.5200  -22.6770 C.3   207  HIS207      0.1621
     25  C        -15.3420  -37.0880  -24.0190 C.2   207  HIS207      0.2264
     26  O        -14.6270  -37.0060  -25.0130 O.2   207  HIS207     -0.2867
     27  CB       -13.4750  -36.0470  -22.6180 C.3   207  HIS207      0.0745
     28  CG       -13.0580  -35.0830  -23.7110 C.ar  207  HIS207      0.0817
     29  ND1      -13.8940  -34.1770  -24.2590 N.ar  207  HIS207     -0.2268
     30  CD2      -11.8250  -34.9030  -24.3340 C.ar  207  HIS207      0.1154
     31  CE1      -13.2380  -33.4800  -25.2060 C.ar  207  HIS207      0.1986
     32  NE2      -11.9690  -33.9080  -25.2370 N.ar  207  HIS207     -0.2212
     33  N        -16.9140  -39.8810  -26.9280 N.3   209  ILE209     -0.1245
     34  CA       -16.6650  -41.2400  -27.4020 C.3   209  ILE209      0.1561
     35  C        -15.9130  -41.2030  -28.7250 C.2   209  ILE209      0.2260
     36  O        -15.9910  -40.2170  -29.4690 O.2   209  ILE209     -0.2867
     37  CB       -17.9670  -42.0680  -27.5520 C.3   209  ILE209      0.0252
     38  CG1      -18.9360  -41.3900  -28.5310 C.3   209  ILE209      0.0019
     39  CG2      -18.6200  -42.3210  -26.1920 C.3   209  ILE209      0.0019
     40  CD1      -20.1060  -42.2540  -28.9620 C.3   209  ILE209      0.0001
     41  N        -15.0580  -41.6620  -32.5450 N.3   211  VAL211     -0.1245
     42  CA       -15.8610  -41.6350  -33.7630 C.3   211  VAL211      0.1561
     43  C        -15.9200  -43.0230  -34.3980 C.2   211  VAL211      0.2260
     44  O        -16.9990  -43.5060  -34.7430 O.2   211  VAL211     -0.2867
     45  CB       -15.2780  -40.6250  -34.7710 C.3   211  VAL211      0.0252
     46  CG1      -16.0890  -40.6180  -36.0630 C.3   211  VAL211      0.0019
     47  CG2      -15.2110  -39.2270  -34.1580 C.3   211  VAL211      0.0019
     48  N        -10.9820  -31.1160  -20.7910 N.3   238  ASP238     -0.1239
     49  CA       -12.2520  -31.1380  -21.5320 C.3   238  ASP238      0.1674
     50  C        -13.1570  -32.1930  -20.8750 C.2   238  ASP238      0.2266
     51  O        -12.6740  -33.2420  -20.4180 O.2   238  ASP238     -0.2867
     52  CB       -12.0660  -31.5230  -23.0300 C.3   238  ASP238      0.1410
     53  CG       -11.1000  -30.6000  -23.8370 C.2   238  ASP238      0.3668
     54  OD1      -10.6480  -29.6130  -23.1590 O.co2 238  ASP238     -0.2456
     55  OD2      -10.7870  -30.9250  -25.1040 O.co2 238  ASP238     -0.2456
     56  N        -22.6830  -31.2890  -33.3180 N.3   283  GLU283     -0.1231
     57  CA       -21.3300  -31.6810  -33.7400 C.3   283  GLU283      0.1699
     58  C        -20.2100  -31.0040  -32.9470 C.2   283  GLU283      0.2592
     59  O        -19.1980  -31.6390  -32.6320 O.2   283  GLU283     -0.2718
     60  CB       -21.1310  -31.4200  -35.2410 C.3   283  GLU283      0.0402
     61  CG       -21.9060  -32.3520  -36.1670 C.3   283  GLU283      0.1161
     62  CD       -23.3930  -32.0440  -36.2210 C.2   283  GLU283      0.3649
     63  OE1      -23.7630  -30.8490  -36.1890 O.co2 283  GLU283     -0.2457
     64  OE2      -24.1950  -32.9990  -36.2970 O.co2 283  GLU283     -0.2457
     65  N        -20.3920  -29.7230  -32.6320 N.am  284  GLN284     -0.1979
     66  CA       -19.3880  -28.9630  -31.8880 C.3   284  GLN284      0.1601
     67  C        -19.4320  -29.2600  -30.3850 C.2   284  GLN284      0.2287
     68  O        -18.4210  -29.1060  -29.6870 O.2   284  GLN284     -0.2864
     69  CB       -19.5390  -27.4580  -32.1440 C.3   284  GLN284      0.0394
     70  CG       -18.2200  -26.6970  -32.0700 C.3   284  GLN284      0.0908
     71  CD       -18.3730  -25.1850  -32.1490 C.2   284  GLN284      0.2608
     72  OE1      -19.3250  -24.6110  -31.6140 O.2   284  GLN284     -0.2717
     73  NE2      -17.4150  -24.5270  -32.8040 N.am  284  GLN284     -0.0878
     74  N        -20.2060  -32.3010  -28.8480 N.3   286  TYR286     -0.1241
     75  CA       -19.7830  -33.6560  -28.4680 C.3   286  TYR286      0.1605
     76  C        -18.5110  -33.7230  -27.6040 C.2   286  TYR286      0.2264
     77  O        -17.4340  -33.2820  -28.0140 O.2   286  TYR286     -0.2867
     78  CB       -19.6130  -34.5580  -29.6980 C.3   286  TYR286      0.0534
     79  CG       -20.8800  -34.8390  -30.4860 C.ar  286  TYR286     -0.0201
     80  CD1      -20.8490  -34.8950  -31.8810 C.ar  286  TYR286     -0.0009
     81  CD2      -22.1070  -35.0530  -29.8440 C.ar  286  TYR286     -0.0009
     82  CE1      -21.9970  -35.1550  -32.6140 C.ar  286  TYR286      0.0417
     83  CE2      -23.2620  -35.3120  -30.5710 C.ar  286  TYR286      0.0417
     84  CZ       -23.2000  -35.3620  -31.9530 C.ar  286  TYR286      0.1957
     85  OH       -24.3400  -35.6210  -32.6800 O.3   286  TYR286     -0.2866
     86  N        -18.2390  -32.2010  -24.6670 N.3   288  HIS288     -0.1241
     87  CA       -18.0310  -30.8920  -24.0440 C.3   288  HIS288      0.1621
     88  C        -19.2240  -30.4300  -23.2710 C.2   288  HIS288      0.2264
     89  O        -20.2620  -31.1100  -23.2360 O.2   288  HIS288     -0.2867
     90  CB       -17.6890  -29.8570  -25.1130 C.3   288  HIS288      0.0745
     91  CG       -16.3610  -30.0840  -25.7640 C.ar  288  HIS288      0.0817
     92  ND1      -15.2030  -30.0410  -25.0750 N.ar  288  HIS288     -0.2268
     93  CD2      -16.0310  -30.3690  -27.0760 C.ar  288  HIS288      0.1154
     94  CE1      -14.1870  -30.2870  -25.9090 C.ar  288  HIS288      0.1986
     95  NE2      -14.6960  -30.4890  -27.1350 N.ar  288  HIS288     -0.2212
     96  N        -11.6110  -22.8290  -22.7600 N.3   320  HIS320     -0.1241
     97  CA       -11.8400  -23.7060  -23.9100 C.3   320  HIS320      0.1621
     98  C        -13.0540  -23.3240  -24.7170 C.2   320  HIS320      0.2264
     99  O        -13.7090  -24.1750  -25.3090 O.2   320  HIS320     -0.2867
    100  CB       -11.9220  -25.1610  -23.4240 C.3   320  HIS320      0.0745
    101  CG       -11.5960  -26.1980  -24.4740 C.ar  320  HIS320      0.0817
    102  ND1      -12.5170  -26.6910  -25.3260 N.ar  320  HIS320     -0.2268
    103  CD2      -10.4170  -26.8900  -24.7330 C.ar  320  HIS320      0.1154
    104  CE1      -11.9540  -27.6200  -26.1090 C.ar  320  HIS320      0.1986
    105  NE2      -10.6710  -27.7400  -25.7500 N.ar  320  HIS320     -0.2212
    106  N        -14.9400  -22.3610  -27.8670 N.3   322  LYS322     -0.1245
    107  CA       -14.6640  -22.5600  -29.2820 C.3   322  LYS322      0.1561
    108  C        -15.0330  -21.3380  -30.1190 C.2   322  LYS322      0.2260
    109  O        -15.9750  -20.6030  -29.7890 O.2   322  LYS322     -0.2867
    110  CB       -15.4200  -23.7900  -29.7730 C.3   322  LYS322      0.0271
    111  CG       -14.7900  -25.0760  -29.2640 C.3   322  LYS322      0.0035
    112  CD       -15.5260  -26.3150  -29.7370 C.3   322  LYS322      0.0206
    113  CE       -14.8730  -27.5880  -29.2180 C.3   322  LYS322      0.1093
    114  NZ       -13.4940  -27.8280  -29.7470 N.3   322  LYS322     -0.1314
@<TRIPOS>BOND
     1    64    62   ar
     2    62    63   ar
     3    62    61    1
     4    61    60    1
     5    46    45    1
     6    60    57    1
     7    45    47    1
     8    45    42    1
     9    44    43    2
    10    43    42    1
    11    42    41    1
    12    57    56    1
    13    57    58    1
    14    58    59    2
    15    58    65   am
    16    73    71   am
    17    85    84    1
    18    65    66    1
    19    82    84   ar
    20    82    80   ar
    21    71    70    1
    22    71    72    2
    23    69    70    1
    24    69    66    1
    25    84    83   ar
    26    66    67    1
    27    80    79   ar
    28    83    81   ar
    29    79    81   ar
    30    79    78    1
    31    67    68    2
    32   108   109    2
    33   108   107    1
    34   110   107    1
    35   110   111    1
    36   114   113    1
    37   112   111    1
    38   112   113    1
    39    78    75    1
    40    36    35    2
    41    15    16    1
    42     4     3    2
    43   107   106    1
    44     3     2    1
    45    19    16    1
    46    19    20    1
    47    40    38    1
    48    16    17    1
    49    74    75    1
    50    35    34    1
    51    21    20   ar
    52    38    37    1
    53    75    76    1
    54    12    14   ar
    55    12    10   ar
    56    14    13   ar
    57    20    22   ar
    58     7     6    1
    59     7     8    2
    60    77    76    2
    61     6     9    1
    62     6     5    1
    63    10     9    1
    64    10    11   ar
    65    13    11   ar
    66     2     1    1
    67    37    34    1
    68    37    39    1
    69    17    18    2
    70    34    33    1
    71    95    93   ar
    72    95    94   ar
    73    93    91   ar
    74   104   105   ar
    75   104   102   ar
    76    94    92   ar
    77    91    90    1
    78    91    92   ar
    79   105   103   ar
    80   102   101   ar
    81    99    98    2
    82    32    31   ar
    83    32    30   ar
    84    31    29   ar
    85    90    87    1
    86    55    53   ar
    87    26    25    2
    88   103   101   ar
    89    98    97    1
    90    86    87    1
    91   101   100    1
    92    30    28   ar
    93    29    28   ar
    94    87    88    1
    95    25    24    1
    96    97   100    1
    97    97    96    1
    98    53    54   ar
    99    53    52    1
   100    28    27    1
   101    88    89    2
   102    52    49    1
   103    24    27    1
   104    24    23    1
   105    49    50    1
   106    49    48    1
   107    50    51    2
