@<TRIPOS>MOLECULE
tmp/4ojzA00.pdb
 226 221 0 0 0
SMALL
GASTEIGER

@<TRIPOS>ATOM
      1  N        -43.6260   25.7790   84.6670 N.3    57  HIS57      -0.1241
      2  CA       -42.8280   26.4910   85.6710 C.3    57  HIS57       0.1621
      3  C        -42.3990   27.8660   85.1550 C.2    57  HIS57       0.2264
      4  O        -42.6820   28.8900   85.7860 O.2    57  HIS57      -0.2867
      5  CB       -41.5930   25.6560   86.0290 C.3    57  HIS57       0.0745
      6  CG       -40.8110   26.1880   87.1870 C.ar   57  HIS57       0.0817
      7  ND1      -41.1230   25.8840   88.4960 N.ar   57  HIS57      -0.2268
      8  CD2      -39.7210   26.9920   87.2340 C.ar   57  HIS57       0.1154
      9  CE1      -40.2620   26.4850   89.3000 C.ar   57  HIS57       0.1986
     10  NE2      -39.4010   27.1630   88.5590 N.ar   57  HIS57      -0.2212
     11  N        -43.8520   31.8430   85.6660 N.3    61  LYS61      -0.1245
     12  CA       -42.8430   32.8540   85.9880 C.3    61  LYS61       0.1561
     13  C        -42.9450   34.0530   85.0470 C.2    61  LYS61       0.2260
     14  O        -42.9910   35.1990   85.5070 O.2    61  LYS61      -0.2867
     15  CB       -41.4320   32.2490   85.9780 C.3    61  LYS61       0.0271
     16  CG       -41.0610   31.5220   87.2660 C.3    61  LYS61       0.0035
     17  CD       -39.8350   30.6210   87.1120 C.3    61  LYS61       0.0206
     18  CE       -38.5660   31.4270   86.8540 C.3    61  LYS61       0.1093
     19  NZ       -37.3290   30.5880   86.8830 N.3    61  LYS61      -0.1314
     20  N        -42.5400   19.0600   94.9960 N.3   107  LYS107     -0.1245
     21  CA       -41.4250   18.8340   95.8980 C.3   107  LYS107      0.1561
     22  C        -41.9680   18.2070   97.1770 C.2   107  LYS107      0.2260
     23  O        -42.9580   18.6820   97.7310 O.2   107  LYS107     -0.2867
     24  CB       -40.7220   20.1530   96.2030 C.3   107  LYS107      0.0271
     25  CG       -39.4190   20.0200   96.9700 C.3   107  LYS107      0.0035
     26  CD       -38.6320   21.3160   96.8910 C.3   107  LYS107      0.0206
     27  CE       -37.9410   21.6380   98.2060 C.3   107  LYS107      0.1093
     28  NZ       -36.9070   20.6390   98.5670 N.3   107  LYS107     -0.1314
     29  N        -40.7980   18.0640  100.3110 N.3   109  GLN109     -0.1231
     30  CA       -40.6830   18.8250  101.5590 C.3   109  GLN109      0.1698
     31  C        -41.6740   19.9830  101.6850 C.2   109  GLN109      0.2592
     32  O        -42.2120   20.2260  102.7700 O.2   109  GLN109     -0.2718
     33  CB       -39.2480   19.3300  101.7650 C.3   109  GLN109      0.0381
     34  CG       -38.2170   18.2410  102.0470 C.3   109  GLN109      0.0905
     35  CD       -37.6320   17.6150  100.7860 C.2   109  GLN109      0.2608
     36  OE1      -37.9500   18.0160   99.6610 O.2   109  GLN109     -0.2717
     37  NE2      -36.7640   16.6230  100.9710 N.am  109  GLN109     -0.0878
     38  N        -41.9140   20.6940  100.5870 N.am  110  SER110     -0.1952
     39  CA       -42.7740   21.8810  100.6150 C.3   110  SER110      0.1924
     40  C        -43.4620   22.0830   99.2680 C.2   110  SER110      0.2314
     41  O        -43.0580   22.9500   98.4850 O.2   110  SER110     -0.2863
     42  CB       -41.9470   23.1140  100.9740 C.3   110  SER110      0.2116
     43  OG       -40.8930   23.2690  100.0420 O.3   110  SER110     -0.2180
     44  N        -44.1040   23.4750   91.4240 N.3   116  TRP116     -0.1227
     45  CA       -43.7180   22.2160   92.0640 C.3   116  TRP116      0.1737
     46  C        -43.4000   22.3820   93.5600 C.2   116  TRP116      0.2595
     47  O        -43.6000   21.4660   94.3570 O.2   116  TRP116     -0.2718
     48  CB       -42.5500   21.5770   91.3100 C.3   116  TRP116      0.0564
     49  CG       -41.2210   22.2290   91.5580 C.ar  116  TRP116      0.0003
     50  CD1      -40.8510   23.5030   91.2200 C.ar  116  TRP116      0.0946
     51  CD2      -40.0900   21.6400   92.1990 C.ar  116  TRP116      0.0152
     52  NE1      -39.5530   23.7400   91.6070 N.ar  116  TRP116     -0.2442
     53  CE2      -39.0630   22.6150   92.2170 C.ar  116  TRP116      0.0810
     54  CE3      -39.8400   20.3820   92.7630 C.ar  116  TRP116      0.0012
     55  CZ2      -37.8080   22.3700   92.7760 C.ar  116  TRP116      0.0191
     56  CZ3      -38.5870   20.1370   93.3160 C.ar  116  TRP116      0.0001
     57  CH2      -37.5870   21.1290   93.3190 C.ar  116  TRP116      0.0015
     58  N        -42.9170   23.5640   93.9320 N.am  117  GLN117     -0.1979
     59  CA       -42.6070   23.8770   95.3190 C.3   117  GLN117      0.1601
     60  C        -43.2670   25.2080   95.6830 C.2   117  GLN117      0.2287
     61  O        -43.4730   26.0650   94.8190 O.2   117  GLN117     -0.2864
     62  CB       -41.0870   23.9290   95.5380 C.3   117  GLN117      0.0394
     63  CG       -40.3720   25.0140   94.7420 C.3   117  GLN117      0.0908
     64  CD       -38.8830   25.0980   95.0260 C.2   117  GLN117      0.2608
     65  OE1      -38.3910   24.5650   96.0220 O.2   117  GLN117     -0.2717
     66  NE2      -38.1550   25.7920   94.1500 N.am  117  GLN117     -0.0878
     67  N        -42.1170   27.6610   97.3110 N.3   119  LEU119     -0.1231
     68  CA       -41.2170   28.8150   97.1890 C.3   119  LEU119      0.1693
     69  C        -41.5780   29.6970   95.9870 C.2   119  LEU119      0.2592
     70  O        -41.7690   30.9120   96.1370 O.2   119  LEU119     -0.2718
     71  CB       -39.7500   28.3700   97.1130 C.3   119  LEU119      0.0284
     72  CG       -38.6950   29.4620   96.9040 C.3   119  LEU119      0.0019
     73  CD1      -38.6510   30.4170   98.0940 C.3   119  LEU119      0.0001
     74  CD2      -37.3300   28.8300   96.6640 C.3   119  LEU119      0.0001
     75  N        -41.6740   29.0850   94.8040 N.am  120  ASN120     -0.1974
     76  CA       -41.9810   29.8220   93.5750 C.3   120  ASN120      0.1688
     77  C        -43.3950   30.4000   93.6050 C.2   120  ASN120      0.2292
     78  O        -43.6520   31.4630   93.0270 O.2   120  ASN120     -0.2864
     79  CB       -41.7690   28.9490   92.3330 C.3   120  ASN120      0.1181
     80  CG       -40.3570   28.4000   92.2430 C.2   120  ASN120      0.2629
     81  OD1      -40.1150   27.2260   92.5340 O.2   120  ASN120     -0.2716
     82  ND2      -39.4140   29.2540   91.8740 N.am  120  ASN120     -0.0877
     83  N        -41.4880   29.1150  109.5760 N.3   169  LYS169     -0.1245
     84  CA       -40.0710   28.7740  109.5000 C.3   169  LYS169      0.1561
     85  C        -39.2060   30.0230  109.6510 C.2   169  LYS169      0.2260
     86  O        -39.5000   31.0700  109.0700 O.2   169  LYS169     -0.2867
     87  CB       -39.7510   28.0700  108.1780 C.3   169  LYS169      0.0271
     88  CG       -38.6810   26.9940  108.2880 C.3   169  LYS169      0.0035
     89  CD       -38.3950   26.3540  106.9390 C.3   169  LYS169      0.0206
     90  CE       -37.2010   25.4160  107.0220 C.3   169  LYS169      0.1093
     91  NZ       -36.6430   25.1540  105.6670 N.3   169  LYS169     -0.1314
     92  N        -36.3230   31.0830  108.3180 N.3   171  HIS171     -0.1226
     93  CA       -35.5580   30.6700  107.1450 C.3   171  HIS171      0.1752
     94  C        -36.0380   31.5570  105.9930 C.2   171  HIS171      0.2596
     95  O        -37.1480   32.1020  106.0640 O.2   171  HIS171     -0.2718
     96  CB       -35.8650   29.1890  106.8590 C.3   171  HIS171      0.0759
     97  CG       -35.0620   28.5950  105.7430 C.ar  171  HIS171      0.0818
     98  ND1      -35.4890   28.6040  104.4320 N.ar  171  HIS171     -0.2268
     99  CD2      -33.8730   27.9440  105.7470 C.ar  171  HIS171      0.1154
    100  CE1      -34.5880   28.0010  103.6740 C.ar  171  HIS171      0.1986
    101  NE2      -33.5980   27.5920  104.4480 N.ar  171  HIS171     -0.2212
    102  N        -35.2360   31.7330  104.9400 N.am  172  ASN172     -0.1960
    103  CA       -35.6930   32.6160  103.8490 C.3   172  ASN172      0.1819
    104  C        -36.9250   32.1330  103.0730 C.2   172  ASN172      0.2621
    105  O        -37.6090   32.9380  102.4470 O.2   172  ASN172     -0.2715
    106  CB       -34.5650   33.1290  102.9200 C.3   172  ASN172      0.1195
    107  CG       -33.8390   32.0280  102.1620 C.2   172  ASN172      0.2630
    108  OD1      -34.3290   30.9060  102.0150 O.2   172  ASN172     -0.2716
    109  ND2      -32.6460   32.3640  101.6500 N.am  172  ASN172     -0.0877
    110  N        -37.2180   30.8330  103.1420 N.am  173  HIS173     -0.1973
    111  CA       -38.4800   30.3130  102.6060 C.3   173  HIS173      0.1656
    112  C        -39.6650   30.8280  103.4260 C.2   173  HIS173      0.2291
    113  O        -40.7530   31.0540  102.8890 O.2   173  HIS173     -0.2864
    114  CB       -38.4650   28.7850  102.5640 C.3   173  HIS173      0.0771
    115  CG       -37.5470   28.2250  101.5230 C.ar  173  HIS173      0.0820
    116  ND1      -37.7410   26.9880  100.9490 N.ar  173  HIS173     -0.2267
    117  CD2      -36.4410   28.7430  100.9350 C.ar  173  HIS173      0.1154
    118  CE1      -36.7880   26.7620  100.0630 C.ar  173  HIS173      0.1986
    119  NE2      -35.9850   27.8100  100.0370 N.ar  173  HIS173     -0.2212
    120  N        -25.0060   34.0640   98.3780 N.3   228  TYR228     -0.1227
    121  CA       -25.9960   33.5580   97.4280 C.3   228  TYR228      0.1736
    122  C        -27.3950   33.5250   98.0460 C.2   228  TYR228      0.2595
    123  O        -28.3670   33.9250   97.4040 O.2   228  TYR228     -0.2718
    124  CB       -25.5920   32.1790   96.8900 C.3   228  TYR228      0.0548
    125  CG       -26.5010   31.6390   95.8040 C.ar  228  TYR228     -0.0200
    126  CD1      -26.3560   32.0450   94.4700 C.ar  228  TYR228     -0.0009
    127  CD2      -27.4970   30.7070   96.1070 C.ar  228  TYR228     -0.0009
    128  CE1      -27.1890   31.5420   93.4750 C.ar  228  TYR228      0.0417
    129  CE2      -28.3310   30.2020   95.1180 C.ar  228  TYR228      0.0417
    130  CZ       -28.1710   30.6210   93.8080 C.ar  228  TYR228      0.1957
    131  OH       -29.0130   30.1180   92.8370 O.3   228  TYR228     -0.2866
    132  N        -27.4820   33.0510   99.2850 N.am  229  ALA229     -0.1980
    133  CA       -28.7300   33.0710  100.0460 C.3   229  ALA229      0.1597
    134  C        -29.0870   34.4820  100.4950 C.2   229  ALA229      0.2287
    135  O        -30.2640   34.8570  100.4950 O.2   229  ALA229     -0.2864
    136  CB       -28.6390   32.1490  101.2440 C.3   229  ALA229      0.0319
    137  N        -28.5820   37.4810   99.0630 N.3   231  ARG231     -0.1231
    138  CA       -29.2100   38.2840   98.0080 C.3   231  ARG231      0.1694
    139  C        -30.6260   37.8150   97.6860 C.2   231  ARG231      0.2592
    140  O        -31.4770   38.6250   97.3320 O.2   231  ARG231     -0.2718
    141  CB       -28.3390   38.3650   96.7340 C.3   231  ARG231      0.0321
    142  CG       -28.0990   37.0520   95.9820 C.3   231  ARG231      0.0489
    143  CD       -29.2740   36.6080   95.1110 C.3   231  ARG231      0.2205
    144  NE       -29.3060   35.1450   95.0070 N.pl3 231  ARG231     -0.0865
    145  CZ       -30.1400   34.4400   94.2430 C.cat 231  ARG231      0.5346
    146  NH1      -31.0480   35.0420   93.4850 N.pl3 231  ARG231      0.1354
    147  NH2      -30.0510   33.1160   94.2310 N.pl3 231  ARG231      0.1354
    148  N        -30.8720   36.5100   97.8200 N.am  232  TYR232     -0.1976
    149  CA       -32.1900   35.9510   97.5560 C.3   232  TYR232      0.1639
    150  C        -33.1690   36.3650   98.6540 C.2   232  TYR232      0.2290
    151  O        -34.2870   36.8060   98.3640 O.2   232  TYR232     -0.2864
    152  CB       -32.1140   34.4200   97.4220 C.3   232  TYR232      0.0560
    153  CG       -33.3830   33.7690   96.8860 C.ar  232  TYR232     -0.0198
    154  CD1      -34.0010   34.2430   95.7290 C.ar  232  TYR232     -0.0009
    155  CD2      -33.9410   32.6580   97.5230 C.ar  232  TYR232     -0.0009
    156  CE1      -35.1600   33.6500   95.2290 C.ar  232  TYR232      0.0417
    157  CE2      -35.0970   32.0550   97.0310 C.ar  232  TYR232      0.0417
    158  CZ       -35.6940   32.5510   95.8790 C.ar  232  TYR232      0.1957
    159  OH       -36.8360   31.9580   95.3790 O.3   232  TYR232     -0.2866
    160  N        -23.3020   26.9430   99.1950 N.3   282  ASP282     -0.1239
    161  CA       -24.1890   26.7940   98.0530 C.3   282  ASP282      0.1674
    162  C        -24.2340   28.1200   97.3060 C.2   282  ASP282      0.2266
    163  O        -24.6800   29.1310   97.8540 O.2   282  ASP282     -0.2867
    164  CB       -25.5880   26.4190   98.5300 C.3   282  ASP282      0.1410
    165  CG       -26.5790   26.3350   97.4010 C.2   282  ASP282      0.3668
    166  OD1      -26.4110   25.4290   96.5570 O.co2 282  ASP282     -0.2456
    167  OD2      -27.5210   27.1700   97.3590 O.co2 282  ASP282     -0.2456
    168  N        -26.9240   24.0250  103.4570 N.3   384  HIS384     -0.1241
    169  CA       -26.2800   24.7010  102.3340 C.3   384  HIS384      0.1621
    170  C        -24.7710   24.8810  102.5350 C.2   384  HIS384      0.2264
    171  O        -24.0710   25.3280  101.6240 O.2   384  HIS384     -0.2867
    172  CB       -26.9350   26.0650  102.0770 C.3   384  HIS384      0.0745
    173  CG       -28.3570   25.9780  101.6100 C.ar  384  HIS384      0.0817
    174  ND1      -28.7410   25.2240  100.5210 N.ar  384  HIS384     -0.2268
    175  CD2      -29.4870   26.5550  102.0840 C.ar  384  HIS384      0.1154
    176  CE1      -30.0460   25.3360  100.3480 C.ar  384  HIS384      0.1986
    177  NE2      -30.5230   26.1410  101.2820 N.ar  384  HIS384     -0.2212
    178  N        -25.0030   22.3210   90.1740 N.3   409  ARG409     -0.1245
    179  CA       -26.4020   22.6220   89.8840 C.3   409  ARG409      0.1563
    180  C        -26.4640   23.5330   88.6620 C.2   409  ARG409      0.2260
    181  O        -25.5980   24.3890   88.4710 O.2   409  ARG409     -0.2867
    182  CB       -27.0480   23.3080   91.0910 C.3   409  ARG409      0.0307
    183  CG       -28.4860   23.7630   90.8990 C.3   409  ARG409      0.0489
    184  CD       -28.9730   24.4920   92.1390 C.3   409  ARG409      0.2205
    185  NE       -30.3760   24.8770   92.0280 N.pl3 409  ARG409     -0.0865
    186  CZ       -30.9610   25.8010   92.7810 C.cat 409  ARG409      0.5346
    187  NH1      -30.2620   26.4590   93.7070 N.pl3 409  ARG409      0.1354
    188  NH2      -32.2460   26.0800   92.6000 N.pl3 409  ARG409      0.1354
    189  N        -29.1010   26.0830   87.1230 N.3   411  LEU411     -0.1231
    190  CA       -30.3310   26.7960   87.4830 C.3   411  LEU411      0.1693
    191  C        -31.3950   26.7100   86.4090 C.2   411  LEU411      0.2592
    192  O        -31.1680   27.1150   85.2670 O.2   411  LEU411     -0.2718
    193  CB       -30.0310   28.2710   87.7710 C.3   411  LEU411      0.0284
    194  CG       -31.1800   29.0710   88.3900 C.3   411  LEU411      0.0019
    195  CD1      -31.3810   28.7190   89.8550 C.3   411  LEU411      0.0001
    196  CD2      -30.8940   30.5500   88.2390 C.3   411  LEU411      0.0001
    197  N        -32.5570   26.1730   86.7850 N.am  412  ASN412     -0.1974
    198  CA       -33.7030   26.0700   85.8780 C.3   412  ASN412      0.1688
    199  C        -33.4160   25.3210   84.5730 C.2   412  ASN412      0.2292
    200  O        -34.0510   25.5760   83.5510 O.2   412  ASN412     -0.2864
    201  CB       -34.2720   27.4680   85.5730 C.3   412  ASN412      0.1181
    202  CG       -34.6720   28.2190   86.8220 C.2   412  ASN412      0.2629
    203  OD1      -34.4360   29.4300   86.9410 O.2   412  ASN412     -0.2716
    204  ND2      -35.2750   27.5100   87.7680 N.am  412  ASN412     -0.0877
    205  N        -32.3000   21.1840   90.0390 N.3   420  HIS420     -0.1226
    206  CA       -32.0510   20.9640   91.4590 C.3   420  HIS420      0.1752
    207  C        -30.5890   20.5500   91.6910 C.2   420  HIS420      0.2596
    208  O        -29.8150   20.4290   90.7310 O.2   420  HIS420     -0.2718
    209  CB       -33.0420   19.9330   92.0180 C.3   420  HIS420      0.0759
    210  CG       -33.2360   20.0150   93.5020 C.ar  420  HIS420      0.0818
    211  ND1      -33.7450   21.1340   94.1260 N.ar  420  HIS420     -0.2268
    212  CD2      -32.9970   19.1130   94.4840 C.ar  420  HIS420      0.1154
    213  CE1      -33.8080   20.9200   95.4290 C.ar  420  HIS420      0.1986
    214  NE2      -33.3620   19.7010   95.6720 N.ar  420  HIS420     -0.2212
    215  N        -30.2040   20.3640   92.9530 N.am  421  TYR421     -0.1976
    216  CA       -28.8350   19.9630   93.2880 C.3   421  TYR421      0.1639
    217  C        -28.5450   18.5710   92.7510 C.2   421  TYR421      0.2290
    218  O        -29.3210   17.6420   92.9680 O.2   421  TYR421     -0.2864
    219  CB       -28.5940   20.0020   94.7980 C.3   421  TYR421      0.0560
    220  CG       -29.0000   21.3090   95.4320 C.ar  421  TYR421     -0.0198
    221  CD1      -28.2120   22.4490   95.2910 C.ar  421  TYR421     -0.0009
    222  CD2      -30.1790   21.4050   96.1690 C.ar  421  TYR421     -0.0009
    223  CE1      -28.5870   23.6480   95.8730 C.ar  421  TYR421      0.0417
    224  CE2      -30.5610   22.6000   96.7510 C.ar  421  TYR421      0.0417
    225  CZ       -29.7600   23.7140   96.6010 C.ar  421  TYR421      0.1957
    226  OH       -30.1420   24.9030   97.1780 O.3   421  TYR421     -0.2866
@<TRIPOS>BOND
     1   200   199    2
     2   199   198    1
     3     1     2    1
     4    13    14    2
     5    13    12    1
     6     3     2    1
     7     3     4    2
     8   192   191    2
     9   201   198    1
    10   201   202    1
    11    11    12    1
    12     2     5    1
    13   198   197    1
    14    15    12    1
    15    15    16    1
    16     5     6    1
    17   191   197   am
    18   191   190    1
    19   202   203    2
    20   202   204   am
    21    18    19    1
    22    18    17    1
    23    17    16    1
    24   189   190    1
    25     6     8   ar
    26     6     7   ar
    27     8    10   ar
    28   190   193    1
    29   193   194    1
    30   196   194    1
    31   194   195    1
    32   181   180    2
    33     7     9   ar
    34    10     9   ar
    35   180   179    1
    36   179   178    1
    37   179   182    1
    38   205   206    1
    39   208   207    2
    40   183   182    1
    41   183   184    1
    42    50    49   ar
    43    50    52   ar
    44    48    49    1
    45    48    45    1
    46    44    45    1
    47   206   207    1
    48   206   209    1
    49    49    51   ar
    50    52    53   ar
    51   207   215   am
    52    82    80   am
    53   209   210    1
    54   185   184    1
    55   185   186    2
    56    45    46    1
    57    51    53   ar
    58    51    54   ar
    59    53    55   ar
    60    80    79    1
    61    80    81    2
    62    79    76    1
    63   188   186    1
    64   217   218    2
    65   217   216    1
    66    54    56   ar
    67    55    57   ar
    68   186   187    1
    69   131   130    1
    70   215   216    1
    71    78    77    2
    72   216   219    1
    73    56    57   ar
    74   128   130   ar
    75   128   126   ar
    76   146   145    1
    77   210   211   ar
    78   210   212   ar
    79    46    58   am
    80    46    47    2
    81    76    77    1
    82    76    75    1
    83   130   129   ar
    84    58    59    1
    85   211   213   ar
    86    66    64   am
    87   147   145    1
    88   145   144    2
    89   126   125   ar
    90   212   214   ar
    91    63    64    1
    92    63    62    1
    93   219   220    1
    94    75    69   am
    95    61    60    2
    96    20    21    1
    97   144   143    1
    98    64    65    2
    99   143   142    1
   100   129   127   ar
   101   156   154   ar
   102   156   158   ar
   103   221   220   ar
   104   221   223   ar
   105    59    62    1
   106    59    60    1
   107   159   158    1
   108   213   214   ar
   109   220   222   ar
   110   154   153   ar
   111   125   127   ar
   112   125   124    1
   113   223   225   ar
   114   158   157   ar
   115    21    24    1
   116    21    22    1
   117   142   141    1
   118    69    70    2
   119    69    68    1
   120   222   224   ar
   121    24    25    1
   122   166   165   ar
   123   225   224   ar
   124   225   226    1
   125    74    72    1
   126   141   138    1
   127   153   152    1
   128   153   155   ar
   129   124   121    1
   130    26    25    1
   131    26    27    1
   132    72    71    1
   133    72    73    1
   134   157   155   ar
   135    71    68    1
   136    22    23    2
   137    68    67    1
   138   162   163    2
   139   162   161    1
   140   140   139    2
   141   167   165   ar
   142   165   164    1
   143   123   122    2
   144   152   149    1
   145   121   122    1
   146   121   120    1
   147   149   148    1
   148   149   150    1
   149   139   148   am
   150   139   138    1
   151   138   137    1
   152   122   132   am
   153   161   164    1
   154   161   160    1
   155    27    28    1
   156   151   150    2
   157    41    40    2
   158    40    39    1
   159   132   133    1
   160    36    35    2
   161   119   118   ar
   162   119   117   ar
   163    43    42    1
   164   133   134    1
   165   133   136    1
   166   118   116   ar
   167    29    30    1
   168   176   174   ar
   169   176   177   ar
   170   134   135    2
   171   174   173   ar
   172    38    39    1
   173    38    31   am
   174    39    42    1
   175    35    37   am
   176    35    34    1
   177   117   115   ar
   178   116   115   ar
   179   177   175   ar
   180   115   114    1
   181    30    31    1
   182    30    33    1
   183   173   172    1
   184   173   175   ar
   185   171   170    2
   186   109   107   am
   187    31    32    2
   188    33    34    1
   189   108   107    2
   190   172   169    1
   191   107   106    1
   192   169   170    1
   193   169   168    1
   194   105   104    2
   195   114   111    1
   196   111   110    1
   197   111   112    1
   198   113   112    2
   199   106   103    1
   200   104   110   am
   201   104   103    1
   202   100    98   ar
   203   100   101   ar
   204   103   102    1
   205    98    97   ar
   206   101    99   ar
   207   102    94   am
   208    91    90    1
   209    97    99   ar
   210    97    96    1
   211    94    95    2
   212    94    93    1
   213    96    93    1
   214    89    90    1
   215    89    88    1
   216    93    92    1
   217    87    88    1
   218    87    84    1
   219    86    85    2
   220    84    83    1
   221    84    85    1
