@<TRIPOS>MOLECULE
tmp/4ok5A00.pdb
 147 139 0 0 0
SMALL
GASTEIGER

@<TRIPOS>ATOM
      1  N        -16.3330  -21.9960   34.9080 N.3    47  PRO47      -0.2116
      2  CA       -16.0850  -23.0020   33.8610 C.3    47  PRO47       0.1372
      3  C        -15.0690  -24.0560   34.3170 C.2    47  PRO47       0.2244
      4  O        -15.1610  -25.2200   33.9600 O.2    47  PRO47      -0.2868
      5  CB       -15.5180  -22.1790   32.6880 C.3    47  PRO47       0.0268
      6  CG       -15.8340  -20.7450   33.0090 C.3    47  PRO47       0.0207
      7  CD       -15.8400  -20.6640   34.5120 C.3    47  PRO47       0.0892
      8  N        -12.8090  -26.6580   36.5660 N.3    49  VAL49      -0.1245
      9  CA       -12.7840  -27.5620   37.7090 C.3    49  VAL49       0.1561
     10  C        -11.7670  -27.0900   38.7530 C.2    49  VAL49       0.2260
     11  O        -12.0800  -26.9940   39.9410 O.2    49  VAL49      -0.2867
     12  CB       -12.4500  -29.0030   37.2810 C.3    49  VAL49       0.0252
     13  CG1      -12.1260  -29.8640   38.5060 C.3    49  VAL49       0.0019
     14  CG2      -13.6030  -29.5870   36.4930 C.3    49  VAL49       0.0019
     15  N        -17.5380  -32.4470   38.5230 N.3    72  GLY72      -0.1210
     16  CA       -17.6850  -33.7740   37.9400 C.3    72  GLY72       0.1956
     17  C        -17.0030  -34.8660   38.7540 C.2    72  GLY72       0.2611
     18  O        -17.6210  -35.8470   39.1450 O.2    72  GLY72      -0.2717
     19  N        -15.7380  -34.6560   39.0690 N.am   73  VAL73      -0.1979
     20  CA       -14.9480  -35.6680   39.7570 C.3    73  VAL73       0.1595
     21  C        -15.2820  -35.7370   41.2410 C.2    73  VAL73       0.2287
     22  O        -15.2770  -36.8170   41.8270 O.2    73  VAL73      -0.2864
     23  CB       -13.4290  -35.3920   39.5810 C.3    73  VAL73       0.0276
     24  CG1      -12.5930  -36.3420   40.4210 C.3    73  VAL73       0.0022
     25  CG2      -13.0380  -35.4910   38.1170 C.3    73  VAL73       0.0022
     26  N        -18.9140  -26.1500   39.1320 N.3    86  THR86      -0.1218
     27  CA       -18.6640  -25.8880   37.7230 C.3    86  THR86       0.1862
     28  C        -19.9920  -25.8030   36.9930 C.2    86  THR86       0.2287
     29  O        -20.9990  -26.3740   37.4570 O.2    86  THR86      -0.2866
     30  CB       -17.8140  -26.9680   37.0800 C.3    86  THR86       0.1770
     31  OG1      -18.4840  -28.2270   37.2210 O.3    86  THR86      -0.2211
     32  CG2      -16.4720  -27.0310   37.7410 C.3    86  THR86       0.0375
     33  N        -20.5800  -27.2560   34.2680 N.3    88  GLY88      -0.1210
     34  CA       -20.8200  -28.6300   33.8670 C.3    88  GLY88       0.1956
     35  C        -21.4780  -29.4510   34.9530 C.2    88  GLY88       0.2611
     36  O        -22.4140  -30.1770   34.6800 O.2    88  GLY88      -0.2717
     37  N        -20.9920  -29.3480   36.1880 N.am   89  LYS89      -0.1979
     38  CA       -21.6080  -30.1070   37.2640 C.3    89  LYS89       0.1596
     39  C        -23.0260  -29.5710   37.5580 C.2    89  LYS89       0.2287
     40  O        -23.9510  -30.3490   37.7920 O.2    89  LYS89      -0.2864
     41  CB       -20.7310  -30.0640   38.5190 C.3    89  LYS89       0.0298
     42  CG       -21.3010  -30.8200   39.7070 C.3    89  LYS89       0.0038
     43  CD       -21.6130  -32.2590   39.3560 C.3    89  LYS89       0.0206
     44  CE       -21.7920  -33.1070   40.5990 C.3    89  LYS89       0.1093
     45  NZ       -22.3760  -34.4350   40.2460 N.3    89  LYS89      -0.1314
     46  N        -25.0670  -28.3920   35.4090 N.3    91  LEU91      -0.1231
     47  CA       -25.9330  -29.0100   34.4020 C.3    91  LEU91       0.1693
     48  C        -26.2380  -30.4840   34.7030 C.2    91  LEU91       0.2591
     49  O        -27.3720  -30.9580   34.4910 O.2    91  LEU91      -0.2718
     50  CB       -25.3000  -28.8840   33.0170 C.3    91  LEU91       0.0284
     51  CG       -25.2330  -27.4480   32.4950 C.3    91  LEU91       0.0019
     52  CD1      -24.2040  -27.3230   31.3890 C.3    91  LEU91       0.0001
     53  CD2      -26.6320  -27.0050   32.0180 C.3    91  LEU91       0.0001
     54  N        -25.2220  -31.2170   35.1660 N.am   92  ALA92      -0.1980
     55  CA       -25.4290  -32.6260   35.5120 C.3    92  ALA92       0.1597
     56  C        -26.4860  -32.7300   36.6050 C.2    92  ALA92       0.2287
     57  O        -27.2640  -33.6600   36.6210 O.2    92  ALA92      -0.2864
     58  CB       -24.1360  -33.2670   35.9660 C.3    92  ALA92       0.0319
     59  N        -16.7760  -21.4060   26.3470 N.3   113  ASP113     -0.1225
     60  CA       -16.8680  -22.8410   26.1170 C.3   113  ASP113      0.1805
     61  C        -18.3090  -23.3090   26.3670 C.2   113  ASP113      0.2598
     62  O        -19.0960  -22.6140   27.0250 O.2   113  ASP113     -0.2718
     63  CB       -15.9060  -23.5850   26.9950 C.3   113  ASP113      0.1424
     64  CG       -16.4340  -23.7420   28.3400 C.2   113  ASP113      0.3668
     65  OD1      -16.5520  -22.6940   29.0130 O.co2 113  ASP113     -0.2456
     66  OD2      -16.7800  -24.8960   28.6980 O.co2 113  ASP113     -0.2456
     67  N        -18.6360  -24.4870   25.8370 N.am  114  ALA114     -0.1966
     68  CA       -20.0150  -24.9600   25.7770 C.3   114  ALA114      0.1728
     69  C        -20.6790  -25.0310   27.1480 C.2   114  ALA114      0.2616
     70  O        -21.8460  -24.6710   27.3100 O.2   114  ALA114     -0.2715
     71  CB       -20.0760  -26.3210   25.0930 C.3   114  ALA114      0.0334
     72  N        -19.9240  -25.4830   28.1340 N.am  115  THR115     -0.1951
     73  CA       -20.4510  -25.6430   29.4790 C.3   115  THR115      0.1897
     74  C        -20.9500  -24.2880   30.0600 C.2   115  THR115      0.2313
     75  O        -21.9990  -24.2190   30.7270 O.2   115  THR115     -0.2863
     76  CB       -19.3570  -26.3170   30.3700 C.3   115  THR115      0.1794
     77  OG1      -19.9650  -27.1050   31.3800 O.3   115  THR115     -0.2208
     78  CG2      -18.4560  -25.3040   31.0270 C.3   115  THR115      0.0378
     79  N        -24.2330  -23.1350   27.8410 N.3   118  LEU118     -0.1245
     80  CA       -25.4290  -23.9260   28.1710 C.3   118  LEU118      0.1561
     81  C        -25.8050  -23.7130   29.6570 C.2   118  LEU118      0.2260
     82  O        -26.9960  -23.6310   30.0180 O.2   118  LEU118     -0.2867
     83  CB       -25.2120  -25.4210   27.8650 C.3   118  LEU118      0.0270
     84  CG       -26.4120  -26.3610   28.0960 C.3   118  LEU118      0.0019
     85  CD1      -27.7160  -25.8350   27.4210 C.3   118  LEU118      0.0001
     86  CD2      -26.0820  -27.7480   27.5750 C.3   118  LEU118      0.0001
     87  N        -21.7080  -28.0460   19.9610 N.3   305  GLU305     -0.1231
     88  CA       -21.2340  -28.7580   21.1430 C.3   305  GLU305      0.1699
     89  C        -22.2580  -28.7880   22.3010 C.2   305  GLU305      0.2592
     90  O        -22.3480  -29.7630   23.0590 O.2   305  GLU305     -0.2718
     91  CB       -19.9380  -28.1200   21.6350 C.3   305  GLU305      0.0402
     92  CG       -19.1020  -29.0670   22.4240 C.3   305  GLU305      0.1161
     93  CD       -17.8140  -28.4390   22.9410 C.2   305  GLU305      0.3649
     94  OE1      -17.3930  -27.3560   22.4480 O.co2 305  GLU305     -0.2457
     95  OE2      -17.2440  -29.0550   23.8560 O.co2 305  GLU305     -0.2457
     96  N        -22.9860  -27.6900   22.4660 N.am  306  CYS306     -0.1970
     97  CA       -24.0270  -27.6330   23.4850 C.3   306  CYS306      0.1712
     98  C        -25.1010  -28.7090   23.2350 C.2   306  CYS306      0.2296
     99  O        -25.5070  -29.4270   24.1500 O.2   306  CYS306     -0.2864
    100  CB       -24.6600  -26.2350   23.5130 C.3   306  CYS306      0.0983
    101  SG       -23.6000  -24.9780   24.2790 S.3   306  CYS306     -0.0798
    102  N        -23.5900  -32.1130   23.8700 N.3   309  ALA309     -0.1245
    103  CA       -23.4800  -32.4690   25.2890 C.3   309  ALA309      0.1562
    104  C        -24.8780  -32.6730   25.9160 C.2   309  ALA309      0.2260
    105  O        -25.0760  -33.5300   26.8060 O.2   309  ALA309     -0.2867
    106  CB       -22.7080  -31.4160   26.0410 C.3   309  ALA309      0.0290
    107  N        -24.5950  -36.0410   27.7350 N.3   313  TRP313     -0.1227
    108  CA       -24.3580  -35.9430   29.1740 C.3   313  TRP313      0.1737
    109  C        -25.5900  -35.6050   30.0110 C.2   313  TRP313      0.2595
    110  O        -25.6650  -36.0020   31.1660 O.2   313  TRP313     -0.2718
    111  CB       -23.3010  -34.8740   29.4750 C.3   313  TRP313      0.0564
    112  CG       -21.9460  -35.1900   28.9590 C.ar  313  TRP313      0.0003
    113  CD1      -21.3620  -34.7070   27.8220 C.ar  313  TRP313      0.0946
    114  CD2      -20.9950  -36.0670   29.5590 C.ar  313  TRP313      0.0152
    115  NE1      -20.0990  -35.2180   27.6890 N.ar  313  TRP313     -0.2442
    116  CE2      -19.8530  -36.0730   28.7380 C.ar  313  TRP313      0.0810
    117  CE3      -21.0030  -36.8630   30.7120 C.ar  313  TRP313      0.0012
    118  CZ2      -18.7180  -36.8330   29.0360 C.ar  313  TRP313      0.0191
    119  CZ3      -19.8800  -37.6150   31.0090 C.ar  313  TRP313      0.0001
    120  CH2      -18.7560  -37.6010   30.1740 C.ar  313  TRP313      0.0015
    121  N        -26.5270  -34.8320   29.4650 N.am  314  TYR314     -0.1976
    122  CA       -27.5300  -34.2450   30.3320 C.3   314  TYR314      0.1639
    123  C        -28.9470  -34.6740   30.0060 C.2   314  TYR314      0.2290
    124  O        -29.8930  -34.0530   30.4860 O.2   314  TYR314     -0.2864
    125  CB       -27.4340  -32.7170   30.2820 C.3   314  TYR314      0.0560
    126  CG       -26.0490  -32.2110   30.6080 C.ar  314  TYR314     -0.0198
    127  CD1      -25.4390  -32.5340   31.8110 C.ar  314  TYR314     -0.0009
    128  CD2      -25.3530  -31.4080   29.7070 C.ar  314  TYR314     -0.0009
    129  CE1      -24.1460  -32.0640   32.1160 C.ar  314  TYR314      0.0417
    130  CE2      -24.0770  -30.9490   29.9880 C.ar  314  TYR314      0.0417
    131  CZ       -23.4800  -31.2650   31.1930 C.ar  314  TYR314      0.1957
    132  OH       -22.2170  -30.7910   31.4580 O.3   314  TYR314     -0.2866
    133  N        -14.1640  -34.7930   21.5560 N.3   368  ASN368     -0.1240
    134  CA       -14.8180  -33.4810   21.5570 C.3   368  ASN368      0.1653
    135  C        -16.3380  -33.4630   21.3420 C.2   368  ASN368      0.2266
    136  O        -17.0540  -32.6950   21.9950 O.2   368  ASN368     -0.2867
    137  CB       -14.1770  -32.5740   20.5040 C.3   368  ASN368      0.1155
    138  CG       -12.9990  -31.8040   21.0610 C.2   368  ASN368      0.2627
    139  OD1      -11.9040  -31.8150   20.4930 O.2   368  ASN368     -0.2716
    140  ND2      -13.2040  -31.1720   22.2130 N.am  368  ASN368     -0.0877
    141  N        -18.7270  -36.2380   21.5240 N.3   370  PRO370     -0.2116
    142  CA       -18.9420  -37.6690   21.7430 C.3   370  PRO370      0.1372
    143  C        -20.2170  -38.1480   21.0950 C.2   370  PRO370      0.2244
    144  O        -20.2220  -39.2460   20.5420 O.2   370  PRO370     -0.2868
    145  CB       -19.0060  -37.8010   23.2780 C.3   370  PRO370      0.0268
    146  CG       -19.2300  -36.4140   23.7970 C.3   370  PRO370      0.0207
    147  CD       -18.6040  -35.4900   22.7890 C.3   370  PRO370      0.0892
@<TRIPOS>BOND
     1    87    88    1
     2   139   138    2
     3   137   138    1
     4   137   134    1
     5   144   143    2
     6   138   140   am
     7   143   142    1
     8    88    91    1
     9    88    89    1
    10   135   134    1
    11   135   136    2
    12   141   142    1
    13   141   147    1
    14   133   134    1
    15    91    92    1
    16   142   145    1
    17    89    96   am
    18    89    90    2
    19    92    93    1
    20    94    93   ar
    21    96    97    1
    22   147   146    1
    23    93    95   ar
    24    98    97    1
    25    98    99    2
    26   145   146    1
    27    97   100    1
    28   100   101    1
    29   102   103    1
    30    71    68    1
    31   103   104    1
    32   103   106    1
    33    68    67    1
    34    68    69    1
    35    67    61   am
    36   104   105    2
    37    60    59    1
    38    60    61    1
    39    60    63    1
    40    61    62    2
    41    63    64    1
    42    69    70    2
    43    69    72   am
    44    85    84    1
    45    86    84    1
    46   115   113   ar
    47   115   116   ar
    48   107   108    1
    49   113   112   ar
    50    79    80    1
    51    83    84    1
    52    83    80    1
    53    72    73    1
    54    80    81    1
    55    64    66   ar
    56    64    65   ar
    57   116   118   ar
    58   116   114   ar
    59   112   111    1
    60   112   114   ar
    61   118   120   ar
    62   108   111    1
    63   108   109    1
    64   121   109   am
    65   121   122    1
    66    73    74    1
    67    73    76    1
    68   114   117   ar
    69    81    82    2
    70   128   130   ar
    71   128   126   ar
    72   130   131   ar
    73   123   122    1
    74   123   124    2
    75   109   110    2
    76    74    75    2
    77   120   119   ar
    78   125   122    1
    79   125   126    1
    80    76    78    1
    81    76    77    1
    82   126   127   ar
    83   117   119   ar
    84   131   132    1
    85   131   129   ar
    86    52    51    1
    87   127   129   ar
    88    53    51    1
    89    51    50    1
    90     5     6    1
    91     5     2    1
    92     6     7    1
    93    50    47    1
    94     2     3    1
    95     2     1    1
    96    34    33    1
    97    34    35    1
    98     4     3    2
    99    47    48    1
   100    47    46    1
   101    49    48    2
   102     7     1    1
   103    36    35    2
   104    48    54   am
   105    35    37   am
   106    54    55    1
   107    55    58    1
   108    55    56    1
   109    37    38    1
   110    14    12    1
   111     8     9    1
   112    56    57    2
   113    28    29    2
   114    28    27    1
   115    30    31    1
   116    30    27    1
   117    30    32    1
   118    38    39    1
   119    38    41    1
   120    12     9    1
   121    12    13    1
   122    39    40    2
   123     9    10    1
   124    27    26    1
   125    16    15    1
   126    16    17    1
   127    25    23    1
   128    41    42    1
   129    10    11    2
   130    17    19   am
   131    17    18    2
   132    19    20    1
   133    43    42    1
   134    43    44    1
   135    23    20    1
   136    23    24    1
   137    20    21    1
   138    45    44    1
   139    21    22    2
