@<TRIPOS>MOLECULE
tmp/4ok6A00.pdb
 117 111 0 0 0
SMALL
GASTEIGER

@<TRIPOS>ATOM
      1  N        -16.2640  -22.1090   34.9110 N.3    46  PRO46      -0.2116
      2  CA       -15.9690  -23.1040   33.8610 C.3    46  PRO46       0.1372
      3  C        -14.9250  -24.1290   34.3260 C.2    46  PRO46       0.2244
      4  O        -15.0330  -25.3190   34.0390 O.2    46  PRO46      -0.2868
      5  CB       -15.4230  -22.2600   32.7000 C.3    46  PRO46       0.0268
      6  CG       -15.8090  -20.8360   33.0340 C.3    46  PRO46       0.0207
      7  CD       -15.8090  -20.7580   34.5330 C.3    46  PRO46       0.0892
      8  N        -12.6940  -26.5640   36.7360 N.3    48  VAL48      -0.1245
      9  CA       -12.6660  -27.4490   37.8940 C.3    48  VAL48       0.1561
     10  C        -11.5860  -27.0380   38.8990 C.2    48  VAL48       0.2260
     11  O        -11.8010  -27.0960   40.1050 O.2    48  VAL48      -0.2867
     12  CB       -12.4220  -28.9250   37.4650 C.3    48  VAL48       0.0252
     13  CG1      -12.1140  -29.8070   38.6710 C.3    48  VAL48       0.0019
     14  CG2      -13.6170  -29.4730   36.7150 C.3    48  VAL48       0.0019
     15  N        -17.9690  -30.5850   41.7380 N.3    70  THR70      -0.1203
     16  CA       -17.2950  -30.8100   40.4640 C.3    70  THR70       0.1994
     17  C        -17.5720  -32.2500   40.0360 C.2    70  THR70       0.2618
     18  O        -18.1380  -33.0330   40.8070 O.2    70  THR70      -0.2717
     19  CB       -15.7760  -30.5770   40.5700 C.3    70  THR70       0.1784
     20  OG1      -15.2000  -31.6350   41.3410 O.3    70  THR70      -0.2211
     21  CG2      -15.4770  -29.2630   41.2670 C.3    70  THR70       0.0376
     22  N        -17.2200  -32.5930   38.8010 N.am   71  GLY71      -0.1942
     23  CA       -17.4150  -33.9510   38.3210 C.3    71  GLY71       0.2014
     24  C        -16.5730  -34.9350   39.1160 C.2    71  GLY71       0.2638
     25  O        -17.0740  -35.9310   39.6120 O.2    71  GLY71      -0.2714
     26  N        -15.2960  -34.6100   39.2640 N.am   72  VAL72      -0.1977
     27  CA       -14.3170  -35.4420   39.9540 C.3    72  VAL72       0.1596
     28  C        -14.5660  -35.5090   41.4600 C.2    72  VAL72       0.2287
     29  O        -14.4200  -36.5650   42.0700 O.2    72  VAL72      -0.2864
     30  CB       -12.8720  -34.9020   39.6930 C.3    72  VAL72       0.0276
     31  CG1      -11.8500  -35.5020   40.6560 C.3    72  VAL72       0.0022
     32  CG2      -12.4690  -35.1360   38.2470 C.3    72  VAL72       0.0022
     33  N        -18.8600  -26.2030   39.0980 N.3    85  THR85      -0.1218
     34  CA       -18.6070  -25.9450   37.7020 C.3    85  THR85       0.1862
     35  C        -19.9310  -25.8910   36.9850 C.2    85  THR85       0.2287
     36  O        -20.9250  -26.4510   37.4510 O.2    85  THR85      -0.2866
     37  CB       -17.7160  -27.0100   37.0530 C.3    85  THR85       0.1770
     38  OG1      -18.3570  -28.2830   37.1380 O.3    85  THR85      -0.2211
     39  CG2      -16.3520  -27.0640   37.7440 C.3    85  THR85       0.0375
     40  N        -20.5500  -27.4050   34.2710 N.3    87  GLY87      -0.1210
     41  CA       -20.8370  -28.7490   33.8070 C.3    87  GLY87       0.1956
     42  C        -21.4240  -29.6260   34.8900 C.2    87  GLY87       0.2611
     43  O        -22.2500  -30.4910   34.6140 O.2    87  GLY87      -0.2717
     44  N        -21.0160  -29.4040   36.1340 N.am   88  LYS88      -0.1979
     45  CA       -21.5620  -30.2080   37.2130 C.3    88  LYS88       0.1596
     46  C        -22.9600  -29.7210   37.5730 C.2    88  LYS88       0.2287
     47  O        -23.8480  -30.5230   37.8800 O.2    88  LYS88      -0.2864
     48  CB       -20.6430  -30.1790   38.4350 C.3    88  LYS88       0.0298
     49  CG       -20.5540  -31.5190   39.1740 C.3    88  LYS88       0.0038
     50  CD       -21.7990  -31.8570   39.9780 C.3    88  LYS88       0.0206
     51  CE       -21.5690  -33.0640   40.8810 C.3    88  LYS88       0.1093
     52  NZ       -21.4990  -34.3700   40.1740 N.3    88  LYS88      -0.1314
     53  N        -25.1750  -31.3620   35.1720 N.3    91  ALA91      -0.1245
     54  CA       -25.4010  -32.7690   35.5690 C.3    91  ALA91       0.1562
     55  C        -26.3790  -32.8840   36.7290 C.2    91  ALA91       0.2260
     56  O        -27.2040  -33.7900   36.7600 O.2    91  ALA91      -0.2867
     57  CB       -24.1090  -33.4430   35.9360 C.3    91  ALA91       0.0290
     58  N        -16.8880  -21.4630   26.0300 N.3   112  ASP112     -0.1225
     59  CA       -16.9460  -22.9180   25.8940 C.3   112  ASP112      0.1805
     60  C        -18.3790  -23.4350   26.0720 C.2   112  ASP112      0.2598
     61  O        -19.1820  -22.8390   26.8120 O.2   112  ASP112     -0.2718
     62  CB       -16.0640  -23.5420   26.9220 C.3   112  ASP112      0.1424
     63  CG       -16.4930  -23.1470   28.2590 C.2   112  ASP112      0.3668
     64  OD1      -16.3050  -21.9460   28.5970 O.co2 112  ASP112     -0.2456
     65  OD2      -17.1200  -24.0020   28.9140 O.co2 112  ASP112     -0.2456
     66  N        -18.6780  -24.5570   25.4200 N.am  113  ALA113     -0.1966
     67  CA       -20.0360  -25.0970   25.3490 C.3   113  ALA113      0.1728
     68  C        -20.7690  -25.1540   26.6900 C.2   113  ALA113      0.2616
     69  O        -21.8740  -24.6380   26.7930 O.2   113  ALA113     -0.2715
     70  CB       -20.0160  -26.4760   24.7170 C.3   113  ALA113      0.0334
     71  N        -20.1590  -25.7550   27.7080 N.am  114  THR114     -0.1951
     72  CA       -20.7980  -25.8560   29.0320 C.3   114  THR114      0.1897
     73  C        -21.1150  -24.5010   29.7130 C.2   114  THR114      0.2313
     74  O        -22.1300  -24.3620   30.3760 O.2   114  THR114     -0.2863
     75  CB       -19.9270  -26.6600   30.0180 C.3   114  THR114      0.1794
     76  OG1      -18.5620  -26.2590   29.8610 O.3   114  THR114     -0.2208
     77  CG2      -20.0360  -28.1240   29.7340 C.3   114  THR114      0.0378
     78  N        -21.7700  -27.9230   19.6780 N.3   294  GLU294     -0.1245
     79  CA       -21.2310  -28.5890   20.8670 C.3   294  GLU294      0.1567
     80  C        -22.2850  -28.6960   21.9860 C.2   294  GLU294      0.2260
     81  O        -22.3510  -29.6910   22.7170 O.2   294  GLU294     -0.2867
     82  CB       -20.0130  -27.8350   21.4010 C.3   294  GLU294      0.0388
     83  CG       -18.6960  -28.0240   20.6430 C.3   294  GLU294      0.1160
     84  CD       -17.5140  -27.3360   21.3410 C.2   294  GLU294      0.3649
     85  OE1      -17.4510  -26.0750   21.3530 O.co2 294  GLU294     -0.2457
     86  OE2      -16.6590  -28.0660   21.9010 O.co2 294  GLU294     -0.2457
     87  N        -23.7690  -32.0830   23.7430 N.3   298  ALA298     -0.1245
     88  CA       -23.5320  -32.3330   25.1550 C.3   298  ALA298      0.1562
     89  C        -24.8520  -32.5680   25.8960 C.2   298  ALA298      0.2260
     90  O        -24.9580  -33.4790   26.7110 O.2   298  ALA298     -0.2867
     91  CB       -22.7490  -31.1750   25.7690 C.3   298  ALA298      0.0290
     92  N        -24.5480  -36.1620   27.4390 N.3   302  TRP302     -0.1227
     93  CA       -24.2320  -36.0680   28.8520 C.3   302  TRP302      0.1737
     94  C        -25.4360  -35.7770   29.7630 C.2   302  TRP302      0.2595
     95  O        -25.5060  -36.2710   30.8810 O.2   302  TRP302     -0.2718
     96  CB       -23.2110  -34.9730   29.0800 C.3   302  TRP302      0.0564
     97  CG       -21.8730  -35.2560   28.5640 C.ar  302  TRP302      0.0003
     98  CD1      -21.2900  -34.7210   27.4520 C.ar  302  TRP302      0.0946
     99  CD2      -20.8940  -36.1040   29.1670 C.ar  302  TRP302      0.0152
    100  NE1      -20.0150  -35.1990   27.3160 N.ar  302  TRP302     -0.2442
    101  CE2      -19.7480  -36.0580   28.3530 C.ar  302  TRP302      0.0810
    102  CE3      -20.8810  -36.9120   30.3120 C.ar  302  TRP302      0.0012
    103  CZ2      -18.6020  -36.7980   28.6390 C.ar  302  TRP302      0.0191
    104  CZ3      -19.7410  -37.6450   30.5970 C.ar  302  TRP302      0.0001
    105  CH2      -18.6130  -37.5790   29.7710 C.ar  302  TRP302      0.0015
    106  N        -26.3700  -34.9580   29.2950 N.am  303  TYR303     -0.1976
    107  CA       -27.3410  -34.3660   30.1960 C.3   303  TYR303      0.1639
    108  C        -28.7610  -34.7920   29.9180 C.2   303  TYR303      0.2290
    109  O        -29.7080  -34.2140   30.4690 O.2   303  TYR303     -0.2864
    110  CB       -27.2460  -32.8520   30.1070 C.3   303  TYR303      0.0560
    111  CG       -25.8850  -32.3270   30.4540 C.ar  303  TYR303     -0.0198
    112  CD1      -25.2580  -32.7240   31.6240 C.ar  303  TYR303     -0.0009
    113  CD2      -25.2240  -31.4400   29.6110 C.ar  303  TYR303     -0.0009
    114  CE1      -24.0000  -32.2490   31.9660 C.ar  303  TYR303      0.0417
    115  CE2      -23.9730  -30.9530   29.9320 C.ar  303  TYR303      0.0417
    116  CZ       -23.3620  -31.3630   31.1180 C.ar  303  TYR303      0.1957
    117  OH       -22.1290  -30.8930   31.4550 O.3   303  TYR303     -0.2866
@<TRIPOS>BOND
     1    78    79    1
     2    83    84    1
     3    83    82    1
     4    79    82    1
     5    79    80    1
     6    84    85   ar
     7    84    86   ar
     8    80    81    2
     9    87    88    1
    10    70    67    1
    11    88    91    1
    12    88    89    1
    13    67    66    1
    14    67    68    1
    15    66    60   am
    16    59    58    1
    17    59    60    1
    18    59    62    1
    19    89    90    2
    20    60    61    2
    21    68    69    2
    22    68    71   am
    23    62    63    1
    24   100    98   ar
    25   100   101   ar
    26    92    93    1
    27    98    97   ar
    28    71    72    1
    29    63    64   ar
    30    63    65   ar
    31   101   103   ar
    32   101    99   ar
    33    97    96    1
    34    97    99   ar
    35   103   105   ar
    36    93    96    1
    37    93    94    1
    38    72    73    1
    39    72    75    1
    40    99   102   ar
    41   106    94   am
    42   106   107    1
    43   113   115   ar
    44   113   111   ar
    45    73    74    2
    46    77    75    1
    47    94    95    2
    48   105   104   ar
    49    76    75    1
    50   108   107    1
    51   108   109    2
    52   115   116   ar
    53   110   107    1
    54   110   111    1
    55   102   104   ar
    56   111   112   ar
    57   116   117    1
    58   116   114   ar
    59   112   114   ar
    60     5     6    1
    61     5     2    1
    62     6     7    1
    63    41    40    1
    64    41    42    1
    65     2     3    1
    66     2     1    1
    67     4     3    2
    68     7     1    1
    69    43    42    2
    70    42    44   am
    71    53    54    1
    72    54    57    1
    73    54    55    1
    74    44    45    1
    75    14    12    1
    76    55    56    2
    77     8     9    1
    78    35    36    2
    79    35    34    1
    80    37    38    1
    81    37    34    1
    82    37    39    1
    83    45    46    1
    84    45    48    1
    85    12     9    1
    86    12    13    1
    87    46    47    2
    88    34    33    1
    89     9    10    1
    90    32    30    1
    91    23    22    1
    92    23    24    1
    93    48    49    1
    94    22    17   am
    95    10    11    2
    96    24    26   am
    97    24    25    2
    98    49    50    1
    99    26    27    1
   100    30    27    1
   101    30    31    1
   102    27    28    1
   103    50    51    1
   104    17    16    1
   105    17    18    2
   106    52    51    1
   107    16    19    1
   108    16    15    1
   109    19    21    1
   110    19    20    1
   111    28    29    2
