@<TRIPOS>MOLECULE
tmp/4okaA00.pdb
 140 133 0 0 0
SMALL
GASTEIGER

@<TRIPOS>ATOM
      1  N         -9.4640  -32.7320   -4.8830 N.3    11  ASN11      -0.1240
      2  CA       -10.6970  -33.4280   -4.5260 C.3    11  ASN11       0.1653
      3  C        -10.9320  -34.6740   -5.3500 C.2    11  ASN11       0.2266
      4  O        -10.1670  -34.9810   -6.2580 O.2    11  ASN11      -0.2867
      5  CB       -11.9220  -32.4950   -4.5460 C.3    11  ASN11       0.1155
      6  CG       -12.2860  -32.0170   -5.9450 C.2    11  ASN11       0.2627
      7  OD1      -11.8710  -32.6020   -6.9550 O.2    11  ASN11      -0.2716
      8  ND2      -13.0770  -30.9490   -6.0110 N.am   11  ASN11      -0.0877
      9  N        -12.7530  -35.4340   -7.6780 N.3    13  LEU13      -0.1245
     10  CA       -12.9510  -35.2470   -9.1100 C.3    13  LEU13       0.1561
     11  C        -11.6300  -34.9050   -9.8020 C.2    13  LEU13       0.2260
     12  O        -11.5660  -34.7930  -11.0300 O.2    13  LEU13      -0.2867
     13  CB       -13.9640  -34.1230   -9.3520 C.3    13  LEU13       0.0270
     14  CG       -15.3980  -34.3710   -8.8830 C.3    13  LEU13       0.0019
     15  CD1      -16.2440  -33.1110   -8.9720 C.3    13  LEU13       0.0001
     16  CD2      -16.0060  -35.4540   -9.7220 C.3    13  LEU13       0.0001
     17  N         -9.9530  -32.0840   -8.9810 N.3    15  SER15      -0.1217
     18  CA        -9.7950  -30.6310   -8.9790 C.3    15  SER15       0.1889
     19  C         -8.6760  -30.1920   -8.0450 C.2    15  SER15       0.2288
     20  O         -8.3640  -30.8850   -7.0810 O.2    15  SER15      -0.2866
     21  CB       -11.0990  -29.9420   -8.6040 C.3    15  SER15       0.2089
     22  OG       -12.0140  -30.0140   -9.6750 O.3    15  SER15      -0.2183
     23  N         -8.7540  -21.6380   -7.6850 N.3    31  TYR31      -0.1241
     24  CA        -9.3460  -22.9590   -7.8990 C.3    31  TYR31       0.1605
     25  C         -9.2510  -23.3340   -9.3840 C.2    31  TYR31       0.2264
     26  O         -9.3280  -22.4660  -10.2680 O.2    31  TYR31      -0.2867
     27  CB       -10.8190  -22.9550   -7.4590 C.3    31  TYR31       0.0534
     28  CG       -11.4100  -24.3230   -7.1450 C.ar   31  TYR31      -0.0201
     29  CD1      -11.9100  -25.1440   -8.1540 C.ar   31  TYR31      -0.0009
     30  CD2      -11.4910  -24.7790   -5.8310 C.ar   31  TYR31      -0.0009
     31  CE1      -12.4550  -26.3870   -7.8620 C.ar   31  TYR31       0.0417
     32  CE2      -12.0270  -26.0140   -5.5300 C.ar   31  TYR31       0.0417
     33  CZ       -12.5050  -26.8180   -6.5430 C.ar   31  TYR31       0.1957
     34  OH       -13.0390  -28.0580   -6.2270 O.3    31  TYR31      -0.2866
     35  N        -11.1400  -26.3370  -11.5950 N.3    33  SER33      -0.1217
     36  CA       -12.0080  -27.5010  -11.6930 C.3    33  SER33       0.1889
     37  C        -11.5150  -28.5170  -12.7290 C.2    33  SER33       0.2288
     38  O        -10.9690  -28.1490  -13.7570 O.2    33  SER33      -0.2866
     39  CB       -13.4300  -27.0730  -12.0320 C.3    33  SER33       0.2089
     40  OG       -14.2660  -28.2080  -12.1810 O.3    33  SER33      -0.2183
     41  N        -13.7290  -30.6250  -13.9400 N.3    35  VAL35      -0.1231
     42  CA       -14.9740  -30.9290  -14.6510 C.3    35  VAL35       0.1692
     43  C        -15.7770  -29.6680  -14.9290 C.2    35  VAL35       0.2593
     44  O        -15.5740  -28.6320  -14.2920 O.2    35  VAL35      -0.2718
     45  CB       -15.8890  -31.8850  -13.8500 C.3    35  VAL35       0.0266
     46  CG1      -15.2380  -33.2440  -13.6720 C.3    35  VAL35       0.0020
     47  CG2      -16.2590  -31.2680  -12.5010 C.3    35  VAL35       0.0020
     48  N        -16.6980  -29.7650  -15.8760 N.am   36  GLY36      -0.1942
     49  CA       -17.6240  -28.6870  -16.1450 C.3    36  GLY36       0.2014
     50  C        -17.0490  -27.6550  -17.0870 C.2    36  GLY36       0.2639
     51  O        -16.0010  -27.8660  -17.7040 O.2    36  GLY36      -0.2714
     52  N        -17.7450  -26.5270  -17.1930 N.am   37  ASN37      -0.1958
     53  CA       -17.3230  -25.4500  -18.0710 C.3    37  ASN37       0.1819
     54  C        -16.2940  -24.5690  -17.3750 C.2    37  ASN37       0.2621
     55  O        -16.6010  -23.4520  -16.9440 O.2    37  ASN37      -0.2715
     56  CB       -18.5450  -24.6320  -18.5140 C.3    37  ASN37       0.1195
     57  CG       -18.2010  -23.5610  -19.5370 C.2    37  ASN37       0.2630
     58  OD1      -17.2040  -23.6650  -20.2590 O.2    37  ASN37      -0.2716
     59  ND2      -19.0320  -22.5250  -19.6060 N.am   37  ASN37      -0.0877
     60  N        -15.0710  -25.0730  -17.2600 N.am   38  ALA38      -0.1977
     61  CA       -14.0190  -24.3300  -16.5860 C.3    38  ALA38       0.1597
     62  C        -12.6880  -24.5630  -17.2920 C.2    38  ALA38       0.2287
     63  O        -12.5270  -25.5490  -18.0050 O.2    38  ALA38      -0.2864
     64  CB       -13.9420  -24.7450  -15.1320 C.3    38  ALA38       0.0319
     65  N        -17.2950  -18.4900  -11.5420 N.3    67  TRP67      -0.1241
     66  CA       -16.7020  -19.1910  -12.6770 C.3    67  TRP67       0.1605
     67  C        -16.3880  -18.3040  -13.8720 C.2    67  TRP67       0.2264
     68  O        -16.6450  -18.6770  -15.0200 O.2    67  TRP67      -0.2867
     69  CB       -17.5610  -20.4030  -13.0560 C.3    67  TRP67       0.0550
     70  CG       -17.4780  -21.3940  -11.9640 C.ar   67  TRP67       0.0003
     71  CD1      -18.4340  -21.6880  -11.0310 C.ar   67  TRP67       0.0946
     72  CD2      -16.3230  -22.1520  -11.6110 C.ar   67  TRP67       0.0152
     73  NE1      -17.9490  -22.6140  -10.1410 N.ar   67  TRP67      -0.2442
     74  CE2      -16.6560  -22.9150  -10.4750 C.ar   67  TRP67       0.0810
     75  CE3      -15.0420  -22.2760  -12.1600 C.ar   67  TRP67       0.0012
     76  CZ2      -15.7520  -23.7970   -9.8820 C.ar   67  TRP67       0.0191
     77  CZ3      -14.1420  -23.1450  -11.5680 C.ar   67  TRP67       0.0001
     78  CH2      -14.5030  -23.8950  -10.4400 C.ar   67  TRP67       0.0015
     79  N        -18.7630  -19.0840  -17.1370 N.3    74  ALA74      -0.1245
     80  CA       -19.8610  -20.0340  -17.0420 C.3    74  ALA74       0.1562
     81  C        -21.1140  -19.3990  -16.4320 C.2    74  ALA74       0.2260
     82  O        -22.1090  -20.0860  -16.2100 O.2    74  ALA74      -0.2867
     83  CB       -19.4380  -21.2460  -16.2370 C.3    74  ALA74       0.0290
     84  N        -21.8280  -18.6530  -13.5200 N.3    76  SER76      -0.1217
     85  CA       -22.2350  -19.3910  -12.3400 C.3    76  SER76       0.1889
     86  C        -21.2830  -19.0990  -11.1980 C.2    76  SER76       0.2288
     87  O        -20.3070  -18.3830  -11.3720 O.2    76  SER76      -0.2866
     88  CB       -22.3050  -20.8860  -12.6340 C.3    76  SER76       0.2089
     89  OG       -21.0840  -21.3550  -13.1550 O.3    76  SER76      -0.2183
     90  N        -19.8770  -21.0910   -7.2620 N.3    78  THR78      -0.1218
     91  CA       -20.0420  -22.1650   -6.3040 C.3    78  THR78       0.1862
     92  C        -19.5060  -21.7890   -4.9500 C.2    78  THR78       0.2287
     93  O        -18.4060  -21.2410   -4.8430 O.2    78  THR78      -0.2866
     94  CB       -19.2930  -23.4120   -6.7160 C.3    78  THR78       0.1770
     95  OG1      -19.6530  -23.7670   -8.0560 O.3    78  THR78      -0.2211
     96  CG2      -19.6390  -24.5600   -5.7610 C.3    78  THR78       0.0375
     97  N        -18.4830  -23.3910   -1.1290 N.3    80  TRP80      -0.1241
     98  CA       -18.1890  -24.6070   -0.3760 C.3    80  TRP80       0.1605
     99  C        -18.3180  -24.3300    1.1150 C.2    80  TRP80       0.2264
    100  O        -17.6830  -23.4130    1.6450 O.2    80  TRP80      -0.2867
    101  CB       -16.7740  -25.0880   -0.6680 C.3    80  TRP80       0.0550
    102  CG       -16.5880  -25.7580   -1.9790 C.ar   80  TRP80       0.0003
    103  CD1      -16.5590  -27.1000   -2.2140 C.ar   80  TRP80       0.0946
    104  CD2      -16.3740  -25.1220   -3.2420 C.ar   80  TRP80       0.0152
    105  NE1      -16.3520  -27.3400   -3.5500 N.ar   80  TRP80      -0.2442
    106  CE2      -16.2320  -26.1450   -4.2040 C.ar   80  TRP80       0.0810
    107  CE3      -16.3010  -23.7880   -3.6530 C.ar   80  TRP80       0.0012
    108  CZ2      -16.0140  -25.8760   -5.5570 C.ar   80  TRP80       0.0191
    109  CZ3      -16.0780  -23.5160   -4.9990 C.ar   80  TRP80       0.0001
    110  CH2      -15.9390  -24.5560   -5.9360 C.ar   80  TRP80       0.0015
    111  N        -21.2670  -28.4180   -1.3400 N.3    96  TRP96      -0.1241
    112  CA       -21.2000  -27.2140   -2.1690 C.3    96  TRP96       0.1605
    113  C        -22.5220  -26.8830   -2.8500 C.2    96  TRP96       0.2264
    114  O        -23.2900  -27.7910   -3.1840 O.2    96  TRP96      -0.2867
    115  CB       -20.0770  -27.3010   -3.2110 C.3    96  TRP96       0.0550
    116  CG       -20.1060  -28.5030   -4.0850 C.ar   96  TRP96       0.0003
    117  CD1      -19.3180  -29.6170   -3.9700 C.ar   96  TRP96       0.0946
    118  CD2      -20.9520  -28.7310   -5.2230 C.ar   96  TRP96       0.0152
    119  NE1      -19.6230  -30.5230   -4.9560 N.ar   96  TRP96      -0.2442
    120  CE2      -20.6230  -30.0110   -5.7410 C.ar   96  TRP96       0.0810
    121  CE3      -21.9590  -27.9860   -5.8550 C.ar   96  TRP96       0.0012
    122  CZ2      -21.2610  -30.5560   -6.8590 C.ar   96  TRP96       0.0191
    123  CZ3      -22.5890  -28.5270   -6.9600 C.ar   96  TRP96       0.0001
    124  CH2      -22.2390  -29.8010   -7.4520 C.ar   96  TRP96       0.0015
    125  N        -23.8140  -24.8380   -6.2710 N.3    98  LEU98      -0.1245
    126  CA       -23.4620  -24.1630   -7.5250 C.3    98  LEU98       0.1561
    127  C        -24.7070  -23.4850   -8.0850 C.2    98  LEU98       0.2260
    128  O        -25.6600  -24.1570   -8.4870 O.2    98  LEU98      -0.2867
    129  CB       -22.8880  -25.1660   -8.5430 C.3    98  LEU98       0.0270
    130  CG       -22.2410  -24.6860   -9.8530 C.3    98  LEU98       0.0019
    131  CD1      -21.5120  -25.8170  -10.5390 C.3    98  LEU98       0.0001
    132  CD2      -23.2550  -24.1120  -10.8170 C.3    98  LEU98       0.0001
    133  N        -17.7430  -32.2720   -1.8580 N.3   116  ASP116     -0.1239
    134  CA       -16.3470  -32.5950   -2.1950 C.3   116  ASP116      0.1674
    135  C        -15.5240  -32.8890   -0.9590 C.2   116  ASP116      0.2266
    136  O        -15.7670  -32.3200    0.1070 O.2   116  ASP116     -0.2867
    137  CB       -15.6500  -31.4500   -2.9310 C.3   116  ASP116      0.1410
    138  CG       -16.1660  -31.2470   -4.3170 C.2   116  ASP116      0.3668
    139  OD1      -16.7940  -32.1650   -4.8710 O.co2 116  ASP116     -0.2456
    140  OD2      -15.9380  -30.1580   -4.8610 O.co2 116  ASP116     -0.2456
@<TRIPOS>BOND
     1    58    57    2
     2    59    57   am
     3    57    56    1
     4    56    53    1
     5    53    54    1
     6    53    52    1
     7    63    62    2
     8    51    50    2
     9    54    60   am
    10    54    55    2
    11    62    61    1
    12    60    61    1
    13    52    50   am
    14    79    80    1
    15    50    49    1
    16    80    81    1
    17    80    83    1
    18    61    64    1
    19    81    82    2
    20    49    48    1
    21    48    43   am
    22    68    67    2
    23    43    42    1
    24    43    44    2
    25    42    41    1
    26    42    45    1
    27    67    66    1
    28    45    46    1
    29    45    47    1
    30    38    37    2
    31    84    85    1
    32    89    88    1
    33    69    66    1
    34    69    70    1
    35    37    36    1
    36    66    65    1
    37    88    85    1
    38    85    86    1
    39    40    39    1
    40    75    72   ar
    41    75    77   ar
    42    39    36    1
    43    70    72   ar
    44    70    71   ar
    45    36    35    1
    46    72    74   ar
    47    77    78   ar
    48    87    86    2
    49    71    73   ar
    50    12    11    2
    51   132   130    1
    52   131   130    1
    53    74    73   ar
    54    74    76   ar
    55    78    76   ar
    56    26    25    2
    57   130   129    1
    58    11    10    1
    59    16    14    1
    60    22    21    1
    61    25    24    1
    62    13    10    1
    63    13    14    1
    64    10     9    1
    65    17    18    1
    66    18    21    1
    67    18    19    1
    68    15    14    1
    69   129   126    1
    70   128   127    2
    71    29    31   ar
    72    29    28   ar
    73   127   126    1
    74    95    94    1
    75    19    20    2
    76    24    23    1
    77    24    27    1
    78    31    33   ar
    79   126   125    1
    80    27    28    1
    81   124   123   ar
    82   124   122   ar
    83    90    91    1
    84    28    30   ar
    85   123   121   ar
    86     7     6    2
    87   122   120   ar
    88    94    91    1
    89    94    96    1
    90    33    34    1
    91    33    32   ar
    92    91    92    1
    93     4     3    2
    94     8     6   am
    95     6     5    1
    96   110   108   ar
    97   110   109   ar
    98   121   118   ar
    99    30    32   ar
   100   120   118   ar
   101   120   119   ar
   102   108   106   ar
   103     3     2    1
   104   118   116   ar
   105   109   107   ar
   106   119   117   ar
   107    92    93    2
   108     1     2    1
   109   139   138   ar
   110   140   138   ar
   111     5     2    1
   112   138   137    1
   113   106   105   ar
   114   106   104   ar
   115   116   117   ar
   116   116   115    1
   117   107   104   ar
   118   105   103   ar
   119   104   102   ar
   120   115   112    1
   121   114   113    2
   122   137   134    1
   123   113   112    1
   124   103   102   ar
   125   134   133    1
   126   134   135    1
   127   112   111    1
   128   102   101    1
   129    97    98    1
   130   135   136    2
   131   101    98    1
   132    98    99    1
   133    99   100    2
