@<TRIPOS>MOLECULE
tmp/4okdA01.pdb
 88 84 0 0 0
SMALL
GASTEIGER

@<TRIPOS>ATOM
      1  N         22.0190   30.4740   82.4460 N.3   379  LEU379     -0.1245
      2  CA        20.8190   31.1100   81.8820 C.3   379  LEU379      0.1561
      3  C         19.8510   30.1500   81.1440 C.2   379  LEU379      0.2260
      4  O         19.4810   30.3680   79.9920 O.2   379  LEU379     -0.2867
      5  CB        21.2200   32.2930   80.9940 C.3   379  LEU379      0.0270
      6  CG        22.1210   33.3610   81.6300 C.3   379  LEU379      0.0019
      7  CD1       22.2550   34.5350   80.6730 C.3   379  LEU379      0.0001
      8  CD2       21.5880   33.8800   82.9550 C.3   379  LEU379      0.0001
      9  N         16.8610   31.7020   84.6070 N.3   455  TRP455     -0.1227
     10  CA        16.5590   33.1030   84.2470 C.3   455  TRP455      0.1737
     11  C         17.4760   33.5890   83.1290 C.2   455  TRP455      0.2595
     12  O         18.4380   32.9090   82.7650 O.2   455  TRP455     -0.2718
     13  CB        16.6430   34.0200   85.4790 C.3   455  TRP455      0.0564
     14  CG        17.9440   33.9440   86.2260 C.ar  455  TRP455      0.0003
     15  CD1       19.1690   34.2790   85.7480 C.ar  455  TRP455      0.0946
     16  CD2       18.1440   33.5350   87.5890 C.ar  455  TRP455      0.0152
     17  NE1       20.1370   34.0760   86.7110 N.ar  455  TRP455     -0.2442
     18  CE2       19.5330   33.6390   87.8590 C.ar  455  TRP455      0.0810
     19  CE3       17.2900   33.0930   88.6090 C.ar  455  TRP455      0.0012
     20  CZ2       20.0910   33.3100   89.0990 C.ar  455  TRP455      0.0191
     21  CZ3       17.8380   32.7650   89.8470 C.ar  455  TRP455      0.0001
     22  CH2       19.2330   32.8860   90.0840 C.ar  455  TRP455      0.0015
     23  N         17.1920   34.7550   82.5720 N.am  456  ASP456     -0.1960
     24  CA        18.0860   35.3240   81.5660 C.3   456  ASP456      0.1840
     25  C         18.0470   36.8330   81.6630 C.2   456  ASP456      0.2622
     26  O         17.3020   37.3710   82.4890 O.2   456  ASP456     -0.2715
     27  CB        17.7590   34.8060   80.1430 C.3   456  ASP456      0.1450
     28  CG        16.3740   35.2470   79.6260 C.2   456  ASP456      0.3671
     29  OD1       16.0760   36.4480   79.6290 O.co2 456  ASP456     -0.2456
     30  OD2       15.5920   34.3870   79.1720 O.co2 456  ASP456     -0.2456
     31  N         18.8230   37.5050   80.8070 N.am  457  CYS457     -0.1968
     32  CA        18.9820   38.9550   80.8550 C.3   457  CYS457      0.1712
     33  C         17.8200   39.7520   80.3010 C.2   457  CYS457      0.2296
     34  O         17.9090   40.9660   80.2410 O.2   457  CYS457     -0.2864
     35  CB        20.2550   39.3860   80.1270 C.3   457  CYS457      0.0983
     36  SG        21.7640   38.9090   80.9910 S.3   457  CYS457     -0.0798
     37  N         14.8620   39.6680   81.8110 N.3   459  GLY459     -0.1210
     38  CA        13.9190   39.7050   82.9250 C.3   459  GLY459      0.1956
     39  C         13.0230   38.4910   83.0970 C.2   459  GLY459      0.2612
     40  O         12.2410   38.4460   84.0400 O.2   459  GLY459     -0.2717
     41  N         13.1360   37.5120   82.1990 N.am  460  LEU460     -0.1965
     42  CA        12.4900   36.2140   82.3650 C.3   460  LEU460      0.1728
     43  C         13.0940   35.4810   83.5530 C.2   460  LEU460      0.2616
     44  O         14.3050   35.3170   83.6380 O.2   460  LEU460     -0.2715
     45  CB        12.6540   35.3640   81.1000 C.3   460  LEU460      0.0311
     46  CG        11.9500   33.9990   81.0590 C.3   460  LEU460      0.0022
     47  CD1       10.4610   34.1200   81.3970 C.3   460  LEU460      0.0001
     48  CD2       12.1500   33.3880   79.6790 C.3   460  LEU460      0.0001
     49  N         12.2290   35.0700   84.4680 N.am  461  ASN461     -0.1972
     50  CA        12.5840   34.3580   85.6780 C.3   461  ASN461      0.1688
     51  C         11.6160   33.1720   85.8250 C.2   461  ASN461      0.2292
     52  O         10.4050   33.3660   85.8830 O.2   461  ASN461     -0.2864
     53  CB        12.4650   35.3120   86.8740 C.3   461  ASN461      0.1181
     54  CG        13.0040   34.7170   88.1490 C.2   461  ASN461      0.2629
     55  OD1       14.0390   35.1280   88.6540 O.2   461  ASN461     -0.2716
     56  ND2       12.3170   33.7350   88.6670 N.am  461  ASN461     -0.0877
     57  N         17.4620   31.5880   93.9390 N.3   478  GLY478     -0.1225
     58  CA        17.9180   32.9440   94.2630 C.3   478  GLY478      0.1811
     59  C         17.0370   33.6600   95.2650 C.2   478  GLY478      0.2280
     60  O         17.4450   34.6350   95.8870 O.2   478  GLY478     -0.2866
     61  N         18.6810   32.8590   98.5820 N.3   481  ARG481     -0.1231
     62  CA        19.7500   33.8240   98.7990 C.3   481  ARG481      0.1694
     63  C         19.2230   35.1690   99.2990 C.2   481  ARG481      0.2592
     64  O         19.7330   35.7320  100.2560 O.2   481  ARG481     -0.2718
     65  CB        20.5050   34.0430   97.4940 C.3   481  ARG481      0.0321
     66  CG        21.4400   35.2340   97.5200 C.3   481  ARG481      0.0489
     67  CD        21.8110   35.6460   96.1180 C.3   481  ARG481      0.2205
     68  NE        20.6170   35.9570   95.3520 N.pl3 481  ARG481     -0.0865
     69  CZ        20.5590   35.9700   94.0240 C.cat 481  ARG481      0.5346
     70  NH1       21.6380   35.6830   93.3040 N.pl3 481  ARG481      0.1354
     71  NH2       19.4120   36.2480   93.4170 N.pl3 481  ARG481      0.1354
     72  N         18.2020   35.6860   98.6350 N.am  482  ASP482     -0.1974
     73  CA        17.6630   36.9960   98.9900 C.3   482  ASP482      0.1709
     74  C         17.0500   36.9480  100.3770 C.2   482  ASP482      0.2293
     75  O         17.1830   37.8980  101.1600 O.2   482  ASP482     -0.2864
     76  CB        16.6010   37.4430   97.9900 C.3   482  ASP482      0.1436
     77  CG        17.1490   37.6490   96.5910 C.2   482  ASP482      0.3671
     78  OD1       18.3770   37.7800   96.4180 O.co2 482  ASP482     -0.2456
     79  OD2       16.3310   37.6780   95.6520 O.co2 482  ASP482     -0.2456
     80  N         25.5210   42.7190   90.2980 N.3   572  GLU572     -0.1245
     81  CA        24.2730   42.9380   91.0230 C.3   572  GLU572      0.1567
     82  C         24.2050   44.3330   91.6870 C.2   572  GLU572      0.2260
     83  O         25.1700   44.7880   92.2850 O.2   572  GLU572     -0.2867
     84  CB        24.1050   41.8140   92.0580 C.3   572  GLU572      0.0388
     85  CG        22.8400   41.8860   92.9000 C.3   572  GLU572      0.1160
     86  CD        21.5870   42.0350   92.0630 C.2   572  GLU572      0.3649
     87  OE1       21.3000   41.1210   91.2610 O.co2 572  GLU572     -0.2457
     88  OE2       20.8960   43.0630   92.2180 O.co2 572  GLU572     -0.2457
@<TRIPOS>BOND
     1    30    28   ar
     2    28    29   ar
     3    28    27    1
     4    48    46    1
     5     4     3    2
     6    35    32    1
     7    35    36    1
     8    27    24    1
     9    34    33    2
    10    33    32    1
    11     7     6    1
    12    31    32    1
    13    31    25   am
    14     5     6    1
    15     5     2    1
    16    46    45    1
    17    46    47    1
    18    45    42    1
    19     3     2    1
    20    24    25    1
    21    24    23    1
    22     6     8    1
    23    25    26    2
    24    37    38    1
    25     2     1    1
    26    41    42    1
    27    41    39   am
    28    42    43    1
    29    23    11   am
    30    12    11    2
    31    38    39    1
    32    39    40    2
    33    11    10    1
    34    43    44    2
    35    43    49   am
    36    10     9    1
    37    10    13    1
    38    49    50    1
    39    13    14    1
    40    50    51    1
    41    50    53    1
    42    15    14   ar
    43    15    17   ar
    44    51    52    2
    45    14    16   ar
    46    17    18   ar
    47    53    54    1
    48    16    18   ar
    49    16    19   ar
    50    18    20   ar
    51    54    55    2
    52    54    56   am
    53    19    21   ar
    54    20    22   ar
    55    21    22   ar
    56    80    81    1
    57    81    82    1
    58    81    84    1
    59    87    86   ar
    60    82    83    2
    61    84    85    1
    62    86    88   ar
    63    86    85    1
    64    70    69    1
    65    71    69    1
    66    57    58    1
    67    69    68    2
    68    58    59    1
    69    59    60    2
    70    68    67    1
    71    79    77   ar
    72    67    66    1
    73    78    77   ar
    74    77    76    1
    75    65    66    1
    76    65    62    1
    77    76    73    1
    78    61    62    1
    79    72    73    1
    80    72    63   am
    81    62    63    1
    82    73    74    1
    83    63    64    2
    84    74    75    2
