@<TRIPOS>MOLECULE
tmp/4okdA02.pdb
 115 114 0 0 0
SMALL
GASTEIGER

@<TRIPOS>ATOM
      1  N          9.0200   34.9550  108.2000 N.3   497  GLY497     -0.1225
      2  CA         8.1190   33.9960  107.5900 C.3   497  GLY497      0.1811
      3  C          8.7550   33.3490  106.3760 C.2   497  GLY497      0.2280
      4  O          8.7550   32.1220  106.2450 O.2   497  GLY497     -0.2866
      5  N         11.5760   30.9330  107.4080 N.3   500  ALA500     -0.1231
      6  CA        11.0430   29.6390  107.8380 C.3   500  ALA500      0.1694
      7  C         10.7240   28.7480  106.6390 C.2   500  ALA500      0.2592
      8  O         10.8830   27.5190  106.6920 O.2   500  ALA500     -0.2718
      9  CB         9.8060   29.8330  108.6940 C.3   500  ALA500      0.0304
     10  N         10.2670   29.3710  105.5570 N.am  501  SER501     -0.1952
     11  CA         9.9610   28.6310  104.3430 C.3   501  SER501      0.1924
     12  C         11.2520   28.1180  103.7220 C.2   501  SER501      0.2314
     13  O         11.3750   26.9130  103.4290 O.2   501  SER501     -0.2863
     14  CB         9.1560   29.4970  103.3770 C.3   501  SER501      0.2116
     15  OG         7.8750   29.7830  103.9340 O.3   501  SER501     -0.2180
     16  N         12.5900   25.1240  105.2690 N.3   504  CYS504     -0.1235
     17  CA        11.8420   23.9030  104.9120 C.3   504  CYS504      0.1677
     18  C         12.0600   23.3770  103.4790 C.2   504  CYS504      0.2270
     19  O         11.4730   22.3580  103.1160 O.2   504  CYS504     -0.2867
     20  CB        10.3460   24.1060  105.1580 C.3   504  CYS504      0.0956
     21  SG         9.9910   24.3340  106.9020 S.3   504  CYS504     -0.0801
     22  N          8.9000   25.1560  100.2510 N.3   507  PRO507     -0.2102
     23  CA         7.6400   24.6210   99.7360 C.3   507  PRO507      0.1504
     24  C          6.7820   25.7070   99.1230 C.2   507  PRO507      0.2575
     25  O          6.0230   25.4240   98.2310 O.2   507  PRO507     -0.2718
     26  CB         6.9490   24.0530  100.9810 C.3   507  PRO507      0.0282
     27  CG         7.5560   24.7890  102.1220 C.3   507  PRO507      0.0208
     28  CD         8.9920   25.0040  101.7080 C.3   507  PRO507      0.0893
     29  N          6.9190   26.9440   99.5920 N.am  508  ASN508     -0.1975
     30  CA         6.2150   28.0810   98.9930 C.3   508  ASN508      0.1688
     31  C          6.5280   28.3140   97.5020 C.2   508  ASN508      0.2292
     32  O          5.8530   29.1060   96.8350 O.2   508  ASN508     -0.2864
     33  CB         6.4720   29.3580   99.8040 C.3   508  ASN508      0.1181
     34  CG         7.9440   29.7010   99.9190 C.2   508  ASN508      0.2629
     35  OD1        8.8210   28.8250   99.8990 O.2   508  ASN508     -0.2716
     36  ND2        8.2250   30.9860  100.0390 N.am  508  ASN508     -0.0877
     37  N          8.5140   17.2730  101.6630 N.3   675  PHE675     -0.1227
     38  CA         8.5430   18.4510  102.5490 C.3   675  PHE675      0.1736
     39  C          8.1360   18.1410  103.9880 C.2   675  PHE675      0.2595
     40  O          7.1660   17.4320  104.2240 O.2   675  PHE675     -0.2718
     41  CB         7.6600   19.5670  102.0120 C.3   675  PHE675      0.0547
     42  CG         8.2380   20.2590  100.8470 C.ar  675  PHE675     -0.0202
     43  CD1        9.1730   21.2560  101.0310 C.ar  675  PHE675     -0.0042
     44  CD2        7.8820   19.9010   99.5580 C.ar  675  PHE675     -0.0042
     45  CE1        9.7590   21.9000   99.9490 C.ar  675  PHE675     -0.0003
     46  CE2        8.4540   20.5430   98.4660 C.ar  675  PHE675     -0.0003
     47  CZ         9.3970   21.5470   98.6630 C.ar  675  PHE675     -0.0000
     48  N          8.8770   18.6770  104.9550 N.am  676  VAL676     -0.1966
     49  CA         8.5410   18.4870  106.3780 C.3   676  VAL676      0.1727
     50  C          7.1150   18.9190  106.6900 C.2   676  VAL676      0.2616
     51  O          6.6090   19.8490  106.0840 O.2   676  VAL676     -0.2715
     52  CB         9.4950   19.2580  107.3200 C.3   676  VAL676      0.0290
     53  CG1       10.8710   18.6210  107.2990 C.3   676  VAL676      0.0023
     54  CG2        9.5800   20.7440  106.9670 C.3   676  VAL676      0.0023
     55  N          6.4820   18.2430  107.6410 N.am  677  ASN677     -0.1958
     56  CA         5.1440   18.6270  108.1250 C.3   677  ASN677      0.1819
     57  C          5.2040   19.0230  109.6170 C.2   677  ASN677      0.2621
     58  O          6.2890   19.1600  110.1760 O.2   677  ASN677     -0.2715
     59  CB         4.1430   17.4990  107.8500 C.3   677  ASN677      0.1195
     60  CG         4.4370   16.2290  108.6400 C.2   677  ASN677      0.2630
     61  OD1        4.9840   16.2610  109.7480 O.2   677  ASN677     -0.2716
     62  ND2        4.0520   15.1010  108.0800 N.am  677  ASN677     -0.0877
     63  N          4.0640   19.2040  110.2750 N.am  678  ASP678     -0.1971
     64  CA         4.0900   19.6890  111.6630 C.3   678  ASP678      0.1709
     65  C          4.5170   18.6440  112.6920 C.2   678  ASP678      0.2293
     66  O          4.7880   18.9950  113.8300 O.2   678  ASP678     -0.2864
     67  CB         2.7750   20.3910  112.0650 C.3   678  ASP678      0.1436
     68  CG         1.5380   19.5340  111.8510 C.2   678  ASP678      0.3671
     69  OD1        1.6600   18.4120  111.3200 O.co2 678  ASP678     -0.2456
     70  OD2        0.4250   19.9910  112.1960 O.co2 678  ASP678     -0.2456
     71  N          8.6070   19.2460  112.1810 N.3   681  ILE681     -0.1231
     72  CA         9.1720   20.5410  112.6150 C.3   681  ILE681      0.1692
     73  C          8.1460   21.4360  113.3260 C.2   681  ILE681      0.2592
     74  O          6.9740   21.4510  112.9500 O.2   681  ILE681     -0.2718
     75  CB         9.7320   21.3060  111.4030 C.3   681  ILE681      0.0266
     76  CG1       10.5930   22.4910  111.8310 C.3   681  ILE681      0.0019
     77  CG2        8.6230   21.7820  110.4830 C.3   681  ILE681      0.0020
     78  CD1       11.5380   22.9630  110.7400 C.3   681  ILE681      0.0001
     79  N          8.5880   22.1630  114.3570 N.am  682  GLN682     -0.1966
     80  CA         7.7320   23.1330  115.0710 C.3   682  GLN682      0.1733
     81  C          8.4570   24.4740  115.2290 C.2   682  GLN682      0.2616
     82  O          9.6760   24.5100  115.3000 O.2   682  GLN682     -0.2715
     83  CB         7.3260   22.6130  116.4540 C.3   682  GLN682      0.0408
     84  CG         6.6520   21.2430  116.4800 C.3   682  GLN682      0.0908
     85  CD         7.6120   20.1080  116.1880 C.2   682  GLN682      0.2608
     86  OE1        8.7920   20.1530  116.5760 O.2   682  GLN682     -0.2717
     87  NE2        7.1290   19.0880  115.4780 N.am  682  GLN682     -0.0878
     88  N          7.7060   25.5670  115.2970 N.am  683  TRP683     -0.1974
     89  CA         8.2850   26.9150  115.3620 C.3   683  TRP683      0.1640
     90  C          8.1220   27.5510  116.7270 C.2   683  TRP683      0.2290
     91  O          7.0510   27.4550  117.3330 O.2   683  TRP683     -0.2864
     92  CB         7.6290   27.8080  114.3210 C.3   683  TRP683      0.0576
     93  CG         7.7270   27.2010  112.9940 C.ar  683  TRP683      0.0006
     94  CD1        6.7600   26.5460  112.3400 C.ar  683  TRP683      0.0946
     95  CD2        8.8970   27.1160  112.1870 C.ar  683  TRP683      0.0152
     96  NE1        7.2290   26.0760  111.1470 N.ar  683  TRP683     -0.2442
     97  CE2        8.5460   26.4110  111.0290 C.ar  683  TRP683      0.0810
     98  CE3       10.2150   27.5710  112.3330 C.ar  683  TRP683      0.0012
     99  CZ2        9.4500   26.1540  110.0100 C.ar  683  TRP683      0.0191
    100  CZ3       11.1150   27.3160  111.3190 C.ar  683  TRP683      0.0001
    101  CH2       10.7290   26.6070  110.1720 C.ar  683  TRP683      0.0015
    102  N          6.0640   36.1860  113.5310 N.3   693  TRP693     -0.1241
    103  CA         5.9960   36.2960  112.0800 C.3   693  TRP693      0.1605
    104  C          5.6940   37.7340  111.6510 C.2   693  TRP693      0.2264
    105  O          5.4610   37.9930  110.4750 O.2   693  TRP693     -0.2867
    106  CB         4.8780   35.3910  111.5470 C.3   693  TRP693      0.0550
    107  CG         5.0320   33.9240  111.8610 C.ar  693  TRP693      0.0003
    108  CD1        4.0680   33.0870  112.3550 C.ar  693  TRP693      0.0946
    109  CD2        6.2100   33.1190  111.6930 C.ar  693  TRP693      0.0152
    110  NE1        4.5720   31.8150  112.5040 N.ar  693  TRP693     -0.2442
    111  CE2        5.8820   31.8080  112.1000 C.ar  693  TRP693      0.0810
    112  CE3        7.5120   33.3800  111.2460 C.ar  693  TRP693      0.0012
    113  CZ2        6.8070   30.7630  112.0710 C.ar  693  TRP693      0.0191
    114  CZ3        8.4330   32.3450  111.2190 C.ar  693  TRP693      0.0001
    115  CH2        8.0740   31.0510  111.6290 C.ar  693  TRP693      0.0015
@<TRIPOS>BOND
     1    32    31    2
     2    31    30    1
     3    25    24    2
     4    46    47   ar
     5    46    44   ar
     6    47    45   ar
     7    30    29    1
     8    30    33    1
     9    24    29   am
    10    24    23    1
    11    44    42   ar
    12    23    22    1
    13    23    26    1
    14    33    34    1
    15    35    34    2
    16    34    36   am
    17    45    43   ar
    18    22    28    1
    19    42    43   ar
    20    42    41    1
    21    26    27    1
    22    37    38    1
    23    28    27    1
    24    41    38    1
    25    38    39    1
    26    19    18    2
    27    14    15    1
    28    14    11    1
    29    13    12    2
    30    18    17    1
    31    12    11    1
    32    39    40    2
    33    39    48   am
    34    11    10    1
    35    17    20    1
    36    17    16    1
    37    48    49    1
    38    20    21    1
    39    10     7   am
    40    51    50    2
    41     4     3    2
    42     3     2    1
    43    49    50    1
    44    49    52    1
    45     7     8    2
    46     7     6    1
    47    50    55   am
    48    54    52    1
    49    53    52    1
    50     5     6    1
    51     2     1    1
    52    55    56    1
    53     6     9    1
    54    59    56    1
    55    59    60    1
    56    62    60   am
    57    56    57    1
    58    60    61    2
    59    57    58    2
    60    57    63   am
    61    99   101   ar
    62    99    97   ar
    63   101   100   ar
    64    63    64    1
    65   105   104    2
    66    77    75    1
    67    78    76    1
    68    97    96   ar
    69    97    95   ar
    70    96    94   ar
    71   114   112   ar
    72   114   115   ar
    73   112   109   ar
    74   100    98   ar
    75    69    68   ar
    76    75    76    1
    77    75    72    1
    78   106   107    1
    79   106   103    1
    80   115   113   ar
    81   104   103    1
    82    64    67    1
    83    64    65    1
    84   109   107   ar
    85   109   111   ar
    86    68    67    1
    87    68    70   ar
    88   107   108   ar
    89   113   111   ar
    90   103   102    1
    91   111   110   ar
    92    71    72    1
    93    95    98   ar
    94    95    93   ar
    95    94    93   ar
    96   108   110   ar
    97    72    73    1
    98    65    66    2
    99    74    73    2
   100    93    92    1
   101    73    79   am
   102    92    89    1
   103    79    80    1
   104    80    81    1
   105    80    83    1
   106    81    88   am
   107    81    82    2
   108    88    89    1
   109    89    90    1
   110    87    85   am
   111    85    84    1
   112    85    86    2
   113    83    84    1
   114    90    91    2
