@<TRIPOS>MOLECULE
tmp/4okdA03.pdb
 98 96 0 0 0
SMALL
GASTEIGER

@<TRIPOS>ATOM
      1  N         20.6910   39.6750  108.2690 N.3   489  LYS489     -0.1231
      2  CA        21.2780   40.9820  108.5760 C.3   489  LYS489      0.1693
      3  C         20.3890   41.8400  109.5000 C.2   489  LYS489      0.2593
      4  O         20.8440   42.8600  110.0070 O.2   489  LYS489     -0.2718
      5  CB        21.6390   41.7400  107.2980 C.3   489  LYS489      0.0285
      6  CG        20.4800   42.3420  106.5160 C.3   489  LYS489      0.0035
      7  CD        20.9940   43.0560  105.2770 C.3   489  LYS489      0.0206
      8  CE        19.8670   43.4160  104.3170 C.3   489  LYS489      0.1093
      9  NZ        18.7940   44.2100  104.9730 N.3   489  LYS489     -0.1314
     10  N         19.1350   41.4190  109.6950 N.am  490  GLY490     -0.1942
     11  CA        18.1840   42.1080  110.5620 C.3   490  GLY490      0.2014
     12  C         17.4050   43.1520  109.7960 C.2   490  GLY490      0.2639
     13  O         17.8780   44.2690  109.6280 O.2   490  GLY490     -0.2714
     14  N         16.2070   42.7980  109.3400 N.am  491  THR491     -0.1950
     15  CA        15.4650   43.6390  108.3930 C.3   491  THR491      0.1897
     16  C         13.9530   43.4690  108.5500 C.2   491  THR491      0.2313
     17  O         13.4560   42.3490  108.5990 O.2   491  THR491     -0.2863
     18  CB        15.8060   43.2510  106.9270 C.3   491  THR491      0.1794
     19  OG1       17.2180   42.9770  106.7700 O.3   491  THR491     -0.2208
     20  CG2       15.3650   44.3360  105.9650 C.3   491  THR491      0.0378
     21  N         28.4720   47.4250  102.1930 N.3   557  ASN557     -0.1240
     22  CA        27.1230   47.8290  101.8100 C.3   557  ASN557      0.1653
     23  C         26.9780   47.9070  100.3060 C.2   557  ASN557      0.2266
     24  O         25.8960   47.6730   99.7850 O.2   557  ASN557     -0.2867
     25  CB        26.7730   49.1950  102.4060 C.3   557  ASN557      0.1155
     26  CG        26.3120   49.1130  103.8420 C.2   557  ASN557      0.2627
     27  OD1       26.0980   48.0350  104.3910 O.2   557  ASN557     -0.2716
     28  ND2       26.1430   50.2620  104.4550 N.am  557  ASN557     -0.0877
     29  N         21.6920   43.0740   99.1610 N.3   576  ASN576     -0.1225
     30  CA        21.0760   42.8120  100.4600 C.3   576  ASN576      0.1785
     31  C         22.1330   42.5600  101.5070 C.2   576  ASN576      0.2598
     32  O         22.0070   41.6590  102.3190 O.2   576  ASN576     -0.2718
     33  CB        20.1480   41.6070  100.3910 C.3   576  ASN576      0.1169
     34  CG        19.1300   41.7270   99.2960 C.2   576  ASN576      0.2627
     35  OD1       19.2310   41.0720   98.2790 O.2   576  ASN576     -0.2716
     36  ND2       18.1560   42.5670   99.4980 N.am  576  ASN576     -0.0877
     37  N         23.1790   43.3690  101.4640 N.am  577  SER577     -0.1938
     38  CA        24.3210   43.2200  102.3350 C.3   577  SER577      0.2055
     39  C         24.3360   44.3300  103.3900 C.2   577  SER577      0.2643
     40  O         23.6500   45.3430  103.2650 O.2   577  SER577     -0.2714
     41  CB        25.6020   43.2680  101.4990 C.3   577  SER577      0.2130
     42  OG        25.7500   44.5160  100.8440 O.3   577  SER577     -0.2179
     43  N         25.1180   44.1110  104.4370 N.am  578  TRP578     -0.1973
     44  CA        25.3420   45.0980  105.4710 C.3   578  TRP578      0.1640
     45  C         26.7720   44.9470  105.9550 C.2   578  TRP578      0.2290
     46  O         27.2190   43.8400  106.2510 O.2   578  TRP578     -0.2864
     47  CB        24.3580   44.9210  106.6290 C.3   578  TRP578      0.0576
     48  CG        24.6480   45.8430  107.7540 C.ar  578  TRP578      0.0006
     49  CD1       24.9850   47.1540  107.6600 C.ar  578  TRP578      0.0946
     50  CD2       24.6300   45.5310  109.1490 C.ar  578  TRP578      0.0152
     51  NE1       25.1930   47.6810  108.9040 N.ar  578  TRP578     -0.2442
     52  CE2       24.9760   46.7090  109.8410 C.ar  578  TRP578      0.0810
     53  CE3       24.3610   44.3690  109.8830 C.ar  578  TRP578      0.0012
     54  CZ2       25.0510   46.7690  111.2350 C.ar  578  TRP578      0.0191
     55  CZ3       24.4400   44.4310  111.2670 C.ar  578  TRP578      0.0001
     56  CH2       24.7820   45.6270  111.9270 C.ar  578  TRP578      0.0015
     57  N         12.6280   39.5010  114.6800 N.3   698  ARG698     -0.1245
     58  CA        14.0670   39.3170  114.5820 C.3   698  ARG698      0.1563
     59  C         14.4630   37.9670  115.1410 C.2   698  ARG698      0.2260
     60  O         15.5750   37.8230  115.6640 O.2   698  ARG698     -0.2867
     61  CB        14.8140   40.4250  115.3370 C.3   698  ARG698      0.0307
     62  CG        14.7400   41.7960  114.6840 C.3   698  ARG698      0.0489
     63  CD        15.5900   41.8990  113.4090 C.3   698  ARG698      0.2205
     64  NE        15.6700   43.2860  112.9190 N.pl3 698  ARG698     -0.0865
     65  CZ        14.6830   43.9250  112.2910 C.cat 698  ARG698      0.5346
     66  NH1       13.5250   43.3160  112.0510 N.pl3 698  ARG698      0.1354
     67  NH2       14.8490   45.1850  111.9030 N.pl3 698  ARG698      0.1354
     68  N         18.3270   37.6960  115.2260 N.3   718  THR718     -0.1218
     69  CA        18.8650   38.6890  114.3000 C.3   718  THR718      0.1862
     70  C         18.6510   40.1010  114.8210 C.2   718  THR718      0.2287
     71  O         18.7910   41.0780  114.0730 O.2   718  THR718     -0.2866
     72  CB        18.1890   38.5730  112.9340 C.3   718  THR718      0.1770
     73  OG1       16.7750   38.7950  113.0850 O.3   718  THR718     -0.2211
     74  CG2       18.4560   37.1830  112.3240 C.3   718  THR718      0.0375
     75  N         19.4700   43.3870  117.3330 N.3   720  HIS720     -0.1241
     76  CA        20.6030   44.1190  117.8780 C.3   720  HIS720      0.1621
     77  C         20.6980   43.9250  119.3900 C.2   720  HIS720      0.2264
     78  O         21.7150   44.2970  119.9870 O.2   720  HIS720     -0.2867
     79  CB        20.5300   45.6200  117.5250 C.3   720  HIS720      0.0745
     80  CG        19.4780   46.3830  118.2660 C.ar  720  HIS720      0.0817
     81  ND1       18.1330   46.2740  117.9800 N.ar  720  HIS720     -0.2268
     82  CD2       19.5760   47.2900  119.2660 C.ar  720  HIS720      0.1154
     83  CE1       17.4470   47.0680  118.7840 C.ar  720  HIS720      0.1986
     84  NE2       18.3000   47.6960  119.5750 N.ar  720  HIS720     -0.2212
     85  N         22.5550   39.1180  116.9770 N.3   782  TRP782     -0.1241
     86  CA        23.0820   38.5450  115.7390 C.3   782  TRP782      0.1605
     87  C         23.8510   37.2850  116.0440 C.2   782  TRP782      0.2264
     88  O         25.0740   37.2350  115.9370 O.2   782  TRP782     -0.2867
     89  CB        23.9720   39.5440  115.0100 C.3   782  TRP782      0.0550
     90  CG        23.2500   40.7460  114.4930 C.ar  782  TRP782      0.0003
     91  CD1       22.3820   40.7950  113.4470 C.ar  782  TRP782      0.0946
     92  CD2       23.3720   42.0840  114.9760 C.ar  782  TRP782      0.0152
     93  NE1       21.9450   42.0840  113.2490 N.ar  782  TRP782     -0.2442
     94  CE2       22.5490   42.8970  114.1690 C.ar  782  TRP782      0.0810
     95  CE3       24.0940   42.6750  116.0190 C.ar  782  TRP782      0.0012
     96  CZ2       22.4220   44.2720  114.3780 C.ar  782  TRP782      0.0191
     97  CZ3       23.9800   44.0470  116.2210 C.ar  782  TRP782      0.0001
     98  CH2       23.1470   44.8280  115.4080 C.ar  782  TRP782      0.0015
@<TRIPOS>BOND
     1    35    34    2
     2    29    30    1
     3    34    36   am
     4    34    33    1
     5    24    23    2
     6    23    22    1
     7    33    30    1
     8    30    31    1
     9    42    41    1
    10    37    31   am
    11    37    38    1
    12    41    38    1
    13    31    32    2
    14    22    21    1
    15    22    25    1
    16    38    39    1
    17    25    26    1
    18    40    39    2
    19    39    43   am
    20    26    27    2
    21    26    28   am
    22     8     9    1
    23     8     7    1
    24    43    44    1
    25     7     6    1
    26    44    45    1
    27    44    47    1
    28    45    46    2
    29    20    18    1
    30     6     5    1
    31    47    48    1
    32    19    18    1
    33    18    15    1
    34     5     2    1
    35    49    48   ar
    36    49    51   ar
    37    48    50   ar
    38     1     2    1
    39    15    16    1
    40    15    14    1
    41    16    17    2
    42     2     3    1
    43    51    52   ar
    44    50    52   ar
    45    50    53   ar
    46    14    12   am
    47     3    10   am
    48     3     4    2
    49    13    12    2
    50    10    11    1
    51    12    11    1
    52    52    54   ar
    53    53    55   ar
    54    54    56   ar
    55    55    56   ar
    56    67    65    1
    57    66    65    1
    58    65    64    2
    59    74    72    1
    60    64    63    1
    61    72    73    1
    62    72    69    1
    63    93    91   ar
    64    93    94   ar
    65    63    62    1
    66    91    90   ar
    67    71    70    2
    68    94    96   ar
    69    94    92   ar
    70    69    70    1
    71    69    68    1
    72    96    98   ar
    73    90    92   ar
    74    90    89    1
    75    58    57    1
    76    58    59    1
    77    58    61    1
    78    62    61    1
    79    92    95   ar
    80    89    86    1
    81    59    60    2
    82    98    97   ar
    83    86    87    1
    84    86    85    1
    85    88    87    2
    86    95    97   ar
    87    75    76    1
    88    79    76    1
    89    79    80    1
    90    76    77    1
    91    81    80   ar
    92    81    83   ar
    93    80    82   ar
    94    83    84   ar
    95    82    84   ar
    96    77    78    2
