@<TRIPOS>MOLECULE
tmp/4okeB00.pdb
 112 109 0 0 0
SMALL
GASTEIGER

@<TRIPOS>ATOM
      1  N         20.7490   58.8330   25.2660 N.3     6  ASP6       -0.1225
      2  CA        20.1100   60.0740   25.6440 C.3     6  ASP6        0.1805
      3  C         21.0790   60.8680   26.4650 C.2     6  ASP6        0.2598
      4  O         21.8850   60.3040   27.1300 O.2     6  ASP6       -0.2718
      5  CB        18.8660   59.8390   26.5030 C.3     6  ASP6        0.1424
      6  CG        18.1630   61.1200   26.8930 C.2     6  ASP6        0.3668
      7  OD1       17.6770   61.7670   26.0200 O.co2   6  ASP6       -0.2456
      8  OD2       18.0910   61.4470   28.0510 O.co2   6  ASP6       -0.2456
      9  N         20.9910   62.2220   26.4890 N.am    7  THR7       -0.1953
     10  CA        21.9220   63.0300   27.2420 C.3     7  THR7        0.1897
     11  C         21.1880   64.0530   28.1180 C.2     7  THR7        0.2313
     12  O         20.0230   64.3550   27.8720 O.2     7  THR7       -0.2863
     13  CB        22.8580   63.8170   26.3140 C.3     7  THR7        0.1794
     14  OG1       22.1060   64.8350   25.5710 O.3     7  THR7       -0.2208
     15  CG2       23.6870   62.8820   25.3780 C.3     7  THR7        0.0378
     16  N         22.1130   68.1040   29.7990 N.3     9  PHE9       -0.1241
     17  CA        23.0640   69.1330   29.4580 C.3     9  PHE9        0.1605
     18  C         22.5060   70.4830   29.8740 C.2     9  PHE9        0.2264
     19  O         21.3430   70.5790   30.3180 O.2     9  PHE9       -0.2867
     20  CB        23.3880   69.0970   27.9320 C.3     9  PHE9        0.0534
     21  CG        22.1760   69.0430   27.0580 C.ar    9  PHE9       -0.0203
     22  CD1       21.3780   70.1630   26.8820 C.ar    9  PHE9       -0.0042
     23  CD2       21.8530   67.8840   26.3330 C.ar    9  PHE9       -0.0042
     24  CE1       20.2150   70.1140   26.0830 C.ar    9  PHE9       -0.0003
     25  CE2       20.6870   67.8330   25.4800 C.ar    9  PHE9       -0.0003
     26  CZ        19.8720   68.9620   25.3130 C.ar    9  PHE9       -0.0000
     27  N         15.4140   59.6310   20.9320 N.3    90  TRP90      -0.1227
     28  CA        14.1010   60.2240   20.7990 C.3    90  TRP90       0.1737
     29  C         14.2210   61.7530   20.8240 C.2    90  TRP90       0.2595
     30  O         14.5640   62.2990   21.8190 O.2    90  TRP90      -0.2718
     31  CB        13.2600   59.8380   21.9850 C.3    90  TRP90       0.0564
     32  CG        11.8380   60.2280   21.9270 C.ar   90  TRP90       0.0003
     33  CD1       11.3260   61.3940   22.2660 C.ar   90  TRP90       0.0946
     34  CD2       10.7570   59.4160   21.5130 C.ar   90  TRP90       0.0152
     35  NE1        9.9830   61.3980   22.0870 N.ar   90  TRP90      -0.2442
     36  CE2        9.6020   60.1690   21.6460 C.ar   90  TRP90       0.0810
     37  CE3       10.6470   58.1110   21.0910 C.ar   90  TRP90       0.0012
     38  CZ2        8.3690   59.6750   21.3040 C.ar   90  TRP90       0.0191
     39  CZ3        9.4230   57.6360   20.7540 C.ar   90  TRP90       0.0001
     40  CH2        8.3130   58.4110   20.8670 C.ar   90  TRP90       0.0015
     41  N         13.8890   62.4130   19.7380 N.am   91  VAL91      -0.1980
     42  CA        13.8700   63.8690   19.6250 C.3    91  VAL91       0.1595
     43  C         15.2610   64.3010   19.9900 C.2    91  VAL91       0.2287
     44  O         15.4450   64.9760   20.9470 O.2    91  VAL91      -0.2864
     45  CB        12.8080   64.5110   20.5820 C.3    91  VAL91       0.0276
     46  CG1       12.8180   66.0080   20.5470 C.3    91  VAL91       0.0022
     47  CG2       11.4030   63.9750   20.3390 C.3    91  VAL91       0.0022
     48  N         18.1950   65.8220   18.1780 N.3    93  ALA93      -0.1231
     49  CA        19.0860   66.7600   17.5290 C.3    93  ALA93       0.1694
     50  C         20.1680   67.2680   18.5000 C.2    93  ALA93       0.2592
     51  O         21.2990   67.1120   18.2370 O.2    93  ALA93      -0.2718
     52  CB        18.3290   67.8790   17.0030 C.3    93  ALA93       0.0304
     53  N         19.7650   67.9020   19.6020 N.am   94  TYR94      -0.1962
     54  CA        20.7990   68.3260   20.5930 C.3    94  TYR94       0.1771
     55  C         21.5780   67.1460   21.1780 C.2    94  TYR94       0.2619
     56  O         22.7710   67.2620   21.4170 O.2    94  TYR94      -0.2715
     57  CB        20.0820   69.0760   21.7150 C.3    94  TYR94       0.0574
     58  CG        19.5430   70.4360   21.3120 C.ar   94  TYR94      -0.0198
     59  CD1       18.3240   70.5280   20.6390 C.ar   94  TYR94      -0.0009
     60  CD2       20.2150   71.5730   21.6700 C.ar   94  TYR94      -0.0009
     61  CE1       17.7770   71.8530   20.3180 C.ar   94  TYR94       0.0417
     62  CE2       19.7210   72.8290   21.3350 C.ar   94  TYR94       0.0417
     63  CZ        18.5400   72.9420   20.6600 C.ar   94  TYR94       0.1957
     64  OH        18.0960   74.2230   20.4250 O.3    94  TYR94      -0.2866
     65  N         20.9360   65.9900   21.3400 N.am   95  ASP95      -0.1971
     66  CA        21.6770   64.8300   21.8260 C.3    95  ASP95       0.1709
     67  C         22.7850   64.4140   20.8260 C.2    95  ASP95       0.2293
     68  O         23.8880   64.0040   21.2590 O.2    95  ASP95      -0.2864
     69  CB        20.7090   63.6450   22.0370 C.3    95  ASP95       0.1436
     70  CG        19.6290   63.9960   23.0140 C.2    95  ASP95       0.3671
     71  OD1       19.9180   63.8370   24.1910 O.co2  95  ASP95      -0.2456
     72  OD2       18.4890   64.4170   22.6180 O.co2  95  ASP95      -0.2456
     73  N         11.1650   58.9290   17.5600 N.3   121  ARG121     -0.1245
     74  CA         9.7920   59.4440   17.4860 C.3   121  ARG121      0.1563
     75  C          9.2250   59.3880   16.0720 C.2   121  ARG121      0.2260
     76  O          7.9920   59.2170   15.8710 O.2   121  ARG121     -0.2867
     77  CB         9.7650   60.8960   17.9340 C.3   121  ARG121      0.0307
     78  CG         8.2590   61.4430   18.0690 C.3   121  ARG121      0.0489
     79  CD         8.2020   62.7730   18.7090 C.3   121  ARG121      0.2205
     80  NE         6.8830   63.4400   18.6260 N.pl3 121  ARG121     -0.0865
     81  CZ         6.5130   64.4260   19.4660 C.cat 121  ARG121      0.5346
     82  NH1        7.3290   64.8010   20.4660 N.pl3 121  ARG121      0.1354
     83  NH2        5.3350   65.0270   19.3350 N.pl3 121  ARG121      0.1354
     84  N         14.8170   62.2150   33.1770 N.3   140  HIS140     -0.1241
     85  CA        15.8690   63.1830   33.2990 C.3   140  HIS140      0.1621
     86  C         17.1340   62.6360   33.9710 C.2   140  HIS140      0.2264
     87  O         18.0180   63.3660   34.2910 O.2   140  HIS140     -0.2867
     88  CB        15.3790   64.4990   33.8960 C.3   140  HIS140      0.0745
     89  CG        14.0750   64.9460   33.3450 C.ar  140  HIS140      0.0817
     90  ND1       13.8610   65.1430   32.0010 N.ar  140  HIS140     -0.2268
     91  CD2       12.9010   65.1990   33.9530 C.ar  140  HIS140      0.1154
     92  CE1       12.6120   65.5070   31.8100 C.ar  140  HIS140      0.1986
     93  NE2       12.0090   65.5370   32.9780 N.ar  140  HIS140     -0.2212
     94  N         16.4850   57.1930   30.8020 N.3   145  ASP145     -0.1239
     95  CA        15.8510   57.6510   29.5650 C.3   145  ASP145      0.1674
     96  C         16.3140   56.7750   28.3630 C.2   145  ASP145      0.2266
     97  O         15.4950   56.3720   27.5120 O.2   145  ASP145     -0.2867
     98  CB        16.1480   59.1300   29.3780 C.3   145  ASP145      0.1410
     99  CG        15.3010   60.0350   30.2900 C.2   145  ASP145      0.3668
    100  OD1       14.2310   59.6040   30.8410 O.co2 145  ASP145     -0.2456
    101  OD2       15.6770   61.2300   30.4450 O.co2 145  ASP145     -0.2456
    102  N         10.9230   51.2200   24.0410 N.3   152  ARG152     -0.1245
    103  CA        10.0080   51.7660   23.0210 C.3   152  ARG152      0.1563
    104  C         10.3320   51.1220   21.6770 C.2   152  ARG152      0.2260
    105  O          9.4300   50.7180   20.9500 O.2   152  ARG152     -0.2867
    106  CB        10.0700   53.2780   22.9290 C.3   152  ARG152      0.0307
    107  CG         9.4640   53.9940   24.1750 C.3   152  ARG152      0.0489
    108  CD         9.8740   55.4410   24.1560 C.3   152  ARG152      0.2205
    109  NE         9.0310   56.2530   25.0010 N.pl3 152  ARG152     -0.0865
    110  CZ         9.2040   57.5590   25.2200 C.cat 152  ARG152      0.5346
    111  NH1       10.2280   58.2410   24.6700 N.pl3 152  ARG152      0.1354
    112  NH2        8.3410   58.1830   26.0290 N.pl3 152  ARG152      0.1354
@<TRIPOS>BOND
     1    76    75    2
     2    75    74    1
     3    52    49    1
     4    74    73    1
     5    74    77    1
     6    49    48    1
     7    49    50    1
     8    77    78    1
     9    78    79    1
    10    51    50    2
    11    50    53   am
    12    80    79    1
    13    80    81    2
    14    83    81    1
    15    81    82    1
    16    53    54    1
    17    42    41    1
    18    42    43    1
    19    42    45    1
    20    41    29   am
    21    43    44    2
    22    61    59   ar
    23    61    63   ar
    24    47    45    1
    25    64    63    1
    26    46    45    1
    27    54    55    1
    28    54    57    1
    29    59    58   ar
    30    63    62   ar
    31    39    40   ar
    32    39    37   ar
    33    28    29    1
    34    28    27    1
    35    28    31    1
    36    29    30    2
    37    67    68    2
    38    67    66    1
    39    40    38   ar
    40   105   104    2
    41    37    34   ar
    42    55    65   am
    43    55    56    2
    44    38    36   ar
    45    58    60   ar
    46    58    57    1
    47    62    60   ar
    48    65    66    1
    49    34    36   ar
    50    34    32   ar
    51    36    35   ar
    52   104   103    1
    53    66    69    1
    54    32    31    1
    55    32    33   ar
    56    69    70    1
    57    35    33   ar
    58    72    70   ar
    59   106   103    1
    60   106   107    1
    61    70    71   ar
    62   103   102    1
    63   108   107    1
    64   108   109    1
    65   111   110    1
    66   109   110    2
    67   110   112    1
    68     1     2    1
    69    26    25   ar
    70    26    24   ar
    71    15    13    1
    72    25    23   ar
    73    14    13    1
    74     2     3    1
    75     2     5    1
    76     7     6   ar
    77    24    22   ar
    78    13    10    1
    79    23    21   ar
    80     3     9   am
    81     3     4    2
    82     9    10    1
    83     5     6    1
    84    22    21   ar
    85     6     8   ar
    86    21    20    1
    87    10    11    1
    88    97    96    2
    89    12    11    2
    90    20    17    1
    91    96    95    1
    92    98    95    1
    93    98    99    1
    94    17    16    1
    95    17    18    1
    96    95    94    1
    97    18    19    2
    98    99   101   ar
    99    99   100   ar
   100    92    90   ar
   101    92    93   ar
   102    90    89   ar
   103    93    91   ar
   104    84    85    1
   105    85    88    1
   106    85    86    1
   107    89    88    1
   108    89    91   ar
   109    86    87    2
