@<TRIPOS>MOLECULE
tmp/4okeA00.pdb
 113 111 0 0 0
SMALL
GASTEIGER

@<TRIPOS>ATOM
      1  N         17.4690   73.4020    4.8560 N.3     6  ASP6       -0.1225
      2  CA        18.8770   73.1010    4.9390 C.3     6  ASP6        0.1805
      3  C         19.5480   74.3590    5.4620 C.2     6  ASP6        0.2598
      4  O         19.0440   75.4170    5.2830 O.2     6  ASP6       -0.2718
      5  CB        19.4650   72.7410    3.5900 C.3     6  ASP6        0.1424
      6  CG        20.9550   72.3950    3.6680 C.2     6  ASP6        0.3668
      7  OD1       21.2330   71.3980    4.3050 O.co2   6  ASP6       -0.2456
      8  OD2       21.8070   73.1610    3.1240 O.co2   6  ASP6       -0.2456
      9  N         20.6910   74.1340    6.0870 N.am    7  THR7       -0.1939
     10  CA        21.4360   75.3010    6.5930 C.3     7  THR7        0.2028
     11  C         22.8880   75.1640    6.2450 C.2     7  THR7        0.2642
     12  O         23.3670   74.0390    6.0930 O.2     7  THR7       -0.2714
     13  CB        21.3540   75.4490    8.1430 C.3     7  THR7        0.1808
     14  OG1       21.9790   74.3190    8.8150 O.3     7  THR7       -0.2208
     15  CG2       19.8610   75.5830    8.6030 C.3     7  THR7        0.0379
     16  N         23.6060   76.2480    6.1050 N.am    8  GLU8       -0.1963
     17  CA        25.0690   76.2170    5.9940 C.3     8  GLU8        0.1733
     18  C         25.5690   76.9240    7.2210 C.2     8  GLU8        0.2616
     19  O         24.8790   77.8350    7.7340 O.2     8  GLU8       -0.2715
     20  CB        25.5870   76.9010    4.7220 C.3     8  GLU8        0.0429
     21  CG        25.0400   76.2540    3.4410 C.3     8  GLU8        0.1163
     22  CD        25.5060   74.8010    3.2560 C.2     8  GLU8        0.3649
     23  OE1       26.6030   74.4570    3.6610 O.co2   8  GLU8       -0.2457
     24  OE2       24.7440   74.0050    2.6950 O.co2   8  GLU8       -0.2457
     25  N         26.7440   76.4970    7.6940 N.am    9  PHE9       -0.1960
     26  CA        27.2430   76.9870    8.9990 C.3     9  PHE9        0.1771
     27  C         28.7150   76.7640    9.1620 C.2     9  PHE9        0.2619
     28  O         29.3360   76.0530    8.3180 O.2     9  PHE9       -0.2715
     29  CB        26.4110   76.4020   10.1810 C.3     9  PHE9        0.0574
     30  CG        26.2760   74.8960   10.1140 C.ar    9  PHE9       -0.0200
     31  CD1       27.3930   74.0760   10.3670 C.ar    9  PHE9       -0.0042
     32  CD2       25.0450   74.3110    9.7680 C.ar    9  PHE9       -0.0042
     33  CE1       27.3130   72.6910   10.2890 C.ar    9  PHE9       -0.0003
     34  CE2       24.9440   72.9210    9.6990 C.ar    9  PHE9       -0.0003
     35  CZ        26.0510   72.1240    9.9740 C.ar    9  PHE9       -0.0000
     36  N         29.3260   77.4110   10.1860 N.am   10  ILE10      -0.1963
     37  CA        30.7250   77.1850   10.5360 C.3    10  ILE10       0.1727
     38  C         30.6180   76.5690   11.9280 C.2    10  ILE10       0.2616
     39  O         30.1020   77.1840   12.8330 O.2    10  ILE10      -0.2715
     40  CB        31.5410   78.4970   10.6000 C.3    10  ILE10       0.0290
     41  CG1       31.7310   79.0700    9.1900 C.3    10  ILE10       0.0022
     42  CG2       32.9680   78.1870   11.2200 C.3    10  ILE10       0.0023
     43  CD1       32.1110   80.5560    9.1930 C.3    10  ILE10       0.0001
     44  N         30.9970   75.3100   12.0440 N.am   11  GLU11      -0.1977
     45  CA        30.8480   74.5660   13.2560 C.3    11  GLU11       0.1602
     46  C         32.2340   74.0850   13.7220 C.2    11  GLU11       0.2287
     47  O         32.9880   73.6670   12.9570 O.2    11  GLU11      -0.2864
     48  CB        29.8800   73.4250   13.0030 C.3    11  GLU11       0.0415
     49  CG        29.6190   72.5850   14.1200 C.3    11  GLU11       0.1163
     50  CD        30.6460   71.5040   14.3360 C.2    11  GLU11       0.3649
     51  OE1       31.2000   70.9650   13.4090 O.co2  11  GLU11      -0.2457
     52  OE2       30.8380   71.2360   15.4470 O.co2  11  GLU11      -0.2457
     53  N         37.0160   73.9610    3.4560 N.3    46  TRP46      -0.1227
     54  CA        35.8460   73.3760    2.8250 C.3    46  TRP46       0.1737
     55  C         34.7220   74.4270    2.6670 C.2    46  TRP46       0.2595
     56  O         34.1220   74.5830    1.5780 O.2    46  TRP46      -0.2718
     57  CB        35.3690   72.1760    3.5990 C.3    46  TRP46       0.0564
     58  CG        34.3120   71.4070    2.8620 C.ar   46  TRP46       0.0003
     59  CD1       34.5090   70.3470    2.0110 C.ar   46  TRP46       0.0946
     60  CD2       32.8910   71.6340    2.8980 C.ar   46  TRP46       0.0152
     61  NE1       33.2960   69.8910    1.5240 N.ar   46  TRP46      -0.2442
     62  CE2       32.2900   70.6550    2.0520 C.ar   46  TRP46       0.0810
     63  CE3       32.0610   72.5450    3.5760 C.ar   46  TRP46       0.0012
     64  CZ2       30.9080   70.5870    1.8590 C.ar   46  TRP46       0.0191
     65  CZ3       30.7110   72.4820    3.3910 C.ar   46  TRP46       0.0001
     66  CH2       30.1300   71.4940    2.5360 C.ar   46  TRP46       0.0015
     67  N         34.4360   75.1360    3.7490 N.am   47  VAL47      -0.1980
     68  CA        33.4140   76.1950    3.7180 C.3    47  VAL47       0.1595
     69  C         33.7780   77.3490    2.7800 C.2    47  VAL47       0.2287
     70  O         32.9450   77.8240    1.9900 O.2    47  VAL47      -0.2864
     71  CB        33.0190   76.7130    5.1710 C.3    47  VAL47       0.0276
     72  CG1       32.1810   78.0260    5.0690 C.3    47  VAL47       0.0022
     73  CG2       32.2180   75.6740    5.9250 C.3    47  VAL47       0.0022
     74  N         30.9420   76.7290    0.0980 N.3    51  VAL51      -0.1245
     75  CA        29.8080   77.4980    0.5920 C.3    51  VAL51       0.1561
     76  C         29.8880   79.0040    0.2790 C.2    51  VAL51       0.2260
     77  O         28.9520   79.5620   -0.3200 O.2    51  VAL51      -0.2867
     78  CB        29.6270   77.2400    2.1520 C.3    51  VAL51       0.0252
     79  CG1       28.4660   78.0530    2.7260 C.3    51  VAL51       0.0019
     80  CG2       29.4370   75.6830    2.4230 C.3    51  VAL51       0.0019
     81  N         21.3850   70.9650   11.6320 N.3    95  ASP95      -0.1239
     82  CA        20.4310   71.9250   11.0610 C.3    95  ASP95       0.1674
     83  C         19.3720   72.2770   12.0300 C.2    95  ASP95       0.2266
     84  O         18.9880   73.4700   12.0930 O.2    95  ASP95      -0.2867
     85  CB        19.7830   71.3440    9.7740 C.3    95  ASP95       0.1410
     86  CG        20.8220   71.0610    8.7170 C.2    95  ASP95       0.3668
     87  OD1       21.2720   71.9690    8.0580 O.co2  95  ASP95      -0.2456
     88  OD2       21.2330   69.8860    8.5740 O.co2  95  ASP95      -0.2456
     89  N         24.7920   72.2790   -5.1130 N.3   139  VAL139     -0.1231
     90  CA        24.6240   71.9020   -3.7400 C.3   139  VAL139      0.1692
     91  C         25.6140   72.7820   -2.9640 C.2   139  VAL139      0.2592
     92  O         26.6500   73.2640   -3.5030 O.2   139  VAL139     -0.2718
     93  CB        24.7900   70.3510   -3.5300 C.3   139  VAL139      0.0266
     94  CG1       25.2430   70.0180   -2.1420 C.3   139  VAL139      0.0020
     95  CG2       23.4530   69.6470   -3.8030 C.3   139  VAL139      0.0020
     96  N         25.2180   72.9910   -1.7270 N.am  140  HIS140     -0.1976
     97  CA        25.8380   73.8310   -0.7390 C.3   140  HIS140      0.1656
     98  C         25.2970   75.2420   -0.8080 C.2   140  HIS140      0.2291
     99  O         25.6930   76.0920   -0.0640 O.2   140  HIS140     -0.2864
    100  CB        27.3380   73.7030   -0.7720 C.3   140  HIS140      0.0771
    101  CG        27.7890   72.2900   -0.7310 C.ar  140  HIS140      0.0820
    102  ND1       27.3150   71.3880    0.1810 N.ar  140  HIS140     -0.2267
    103  CD2       28.6520   71.6140   -1.5100 C.ar  140  HIS140      0.1154
    104  CE1       27.8770   70.2170   -0.0270 C.ar  140  HIS140      0.1986
    105  NE2       28.6910   70.3300   -1.0510 N.ar  140  HIS140     -0.2212
    106  N         19.6420   73.1850   -1.8770 N.3   145  ASP145     -0.1239
    107  CA        19.5920   71.9490   -1.0820 C.3   145  ASP145      0.1674
    108  C         18.1750   71.7000   -0.5360 C.2   145  ASP145      0.2266
    109  O         17.6100   70.6030   -0.6880 O.2   145  ASP145     -0.2867
    110  CB        20.5860   72.0690    0.0730 C.3   145  ASP145      0.1410
    111  CG        22.0530   72.0890   -0.3850 C.2   145  ASP145      0.3668
    112  OD1       22.3210   71.9570   -1.6040 O.co2 145  ASP145     -0.2456
    113  OD2       22.9650   72.2750    0.5140 O.co2 145  ASP145     -0.2456
@<TRIPOS>BOND
     1    89    90    1
     2    95    93    1
     3    90    93    1
     4    90    91    1
     5    93    94    1
     6    92    91    2
     7    91    96   am
     8   106   107    1
     9    96    97    1
    10   112   111   ar
    11   103   105   ar
    12   103   101   ar
    13   107   108    1
    14   107   110    1
    15   105   104   ar
    16    98    97    1
    17    98    99    2
    18   100    97    1
    19   100   101    1
    20   101   102   ar
    21   109   108    2
    22   111   110    1
    23   111   113   ar
    24    77    76    2
    25   104   102   ar
    26    74    75    1
    27    76    75    1
    28    75    78    1
    29    61    59   ar
    30    61    62   ar
    31    56    55    2
    32    64    62   ar
    33    64    66   ar
    34    70    69    2
    35    59    58   ar
    36    62    60   ar
    37    78    80    1
    38    78    79    1
    39    66    65   ar
    40    55    54    1
    41    55    67   am
    42    24    22   ar
    43    69    68    1
    44    54    53    1
    45    54    57    1
    46    58    60   ar
    47    58    57    1
    48    60    63   ar
    49     8     6   ar
    50    22    21    1
    51    22    23   ar
    52    65    63   ar
    53    21    20    1
    54     5     6    1
    55     5     2    1
    56     6     7   ar
    57    68    67    1
    58    68    71    1
    59    20    17    1
    60     1     2    1
    61     2     3    1
    62    72    71    1
    63    71    73    1
    64     4     3    2
    65     3     9   am
    66    17    16    1
    67    17    18    1
    68     9    10    1
    69    12    11    2
    70    16    11   am
    71    11    10    1
    72    10    13    1
    73    18    25   am
    74    18    19    2
    75    25    26    1
    76    87    86   ar
    77    13    15    1
    78    13    14    1
    79    28    27    2
    80    88    86   ar
    81    86    85    1
    82    26    27    1
    83    26    29    1
    84    27    36   am
    85    41    43    1
    86    41    40    1
    87    34    32   ar
    88    34    35   ar
    89    32    30   ar
    90    85    82    1
    91    35    33   ar
    92    30    29    1
    93    30    31   ar
    94    36    37    1
    95    33    31   ar
    96    37    40    1
    97    37    38    1
    98    40    42    1
    99    82    81    1
   100    82    83    1
   101    38    44   am
   102    38    39    2
   103    83    84    2
   104    44    45    1
   105    47    46    2
   106    48    45    1
   107    48    49    1
   108    45    46    1
   109    51    50   ar
   110    49    50    1
   111    50    52   ar
