@<TRIPOS>MOLECULE
tmp/4okgB00.pdb
 224 217 0 0 0
SMALL
GASTEIGER

@<TRIPOS>ATOM
      1  N         -5.0460  -18.8190  -20.0190 N.3    18  LEU18      -0.1231
      2  CA        -4.9480  -17.3820  -20.2840 C.3    18  LEU18       0.1693
      3  C         -3.9930  -17.0820  -21.4580 C.2    18  LEU18       0.2592
      4  O         -4.3880  -16.3870  -22.3840 O.2    18  LEU18      -0.2718
      5  CB        -4.4970  -16.6030  -19.0250 C.3    18  LEU18       0.0284
      6  CG        -4.1190  -15.1120  -19.1890 C.3    18  LEU18       0.0019
      7  CD1       -5.2580  -14.2930  -19.7980 C.3    18  LEU18       0.0001
      8  CD2       -3.7320  -14.5000  -17.8330 C.3    18  LEU18       0.0001
      9  N         -2.7590  -17.6030  -21.4210 N.am   19  HIS19      -0.1976
     10  CA        -1.8050  -17.2860  -22.4730 C.3    19  HIS19       0.1656
     11  C         -1.8540  -18.2350  -23.6650 C.2    19  HIS19       0.2291
     12  O         -1.7300  -17.7610  -24.7950 O.2    19  HIS19      -0.2864
     13  CB        -0.3880  -17.1390  -21.9070 C.3    19  HIS19       0.0771
     14  CG        -0.3240  -16.0770  -20.8520 C.ar   19  HIS19       0.0820
     15  ND1       -0.5550  -14.7410  -21.1580 N.ar   19  HIS19      -0.2267
     16  CD2       -0.1430  -16.1970  -19.5150 C.ar   19  HIS19       0.1154
     17  CE1       -0.4930  -14.0980  -20.0050 C.ar   19  HIS19       0.1986
     18  NE2       -0.2450  -14.9290  -18.9900 N.ar   19  HIS19      -0.2212
     19  N          8.1860  -14.7380  -16.7810 N.3    61  THR61      -0.1203
     20  CA         7.8490  -13.5100  -17.5340 C.3    61  THR61       0.1994
     21  C          6.3410  -13.2070  -17.5440 C.2    61  THR61       0.2621
     22  O          5.9270  -12.0970  -17.1880 O.2    61  THR61      -0.2717
     23  CB         8.3740  -13.6050  -18.9850 C.3    61  THR61       0.1784
     24  OG1        7.7490  -14.7170  -19.6230 O.3    61  THR61      -0.2211
     25  CG2        9.9010  -13.7460  -19.0790 C.3    61  THR61       0.0376
     26  N          5.5310  -14.2170  -17.9320 N.am   62  MET62      -0.1919
     27  CA         4.0810  -14.1280  -18.0930 C.3    62  MET62       0.1952
     28  C          3.2660  -14.5510  -16.8690 C.2    62  MET62       0.2659
     29  O          2.1870  -14.0040  -16.6190 O.2    62  MET62      -0.2711
     30  CB         3.6710  -14.9800  -19.3080 C.2    62  MET62       0.0110
     31  CG         3.0660  -14.2120  -20.4740 C.2    62  MET62       0.0285
     32  SD         3.1030  -12.4010  -20.4240 S.3    62  MET62      -0.1125
     33  CE         4.7270  -12.0880  -21.0720 C.3    62  MET62       0.0742
     34  N          3.7410  -15.5860  -16.1750 N.am   63  SER63      -0.1947
     35  CA         3.1140  -16.2050  -15.0110 C.3    63  SER63       0.1924
     36  C          4.1430  -17.1240  -14.3930 C.2    63  SER63       0.2314
     37  O          5.2510  -17.2340  -14.9160 O.2    63  SER63      -0.2863
     38  CB         1.9040  -17.0310  -15.4540 C.3    63  SER63       0.2116
     39  OG         2.2530  -17.9030  -16.5150 O.3    63  SER63      -0.2180
     40  N          1.0680  -21.0270  -15.3620 N.3    75  THR75      -0.1218
     41  CA         0.0910  -20.2390  -14.5810 C.3    75  THR75       0.1862
     42  C         -0.4430  -21.0350  -13.3940 C.2    75  THR75       0.2287
     43  O         -1.6370  -21.2540  -13.2570 O.2    75  THR75      -0.2866
     44  CB        -1.0130  -19.6640  -15.5150 C.3    75  THR75       0.1770
     45  OG1       -0.4320  -19.3890  -16.7980 O.3    75  THR75      -0.2211
     46  CG2       -1.6900  -18.3860  -14.9480 C.3    75  THR75       0.0375
     47  N         -0.0240  -20.0600  -10.1230 N.3    77  GLU77      -0.1231
     48  CA        -0.2040  -19.1460   -8.9730 C.3    77  GLU77       0.1699
     49  C         -1.6360  -18.9160   -8.4870 C.2    77  GLU77       0.2592
     50  O         -1.7960  -18.7290   -7.2870 O.2    77  GLU77      -0.2718
     51  CB         0.4790  -17.7740   -9.2100 C.3    77  GLU77       0.0402
     52  CG        -0.0190  -17.0260  -10.4420 C.3    77  GLU77       0.1161
     53  CD         0.7250  -17.3140  -11.7370 C.2    77  GLU77       0.3649
     54  OE1        1.3370  -18.3970  -11.8740 O.co2  77  GLU77      -0.2457
     55  OE2        0.6650  -16.4550  -12.6390 O.co2  77  GLU77      -0.2457
     56  N         -2.6480  -18.8520   -9.3580 N.am   78  HIS78      -0.1976
     57  CA        -4.0120  -18.5820   -8.8470 C.3    78  HIS78       0.1656
     58  C         -4.5940  -19.7890   -8.1330 C.2    78  HIS78       0.2291
     59  O         -5.2040  -19.6470   -7.0630 O.2    78  HIS78      -0.2864
     60  CB        -4.9690  -18.0590   -9.9230 C.3    78  HIS78       0.0771
     61  CG        -4.4740  -16.8560  -10.6590 C.ar   78  HIS78       0.0820
     62  ND1       -5.0540  -16.4590  -11.8470 N.ar   78  HIS78      -0.2267
     63  CD2       -3.4830  -15.9820  -10.3490 C.ar   78  HIS78       0.1154
     64  CE1       -4.3680  -15.3970  -12.2480 C.ar   78  HIS78       0.1986
     65  NE2       -3.3960  -15.0910  -11.3930 N.ar   78  HIS78      -0.2212
     66  N         -7.0590  -10.8360  -12.4270 N.3   182  THR182     -0.1203
     67  CA        -5.8720  -10.4410  -13.1670 C.3   182  THR182      0.1994
     68  C         -6.2470   -9.2540  -14.0530 C.2   182  THR182      0.2618
     69  O         -7.4400   -8.9820  -14.2450 O.2   182  THR182     -0.2717
     70  CB        -5.2500  -11.6240  -13.9340 C.3   182  THR182      0.1784
     71  OG1       -3.9670  -11.2090  -14.3880 O.3   182  THR182     -0.2211
     72  CG2       -6.0850  -12.0820  -15.1360 C.3   182  THR182      0.0376
     73  N         -5.2480   -8.5130  -14.5400 N.am  183  PHE183     -0.1961
     74  CA        -5.5370   -7.3090  -15.3000 C.3   183  PHE183      0.1771
     75  C         -4.4340   -7.0280  -16.3060 C.2   183  PHE183      0.2620
     76  O         -3.2950   -7.4940  -16.1590 O.2   183  PHE183     -0.2715
     77  CB        -5.7300   -6.1010  -14.3300 C.3   183  PHE183      0.0574
     78  CG        -4.5030   -5.7890  -13.4930 C.ar  183  PHE183     -0.0200
     79  CD1       -3.5830   -4.8300  -13.9070 C.ar  183  PHE183     -0.0042
     80  CD2       -4.2560   -6.4770  -12.3090 C.ar  183  PHE183     -0.0042
     81  CE1       -2.4260   -4.5730  -13.1570 C.ar  183  PHE183     -0.0003
     82  CE2       -3.1040   -6.2210  -11.5620 C.ar  183  PHE183     -0.0003
     83  CZ        -2.1970   -5.2660  -11.9880 C.ar  183  PHE183     -0.0000
     84  N         -4.7770   -6.2230  -17.2940 N.am  184  GLY184     -0.1940
     85  CA        -3.8370   -5.7590  -18.2960 C.3   184  GLY184      0.2014
     86  C         -4.2990   -4.4610  -18.9020 C.2   184  GLY184      0.2639
     87  O         -5.4850   -4.1220  -18.8250 O.2   184  GLY184     -0.2714
     88  N         -3.3580   -3.7250  -19.5120 N.am  185  PHE185     -0.1959
     89  CA        -3.6800   -2.4910  -20.2210 C.3   185  PHE185      0.1771
     90  C         -3.9600   -2.8750  -21.6820 C.2   185  PHE185      0.2619
     91  O         -3.2750   -3.7350  -22.2190 O.2   185  PHE185     -0.2715
     92  CB        -2.5570   -1.4540  -20.0660 C.3   185  PHE185      0.0574
     93  CG        -2.5130   -0.8490  -18.6760 C.ar  185  PHE185     -0.0200
     94  CD1       -3.2990    0.2540  -18.3530 C.ar  185  PHE185     -0.0042
     95  CD2       -1.7030   -1.3940  -17.6860 C.ar  185  PHE185     -0.0042
     96  CE1       -3.2710    0.8020  -17.0620 C.ar  185  PHE185     -0.0003
     97  CE2       -1.6750   -0.8440  -16.3990 C.ar  185  PHE185     -0.0003
     98  CZ        -2.4540    0.2540  -16.0960 C.ar  185  PHE185     -0.0000
     99  N         -5.0120   -2.3100  -22.2790 N.am  186  MET186     -0.1977
    100  CA        -5.4410   -2.5640  -23.6590 C.3   186  MET186      0.1605
    101  C         -4.2540   -2.5550  -24.6440 C.2   186  MET186      0.2287
    102  O         -4.1300   -3.4790  -25.4570 O.2   186  MET186     -0.2864
    103  CB        -6.5230   -1.5480  -24.0720 C.3   186  MET186      0.0413
    104  CG        -7.1780   -1.8450  -25.3920 C.3   186  MET186      0.0598
    105  SD        -7.7970   -3.5360  -25.5830 S.3   186  MET186     -0.1393
    106  CE        -8.4870   -3.4250  -27.2500 C.3   186  MET186      0.0692
    107  N         -0.9770   -3.0460  -23.9070 N.3   188  ASP188     -0.1225
    108  CA        -0.0990   -4.1910  -23.5990 C.3   188  ASP188      0.1805
    109  C         -0.7140   -5.5010  -24.0780 C.2   188  ASP188      0.2597
    110  O         -0.0020   -6.3700  -24.5740 O.2   188  ASP188     -0.2718
    111  CB         0.2360   -4.2490  -22.1060 C.3   188  ASP188      0.1424
    112  CG         1.0640   -3.0850  -21.6080 C.2   188  ASP188      0.3668
    113  OD1        1.8080   -2.4820  -22.4270 O.co2 188  ASP188     -0.2456
    114  OD2        0.9860   -2.7800  -20.3990 O.co2 188  ASP188     -0.2456
    115  N         -2.0540   -5.5990  -23.9780 N.am  189  ILE189     -0.1980
    116  CA        -2.8760   -6.7230  -24.4250 C.3   189  ILE189      0.1595
    117  C         -2.7870   -6.8760  -25.9710 C.2   189  ILE189      0.2287
    118  O         -2.8800   -7.9980  -26.4800 O.2   189  ILE189     -0.2864
    119  CB        -4.3150   -6.5330  -23.8620 C.3   189  ILE189      0.0276
    120  CG1       -4.3800   -6.9230  -22.3580 C.3   189  ILE189      0.0022
    121  CG2       -5.3780   -7.2470  -24.6850 C.3   189  ILE189      0.0022
    122  CD1       -5.6590   -6.4680  -21.5690 C.3   189  ILE189      0.0001
    123  N          0.0460   -6.0490  -27.8530 N.3   191  TYR191     -0.1227
    124  CA         1.4160   -6.5490  -28.0370 C.3   191  TYR191      0.1736
    125  C          1.4920   -8.0320  -27.6590 C.2   191  TYR191      0.2595
    126  O          2.0440   -8.8310  -28.4130 O.2   191  TYR191     -0.2718
    127  CB         2.4010   -5.7000  -27.1900 C.3   191  TYR191      0.0548
    128  CG         3.7360   -6.3500  -26.8840 C.ar  191  TYR191     -0.0200
    129  CD1        4.7980   -6.2630  -27.7800 C.ar  191  TYR191     -0.0009
    130  CD2        3.9520   -7.0130  -25.6790 C.ar  191  TYR191     -0.0009
    131  CE1        6.0350   -6.8390  -27.4930 C.ar  191  TYR191      0.0417
    132  CE2        5.1850   -7.5880  -25.3780 C.ar  191  TYR191      0.0417
    133  CZ         6.2250   -7.4980  -26.2880 C.ar  191  TYR191      0.1957
    134  OH         7.4400   -8.0690  -25.9930 O.3   191  TYR191     -0.2866
    135  N          0.9670   -8.3840  -26.4690 N.am  192  LEU192     -0.1966
    136  CA         0.9400   -9.7520  -25.9550 C.3   192  LEU192      0.1728
    137  C          0.3260  -10.6830  -26.9930 C.2   192  LEU192      0.2616
    138  O          0.9360  -11.6960  -27.3430 O.2   192  LEU192     -0.2715
    139  CB         0.1410   -9.7930  -24.6330 C.3   192  LEU192      0.0311
    140  CG         0.8940   -9.8270  -23.2860 C.3   192  LEU192      0.0022
    141  CD1        2.3280   -9.3590  -23.3820 C.3   192  LEU192      0.0001
    142  CD2        0.1550   -9.0590  -22.2470 C.3   192  LEU192      0.0001
    143  N         -0.8380  -10.2920  -27.5420 N.am  193  ARG193     -0.1977
    144  CA        -1.5550  -11.0280  -28.5810 C.3   193  ARG193      0.1597
    145  C         -0.7630  -11.1490  -29.8920 C.2   193  ARG193      0.2287
    146  O         -0.9990  -12.0910  -30.6460 O.2   193  ARG193     -0.2864
    147  CB        -2.9340  -10.4080  -28.8220 C.3   193  ARG193      0.0334
    148  CG        -4.0380  -11.4460  -28.8930 C.3   193  ARG193      0.0492
    149  CD        -5.4020  -10.8240  -28.6670 C.3   193  ARG193      0.2205
    150  NE        -6.1580  -11.5310  -27.6320 N.pl3 193  ARG193     -0.0865
    151  CZ        -6.9110  -12.6040  -27.8500 C.cat 193  ARG193      0.5346
    152  NH1       -7.0150  -13.1150  -29.0700 N.pl3 193  ARG193      0.1354
    153  NH2       -7.5640  -13.1770  -26.8480 N.pl3 193  ARG193      0.1354
    154  N         -1.6430  -14.1030  -24.0620 N.3   198  ALA198     -0.1245
    155  CA        -2.9850  -13.6430  -23.6730 C.3   198  ALA198      0.1562
    156  C         -4.0720  -14.1590  -24.6500 C.2   198  ALA198      0.2260
    157  O         -5.1430  -13.5650  -24.7110 O.2   198  ALA198     -0.2867
    158  CB        -3.0340  -12.1150  -23.5740 C.3   198  ALA198      0.0290
    159  N         -7.3450  -14.6510  -23.0910 N.3   201  GLY201     -0.1210
    160  CA        -7.7990  -13.4780  -22.3480 C.3   201  GLY201      0.1956
    161  C         -9.0280  -12.8210  -22.9340 C.2   201  GLY201      0.2613
    162  O         -9.1670  -12.7470  -24.1570 O.2   201  GLY201     -0.2717
    163  N         -9.9210  -12.3310  -22.0570 N.am  202  SER202     -0.1938
    164  CA       -11.1570  -11.6360  -22.4180 C.3   202  SER202      0.2055
    165  C        -11.6470  -10.8310  -21.2240 C.2   202  SER202      0.2642
    166  O        -11.1010  -10.9850  -20.1280 O.2   202  SER202     -0.2714
    167  CB       -12.2350  -12.6350  -22.8610 C.3   202  SER202      0.2130
    168  OG       -12.9300  -13.2140  -21.7710 O.3   202  SER202     -0.2179
    169  N        -12.7030  -10.0100  -21.4140 N.am  203  VAL203     -0.1977
    170  CA       -13.3350   -9.2630  -20.3190 C.3   203  VAL203      0.1596
    171  C        -13.9820  -10.2380  -19.2840 C.2   203  VAL203      0.2287
    172  O        -14.2400   -9.8490  -18.1470 O.2   203  VAL203     -0.2864
    173  CB       -14.3080   -8.1370  -20.7790 C.3   203  VAL203      0.0276
    174  CG1      -13.5460   -6.9580  -21.3930 C.3   203  VAL203      0.0022
    175  CG2      -15.3680   -8.6670  -21.7470 C.3   203  VAL203      0.0022
    176  N        -10.4390  -11.1740  -17.1260 N.3   206  ALA206     -0.1245
    177  CA        -9.4050  -10.1800  -16.8720 C.3   206  ALA206      0.1562
    178  C         -9.9870   -8.7770  -16.8490 C.2   206  ALA206      0.2260
    179  O        -10.9470   -8.5010  -17.5750 O.2   206  ALA206     -0.2867
    180  CB        -8.3190  -10.2680  -17.9530 C.3   206  ALA206      0.0290
    181  N         -9.6160   -5.1210  -18.0140 N.3   208  VAL208     -0.1245
    182  CA        -8.9510   -4.4680  -19.1370 C.3   208  VAL208      0.1561
    183  C         -9.0440   -2.9700  -18.8910 C.2   208  VAL208      0.2260
    184  O        -10.1390   -2.4480  -18.6660 O.2   208  VAL208     -0.2867
    185  CB        -9.5580   -4.9040  -20.4980 C.3   208  VAL208      0.0252
    186  CG1       -8.8360   -4.2420  -21.6660 C.3   208  VAL208      0.0019
    187  CG2       -9.5380   -6.4200  -20.6530 C.3   208  VAL208      0.0019
    188  N         -5.0410   -8.3650   -6.4060 N.3   229  HIS229     -0.1226
    189  CA        -4.6380   -9.4760   -7.3000 C.3   229  HIS229      0.1752
    190  C         -3.1340   -9.7630   -7.1960 C.2   229  HIS229      0.2595
    191  O         -2.7230  -10.9320   -7.2240 O.2   229  HIS229     -0.2718
    192  CB        -5.0050   -9.2510   -8.7830 C.3   229  HIS229      0.0759
    193  CG        -4.7150  -10.4910   -9.5860 C.ar  229  HIS229      0.0818
    194  ND1       -5.5540  -11.5910   -9.5380 N.ar  229  HIS229     -0.2268
    195  CD2       -3.6220  -10.8130  -10.3220 C.ar  229  HIS229      0.1154
    196  CE1       -4.9830  -12.5180  -10.2870 C.ar  229  HIS229      0.1986
    197  NE2       -3.8180  -12.0960  -10.7890 N.ar  229  HIS229     -0.2212
    198  N         -2.3130   -8.7010   -7.0480 N.am  230  LYS230     -0.1980
    199  CA        -0.8630   -8.8790   -6.8890 C.3   230  LYS230      0.1596
    200  C         -0.5720   -9.6000   -5.5580 C.2   230  LYS230      0.2287
    201  O          0.3210  -10.4450   -5.4880 O.2   230  LYS230     -0.2864
    202  CB        -0.1310   -7.5300   -6.9960 C.3   230  LYS230      0.0298
    203  CG        -0.1530   -6.9450   -8.4140 C.3   230  LYS230      0.0038
    204  CD         0.7670   -7.7290   -9.3860 C.3   230  LYS230      0.0206
    205  CE         0.7900   -7.1240  -10.7660 C.3   230  LYS230      0.1093
    206  NZ         1.6840   -7.8830  -11.6790 N.3   230  LYS230     -0.1314
    207  N         -1.3590  -13.2440   -6.2360 N.3   233  ASP233     -0.1239
    208  CA        -0.2280  -13.8760   -6.9540 C.3   233  ASP233      0.1674
    209  C          0.9210  -14.1700   -6.0050 C.2   233  ASP233      0.2266
    210  O          1.5340  -15.2320   -6.1020 O.2   233  ASP233     -0.2867
    211  CB         0.3070  -12.9350   -8.0360 C.3   233  ASP233      0.1410
    212  CG        -0.5490  -12.8600   -9.2760 C.2   233  ASP233      0.3668
    213  OD1       -1.3730  -13.7800   -9.4860 O.co2 233  ASP233     -0.2456
    214  OD2       -0.3770  -11.9010  -10.0470 O.co2 233  ASP233     -0.2456
    215  N          6.6260  -12.3730  -10.7340 N.3   256  HIS256     -0.1241
    216  CA         6.8650  -13.7880  -10.5190 C.3   256  HIS256      0.1621
    217  C          8.3430  -14.1120  -10.4210 C.2   256  HIS256      0.2264
    218  O          8.7090  -14.9620   -9.6150 O.2   256  HIS256     -0.2867
    219  CB         6.1560  -14.6230  -11.6020 C.3   256  HIS256      0.0745
    220  CG         4.6920  -14.3190  -11.7260 C.ar  256  HIS256      0.0817
    221  ND1        3.7980  -14.5470  -10.6650 N.ar  256  HIS256     -0.2268
    222  CD2        4.0060  -13.7990  -12.7750 C.ar  256  HIS256      0.1154
    223  CE1        2.6120  -14.1540  -11.1040 C.ar  256  HIS256      0.1986
    224  NE2        2.6850  -13.6870  -12.3670 N.ar  256  HIS256     -0.2212
@<TRIPOS>BOND
     1   146   145    2
     2   145   144    1
     3   152   151    1
     4   148   147    1
     5   148   149    1
     6   147   144    1
     7   149   150    1
     8   144   143    1
     9   126   125    2
    10   124   123    1
    11   124   125    1
    12   124   127    1
    13   151   150    2
    14   151   153    1
    15   129   131   ar
    16   129   128   ar
    17   125   135   am
    18   143   137   am
    19   131   133   ar
    20   138   137    2
    21   106   105    1
    22   127   128    1
    23   137   136    1
    24   128   130   ar
    25   118   117    2
    26   135   136    1
    27   133   134    1
    28   133   132   ar
    29   117   116    1
    30   136   139    1
    31   130   132   ar
    32   105   104    1
    33   102   101    2
    34   104   103    1
    35    12    11    2
    36   157   156    2
    37   121   119    1
    38   156   155    1
    39   101   100    1
    40   139   140    1
    41   110   109    2
    42   116   115    1
    43   116   119    1
    44   162   161    2
    45   109   115   am
    46   109   108    1
    47   103   100    1
    48   154   155    1
    49   107   108    1
    50   119   120    1
    51   155   158    1
    52    11    10    1
    53   100    99    1
    54   108   111    1
    55   141   140    1
    56   140   142    1
    57   159   160    1
    58   161   160    1
    59   161   163   am
    60   167   164    1
    61   167   168    1
    62    10    13    1
    63    10     9    1
    64   113   112   ar
    65   164   163    1
    66   164   165    1
    67     4     3    2
    68   120   122    1
    69    99    90   am
    70    91    90    2
    71   111   112    1
    72    13    14    1
    73   175   173    1
    74    90    89    1
    75   186   185    1
    76   112   114   ar
    77     3     9   am
    78     3     2    1
    79   169   165   am
    80   169   170    1
    81   174   173    1
    82   165   166    2
    83    15    14   ar
    84    15    17   ar
    85    33    32    1
    86    14    16   ar
    87   173   170    1
    88   187   185    1
    89   185   182    1
    90    31    32    1
    91    31    30    2
    92   170   171    1
    93     2     1    1
    94     2     5    1
    95    89    92    1
    96    89    88    1
    97    92    93    1
    98    17    18   ar
    99     7     6    1
   100    24    23    1
   101    16    18   ar
   102    88    86   am
   103    30    27    1
   104   171   172    2
   105     6     5    1
   106     6     8    1
   107   182   183    1
   108   182   181    1
   109    25    23    1
   110    23    20    1
   111    86    87    2
   112    86    85    1
   113   183   184    2
   114    93    94   ar
   115    93    95   ar
   116    94    96   ar
   117    85    84    1
   118    27    26    1
   119    27    28    1
   120   180   177    1
   121    26    21   am
   122    95    97   ar
   123   179   178    2
   124    21    20    1
   125    21    22    2
   126    20    19    1
   127    84    75   am
   128   176   177    1
   129    96    98   ar
   130   177   178    1
   131    28    29    2
   132    28    34   am
   133    45    44    1
   134    39    38    1
   135    97    98   ar
   136    75    76    2
   137    75    74    1
   138    34    35    1
   139    44    46    1
   140    44    41    1
   141    38    35    1
   142    40    41    1
   143    74    73    1
   144    74    77    1
   145    72    70    1
   146    35    36    1
   147    37    36    2
   148    41    42    1
   149    73    68   am
   150    71    70    1
   151    77    78    1
   152    69    68    2
   153    68    67    1
   154    70    67    1
   155    79    78   ar
   156    79    81   ar
   157    78    80   ar
   158    42    43    2
   159    67    66    1
   160    81    83   ar
   161   222   224   ar
   162   222   220   ar
   163    55    53   ar
   164   224   223   ar
   165    80    82   ar
   166    64    62   ar
   167    64    65   ar
   168    83    82   ar
   169    54    53   ar
   170    62    61   ar
   171    53    52    1
   172   220   219    1
   173   220   221   ar
   174   206   205    1
   175   219   216    1
   176    65    63   ar
   177   223   221   ar
   178   197   195   ar
   179   197   196   ar
   180   205   204    1
   181   215   216    1
   182    61    63   ar
   183    61    60    1
   184   216   217    1
   185    52    51    1
   186   217   218    2
   187   195   193   ar
   188   196   194   ar
   189    47    48    1
   190   214   212   ar
   191    60    57    1
   192   193   194   ar
   193   193   192    1
   194   213   212   ar
   195   204   203    1
   196    56    57    1
   197    56    49   am
   198   212   211    1
   199    51    48    1
   200    48    49    1
   201    57    58    1
   202   192   189    1
   203    49    50    2
   204   203   202    1
   205    58    59    2
   206   211   208    1
   207   189   190    1
   208   189   188    1
   209   191   190    2
   210   190   198   am
   211   198   199    1
   212   202   199    1
   213   208   207    1
   214   208   209    1
   215   199   200    1
   216   210   209    2
   217   200   201    2
