@<TRIPOS>MOLECULE
tmp/4okhA00.pdb
 98 92 0 0 0
SMALL
GASTEIGER

@<TRIPOS>ATOM
      1  N         30.8210   11.2460    3.5810 N.3    48  LEU48      -0.1245
      2  CA        29.9720   11.9250    4.5160 C.3    48  LEU48       0.1561
      3  C         30.0070   13.4240    4.4010 C.2    48  LEU48       0.2260
      4  O         29.1070   14.0530    4.8960 O.2    48  LEU48      -0.2867
      5  CB        30.2500   11.4040    5.9340 C.3    48  LEU48       0.0270
      6  CG        30.0740    9.8570    6.0340 C.3    48  LEU48       0.0019
      7  CD1       30.6350    9.3180    7.3280 C.3    48  LEU48       0.0001
      8  CD2       28.6220    9.3700    5.8140 C.3    48  LEU48       0.0001
      9  N         28.5660   12.1940   10.5690 N.3   136  GLY136     -0.1225
     10  CA        27.8870   11.7700    9.3730 C.3   136  GLY136      0.1811
     11  C         26.6030   11.0580    9.7370 C.2   136  GLY136      0.2280
     12  O         25.5270   11.3720    9.1880 O.2   136  GLY136     -0.2866
     13  N         24.0920   13.6650   11.1090 N.3   139  ARG139     -0.1231
     14  CA        23.5030   14.4770   10.0480 C.3   139  ARG139      0.1694
     15  C         22.5650   13.7080    9.1320 C.2   139  ARG139      0.2591
     16  O         21.5730   14.2560    8.6900 O.2   139  ARG139     -0.2718
     17  CB        24.5960   15.1650    9.2110 C.3   139  ARG139      0.0321
     18  CG        25.0660   16.4270    9.8750 C.3   139  ARG139      0.0489
     19  CD        26.5540   16.5960    9.7800 C.3   139  ARG139      0.2205
     20  NE        26.9540   17.0910    8.4780 N.pl3 139  ARG139     -0.0865
     21  CZ        27.9770   17.9200    8.2620 C.cat 139  ARG139      0.5346
     22  NH1       28.7260   18.3510    9.2680 N.pl3 139  ARG139      0.1354
     23  NH2       28.2430   18.3250    7.0230 N.pl3 139  ARG139      0.1354
     24  N         22.8580   12.4480    8.8580 N.am  140  ALA140     -0.1980
     25  CA        21.9010   11.6470    8.1250 C.3   140  ALA140      0.1597
     26  C         20.5810   11.6110    8.8600 C.2   140  ALA140      0.2287
     27  O         19.5420   11.7950    8.2850 O.2   140  ALA140     -0.2864
     28  CB        22.4120   10.2510    7.9490 C.3   140  ALA140      0.0319
     29  N         18.5360   15.0620    9.1300 N.3   143  ALA143     -0.1231
     30  CA        17.7600   15.4450    7.9320 C.3   143  ALA143      0.1694
     31  C         16.2770   15.0630    8.0330 C.2   143  ALA143      0.2592
     32  O         15.4570   15.7060    7.4070 O.2   143  ALA143     -0.2718
     33  CB        18.3860   14.8350    6.6780 C.3   143  ALA143      0.0304
     34  N         15.9550   14.0120    8.7960 N.am  144  PHE144     -0.1976
     35  CA        14.5750   13.5920    9.0760 C.3   144  PHE144      0.1639
     36  C         13.9920   14.1780   10.3610 C.2   144  PHE144      0.2290
     37  O         12.8260   13.9490   10.6340 O.2   144  PHE144     -0.2864
     38  CB        14.4750   12.0760    9.1590 C.3   144  PHE144      0.0560
     39  CG        14.7820   11.3860    7.8760 C.ar  144  PHE144     -0.0200
     40  CD1       16.0750   11.0320    7.5630 C.ar  144  PHE144     -0.0042
     41  CD2       13.7790   11.1350    6.9540 C.ar  144  PHE144     -0.0042
     42  CE1       16.3700   10.4070    6.3560 C.ar  144  PHE144     -0.0003
     43  CE2       14.0520   10.4970    5.7520 C.ar  144  PHE144     -0.0003
     44  CZ        15.3500   10.1300    5.4500 C.ar  144  PHE144     -0.0000
     45  N          8.7200    5.9010    7.3460 N.3   155  ASN155     -0.1240
     46  CA         8.0830    4.8910    6.4650 C.3   155  ASN155      0.1653
     47  C          9.2230    4.0990    5.8590 C.2   155  ASN155      0.2266
     48  O         10.3910    4.3770    6.1460 O.2   155  ASN155     -0.2867
     49  CB         7.0760    5.4660    5.4240 C.3   155  ASN155      0.1155
     50  CG         7.7090    6.3740    4.3420 C.2   155  ASN155      0.2627
     51  OD1        8.8590    6.1980    3.9280 O.2   155  ASN155     -0.2716
     52  ND2        6.9280    7.3290    3.8540 N.am  155  ASN155     -0.0877
     53  N         10.4810    3.6680    2.7760 N.3   157  LEU157     -0.1231
     54  CA        11.3650    4.2720    1.7990 C.3   157  LEU157      0.1693
     55  C         12.2390    5.3450    2.4450 C.2   157  LEU157      0.2591
     56  O         13.3700    5.5700    2.0190 O.2   157  LEU157     -0.2718
     57  CB        10.5720    4.8410    0.6290 C.3   157  LEU157      0.0284
     58  CG         9.9360    3.7640   -0.2370 C.3   157  LEU157      0.0019
     59  CD1        9.1690    4.4060   -1.3640 C.3   157  LEU157      0.0001
     60  CD2       10.9910    2.8200   -0.8270 C.3   157  LEU157      0.0001
     61  N         11.7190    6.0070    3.4720 N.am  158  GLU158     -0.1979
     62  CA        12.5380    6.9080    4.2720 C.3   158  GLU158      0.1602
     63  C         13.6690    6.1650    4.9740 C.2   158  GLU158      0.2287
     64  O         14.8060    6.6040    4.9570 O.2   158  GLU158     -0.2864
     65  CB        11.7060    7.6610    5.2970 C.3   158  GLU158      0.0415
     66  CG        10.9320    8.8650    4.7600 C.3   158  GLU158      0.1163
     67  CD        10.1300    9.6290    5.8470 C.2   158  GLU158      0.3649
     68  OE1        9.3400    9.0120    6.5890 O.co2 158  GLU158     -0.2457
     69  OE2       10.2910   10.8550    5.9450 O.co2 158  GLU158     -0.2457
     70  N         16.1590    5.2380    2.5060 N.3   161  GLN161     -0.1231
     71  CA        17.0030    6.4110    2.1890 C.3   161  GLN161      0.1698
     72  C         18.0740    6.5610    3.2370 C.2   161  GLN161      0.2592
     73  O         19.2580    6.6720    2.9540 O.2   161  GLN161     -0.2718
     74  CB        16.1850    7.6990    2.0860 C.3   161  GLN161      0.0381
     75  CG        15.2420    7.6790    0.8910 C.3   161  GLN161      0.0905
     76  CD        14.1410    8.7050    0.9520 C.2   161  GLN161      0.2608
     77  OE1       13.0030    8.4530    0.5600 O.2   161  GLN161     -0.2717
     78  NE2       14.4820    9.8640    1.4420 N.am  161  GLN161     -0.0878
     79  N         17.6560    6.5780    4.4690 N.am  162  LEU162     -0.1980
     80  CA        18.6040    6.7760    5.5460 C.3   162  LEU162      0.1596
     81  C         19.7200    5.7400    5.5290 C.2   162  LEU162      0.2287
     82  O         20.9000    6.0930    5.5820 O.2   162  LEU162     -0.2864
     83  CB        17.8550    6.7150    6.8570 C.3   162  LEU162      0.0297
     84  CG        18.7370    7.0370    8.0390 C.3   162  LEU162      0.0022
     85  CD1       19.1650    8.4970    7.9800 C.3   162  LEU162      0.0001
     86  CD2       17.9590    6.7310    9.3150 C.3   162  LEU162      0.0001
     87  N         22.0700    5.4660    2.3200 N.3   165  TYR165     -0.1241
     88  CA        23.0250    6.5310    2.5080 C.3   165  TYR165      0.1605
     89  C         24.0540    6.1360    3.5320 C.2   165  TYR165      0.2264
     90  O         25.2200    6.2510    3.2730 O.2   165  TYR165     -0.2867
     91  CB        22.3600    7.8510    2.9020 C.3   165  TYR165      0.0534
     92  CG        23.3800    8.8840    3.2730 C.ar  165  TYR165     -0.0201
     93  CD1       23.8930    8.9250    4.5570 C.ar  165  TYR165     -0.0009
     94  CD2       23.8920    9.7830    2.3280 C.ar  165  TYR165     -0.0009
     95  CE1       24.8500    9.8360    4.9150 C.ar  165  TYR165      0.0417
     96  CE2       24.8710   10.7100    2.6840 C.ar  165  TYR165      0.0417
     97  CZ        25.3420   10.7150    3.9840 C.ar  165  TYR165      0.1957
     98  OH        26.3070   11.5880    4.4200 O.3   165  TYR165     -0.2866
@<TRIPOS>BOND
     1    59    58    1
     2    60    58    1
     3    58    57    1
     4    77    76    2
     5    57    54    1
     6    75    76    1
     7    75    74    1
     8    76    78   am
     9    54    55    1
    10    54    53    1
    11    56    55    2
    12    74    71    1
    13    71    70    1
    14    71    72    1
    15    87    88    1
    16    94    96   ar
    17    94    92   ar
    18    55    61   am
    19    88    91    1
    20    88    89    1
    21    96    97   ar
    22    91    92    1
    23    73    72    2
    24    72    79   am
    25    90    89    2
    26    92    93   ar
    27    61    62    1
    28     1     2    1
    29    52    50   am
    30    51    50    2
    31    97    98    1
    32    97    95   ar
    33    62    63    1
    34    62    65    1
    35    50    49    1
    36     3     2    1
    37     3     4    2
    38    79    80    1
    39     2     5    1
    40    93    95   ar
    41    66    65    1
    42    66    67    1
    43    64    63    2
    44    49    46    1
    45    44    43   ar
    46    44    42   ar
    47    81    80    1
    48    81    82    2
    49    80    83    1
    50    43    41   ar
    51     8     6    1
    52    67    69   ar
    53    67    68   ar
    54    47    48    2
    55    47    46    1
    56     5     6    1
    57     6     7    1
    58    42    40   ar
    59    46    45    1
    60    33    30    1
    61    83    84    1
    62    41    39   ar
    63    23    21    1
    64    32    31    2
    65    40    39   ar
    66    39    38    1
    67    30    31    1
    68    30    29    1
    69    28    25    1
    70    85    84    1
    71    31    34   am
    72    84    86    1
    73    25    24    1
    74    25    26    1
    75    21    20    2
    76    21    22    1
    77    27    26    2
    78    20    19    1
    79    16    15    2
    80    34    35    1
    81    24    15   am
    82    35    38    1
    83    35    36    1
    84    15    14    1
    85    12    11    2
    86    17    18    1
    87    17    14    1
    88    10    11    1
    89    10     9    1
    90    19    18    1
    91    14    13    1
    92    36    37    2
