@<TRIPOS>MOLECULE
tmp/4okhB00.pdb
 107 104 0 0 0
SMALL
GASTEIGER

@<TRIPOS>ATOM
      1  N         11.5430   -4.4750   12.5670 N.3   147  PHE147     -0.1227
      2  CA        11.3780   -3.4500   13.6140 C.3   147  PHE147      0.1736
      3  C          9.9140   -3.0190   13.7810 C.2   147  PHE147      0.2595
      4  O          9.5150   -2.5860   14.8480 O.2   147  PHE147     -0.2718
      5  CB        12.2300   -2.2220   13.3360 C.3   147  PHE147      0.0547
      6  CG        13.7080   -2.4490   13.4740 C.ar  147  PHE147     -0.0202
      7  CD1       14.2350   -3.1110   14.5760 C.ar  147  PHE147     -0.0042
      8  CD2       14.5850   -1.9490   12.5240 C.ar  147  PHE147     -0.0042
      9  CE1       15.6030   -3.3010   14.7110 C.ar  147  PHE147     -0.0003
     10  CE2       15.9520   -2.1330   12.6550 C.ar  147  PHE147     -0.0003
     11  CZ        16.4650   -2.8200   13.7460 C.ar  147  PHE147     -0.0000
     12  N          9.1190   -3.1370   12.7220 N.am  148  ASP148     -0.1960
     13  CA         7.7390   -2.6970   12.7480 C.3   148  ASP148      0.1840
     14  C          6.8380   -3.7690   13.3670 C.2   148  ASP148      0.2622
     15  O          6.1370   -4.4770   12.6570 O.2   148  ASP148     -0.2715
     16  CB         7.2910   -2.3970   11.3290 C.3   148  ASP148      0.1450
     17  CG         5.9460   -1.7950   11.2710 C.2   148  ASP148      0.3671
     18  OD1        5.4790   -1.2240   12.2640 O.co2 148  ASP148     -0.2456
     19  OD2        5.3450   -1.8810   10.2080 O.co2 148  ASP148     -0.2456
     20  N          6.8530   -3.8820   14.6890 N.am  149  LYS149     -0.1963
     21  CA         6.1600   -4.9950   15.3710 C.3   149  LYS149      0.1728
     22  C          4.6560   -4.8870   15.2760 C.2   149  LYS149      0.2616
     23  O          4.0040   -5.8490   15.0210 O.2   149  LYS149     -0.2715
     24  CB         6.6130   -5.1390   16.8310 C.3   149  LYS149      0.0311
     25  CG         7.9400   -5.8820   16.9450 C.3   149  LYS149      0.0038
     26  CD         8.6960   -5.5300   18.2170 C.3   149  LYS149      0.0206
     27  CE        10.1500   -5.9970   18.1510 C.3   149  LYS149      0.1093
     28  NZ        11.1410   -4.8950   18.4050 N.3   149  LYS149     -0.1314
     29  N          4.1100   -3.7000   15.4030 N.am  150  ASP150     -0.1971
     30  CA         2.6840   -3.5220   15.1920 C.3   150  ASP150      0.1709
     31  C          2.2120   -3.6010   13.7140 C.2   150  ASP150      0.2293
     32  O          1.0260   -3.6820   13.4620 O.2   150  ASP150     -0.2864
     33  CB         2.1930   -2.2330   15.8650 C.3   150  ASP150      0.1436
     34  CG         2.9550   -0.9800   15.4230 C.2   150  ASP150      0.3671
     35  OD1        4.0340   -1.0620   14.7930 O.co2 150  ASP150     -0.2456
     36  OD2        2.4710    0.1170   15.7280 O.co2 150  ASP150     -0.2456
     37  N          5.2570    1.9880   10.0760 N.3   154  ILE154     -0.1231
     38  CA         6.0630    3.0830   10.6090 C.3   154  ILE154      0.1692
     39  C          6.9200    2.6090   11.7890 C.2   154  ILE154      0.2592
     40  O          6.4470    1.8210   12.6190 O.2   154  ILE154     -0.2718
     41  CB         5.1550    4.2310   11.0310 C.3   154  ILE154      0.0266
     42  CG1        4.6320    4.9300    9.7880 C.3   154  ILE154      0.0019
     43  CG2        5.8650    5.2470   11.9130 C.3   154  ILE154      0.0020
     44  CD1        3.4900    5.8630   10.0770 C.3   154  ILE154      0.0001
     45  N          8.1710    3.0910   11.8580 N.am  155  ILE155     -0.1966
     46  CA         9.0590    2.7900   12.9800 C.3   155  ILE155      0.1727
     47  C          9.5250    4.0780   13.6570 C.2   155  ILE155      0.2616
     48  O          9.6580    5.1320   13.0080 O.2   155  ILE155     -0.2715
     49  CB        10.2380    1.8440   12.5970 C.3   155  ILE155      0.0290
     50  CG1       11.2940    2.5150   11.7170 C.3   155  ILE155      0.0022
     51  CG2        9.7160    0.6200   11.8590 C.3   155  ILE155      0.0023
     52  CD1       12.5420    1.6870   11.5790 C.3   155  ILE155      0.0001
     53  N          9.7220    3.9780   14.9710 N.am  156  LYS156     -0.1963
     54  CA        10.2130    5.0750   15.7930 C.3   156  LYS156      0.1728
     55  C         11.6530    4.7810   16.1090 C.2   156  LYS156      0.2616
     56  O         11.9960    3.6430   16.4270 O.2   156  LYS156     -0.2715
     57  CB         9.4310    5.2090   17.0940 C.3   156  LYS156      0.0311
     58  CG         9.8070    6.4530   17.9030 C.3   156  LYS156      0.0038
     59  CD         9.1040    6.5650   19.2580 C.3   156  LYS156      0.0206
     60  CE         8.1040    7.7120   19.2400 C.3   156  LYS156      0.1093
     61  NZ         7.3760    7.9300   20.5310 N.3   156  LYS156     -0.1314
     62  N         12.4900    5.7980   15.9590 N.am  157  LEU157     -0.1977
     63  CA        13.9020    5.7170   16.2780 C.3   157  LEU157      0.1596
     64  C         14.3250    7.0020   16.9830 C.2   157  LEU157      0.2287
     65  O         13.9690    8.1020   16.5210 O.2   157  LEU157     -0.2864
     66  CB        14.7300    5.6540   15.0040 C.3   157  LEU157      0.0297
     67  CG        15.1300    4.3310   14.4000 C.3   157  LEU157      0.0022
     68  CD1       16.2990    4.5260   13.4640 C.3   157  LEU157      0.0001
     69  CD2       15.5270    3.4070   15.5160 C.3   157  LEU157      0.0001
     70  N         19.6010    5.1620   19.4100 N.3   161  GLU161     -0.1245
     71  CA        19.2710    3.8800   18.8020 C.3   161  GLU161      0.1567
     72  C         19.9310    3.8850   17.4390 C.2   161  GLU161      0.2260
     73  O         20.5880    2.9420   17.0630 O.2   161  GLU161     -0.2867
     74  CB        17.7630    3.6740   18.6760 C.3   161  GLU161      0.0388
     75  CG        17.0560    3.4040   20.0110 C.3   161  GLU161      0.1160
     76  CD        15.5130    3.4030   19.9240 C.2   161  GLU161      0.3649
     77  OE1       14.8960    4.3640   19.4150 O.co2 161  GLU161     -0.2457
     78  OE2       14.8810    2.4300   20.3920 O.co2 161  GLU161     -0.2457
     79  N         23.5430    3.5410   17.5160 N.3   164  GLN164     -0.1231
     80  CA        23.8800    2.1910   17.9730 C.3   164  GLN164      0.1698
     81  C         23.9000    1.2450   16.7940 C.2   164  GLN164      0.2592
     82  O         24.8530    0.4850   16.6360 O.2   164  GLN164     -0.2718
     83  CB        22.8900    1.7030   19.0080 C.3   164  GLN164      0.0381
     84  CG        23.5430    1.2040   20.2730 C.3   164  GLN164      0.0905
     85  CD        22.6480    1.3570   21.4970 C.2   164  GLN164      0.2608
     86  OE1       22.2090    2.4570   21.8590 O.2   164  GLN164     -0.2717
     87  NE2       22.3920    0.2400   22.1500 N.am  164  GLN164     -0.0878
     88  N         22.8480    1.2920   15.9820 N.am  165  LEU165     -0.1980
     89  CA        22.7530    0.4560   14.8060 C.3   165  LEU165      0.1596
     90  C         23.9040    0.6880   13.8230 C.2   165  LEU165      0.2287
     91  O         24.3940   -0.2490   13.2160 O.2   165  LEU165     -0.2864
     92  CB        21.4610    0.7450   14.0530 C.3   165  LEU165      0.0297
     93  CG        20.1660    0.2900   14.6760 C.3   165  LEU165      0.0022
     94  CD1       19.0020    0.8010   13.8410 C.3   165  LEU165      0.0001
     95  CD2       20.1280   -1.2310   14.8050 C.3   165  LEU165      0.0001
     96  N         27.4740   -1.0990   14.6770 N.3   168  TYR168     -0.1241
     97  CA        27.7070   -2.5240   14.3870 C.3   168  TYR168      0.1605
     98  C         26.9300   -3.0720   13.1930 C.2   168  TYR168      0.2264
     99  O         27.5470   -3.5680   12.2430 O.2   168  TYR168     -0.2867
    100  CB        27.5550   -3.4440   15.6180 C.3   168  TYR168      0.0534
    101  CG        26.4350   -3.1420   16.5930 C.ar  168  TYR168     -0.0201
    102  CD1       25.1050   -3.4380   16.2900 C.ar  168  TYR168     -0.0009
    103  CD2       26.7170   -2.6230   17.8570 C.ar  168  TYR168     -0.0009
    104  CE1       24.0870   -3.1880   17.2020 C.ar  168  TYR168      0.0417
    105  CE2       25.7080   -2.3720   18.7770 C.ar  168  TYR168      0.0417
    106  CZ        24.3960   -2.6530   18.4480 C.ar  168  TYR168      0.1957
    107  OH        23.4040   -2.3890   19.3660 O.3   168  TYR168     -0.2866
@<TRIPOS>BOND
     1    42    44    1
     2    42    41    1
     3    37    38    1
     4    19    17   ar
     5    38    41    1
     6    38    39    1
     7    41    43    1
     8    17    16    1
     9    17    18   ar
    10    16    13    1
    11    52    50    1
    12    50    49    1
    13    39    45   am
    14    39    40    2
    15    45    46    1
    16    51    49    1
    17    99    98    2
    18     8    10   ar
    19     8     6   ar
    20     1     2    1
    21    49    46    1
    22    10    11   ar
    23    15    14    2
    24    12    13    1
    25    12     3   am
    26    13    14    1
    27    46    47    1
    28    48    47    2
    29    98    97    1
    30    91    90    2
    31     5     6    1
    32     5     2    1
    33    14    20   am
    34    32    31    2
    35    68    67    1
    36     6     7   ar
    37     2     3    1
    38    47    53   am
    39    31    30    1
    40    11     9   ar
    41     3     4    2
    42    90    89    1
    43    94    93    1
    44    92    93    1
    45    92    89    1
    46    97    96    1
    47    97   100    1
    48    67    66    1
    49    67    69    1
    50     7     9   ar
    51    93    95    1
    52    20    21    1
    53    35    34   ar
    54    89    88    1
    55    53    54    1
    56    66    63    1
    57    23    22    2
    58    30    29    1
    59    30    33    1
    60    22    21    1
    61    22    29   am
    62    21    24    1
    63    34    36   ar
    64    34    33    1
    65   100   101    1
    66    54    55    1
    67    54    57    1
    68    62    55   am
    69    62    63    1
    70    88    81   am
    71    55    56    2
    72    63    64    1
    73   102   101   ar
    74   102   104   ar
    75    65    64    2
    76   101   103   ar
    77    82    81    2
    78    81    80    1
    79    24    25    1
    80    25    26    1
    81    73    72    2
    82    57    58    1
    83   104   106   ar
    84    72    71    1
    85    79    80    1
    86   103   105   ar
    87    58    59    1
    88    80    83    1
    89    27    26    1
    90    27    28    1
    91   106   105   ar
    92   106   107    1
    93    74    71    1
    94    74    75    1
    95    71    70    1
    96    83    84    1
    97    60    59    1
    98    60    61    1
    99    77    76   ar
   100    76    75    1
   101    76    78   ar
   102    84    85    1
   103    85    86    2
   104    85    87   am
