@<TRIPOS>MOLECULE
tmp/4okkA00.pdb
 106 104 0 0 0
SMALL
GASTEIGER

@<TRIPOS>ATOM
      1  N         17.4500   73.4720    5.2570 N.3     6  ASP6       -0.1225
      2  CA        18.8640   73.1690    5.2880 C.3     6  ASP6        0.1805
      3  C         19.5580   74.4080    5.8310 C.2     6  ASP6        0.2598
      4  O         19.1180   75.5050    5.5710 O.2     6  ASP6       -0.2718
      5  CB        19.3770   72.8660    3.8930 C.3     6  ASP6        0.1424
      6  CG        20.8610   72.5660    3.8800 C.2     6  ASP6        0.3668
      7  OD1       21.2490   71.5310    4.4380 O.co2   6  ASP6       -0.2456
      8  OD2       21.6500   73.3600    3.3220 O.co2   6  ASP6       -0.2456
      9  N         20.6360   74.2240    6.5760 N.am    7  THR7       -0.1939
     10  CA        21.4620   75.3610    7.0210 C.3     7  THR7        0.2028
     11  C         22.9040   75.1610    6.6010 C.2     7  THR7        0.2642
     12  O         23.3510   74.0230    6.4320 O.2     7  THR7       -0.2714
     13  CB        21.3880   75.6160    8.5740 C.3     7  THR7        0.1808
     14  OG1       22.0190   74.5250    9.2520 O.3     7  THR7       -0.2208
     15  CG2       19.9110   75.7310    9.0690 C.3     7  THR7        0.0379
     16  N         23.6180   76.2670    6.4260 N.am    8  GLU8       -0.1963
     17  CA        25.0750   76.2630    6.3580 C.3     8  GLU8        0.1733
     18  C         25.5430   77.0420    7.5720 C.2     8  GLU8        0.2616
     19  O         24.8250   77.9270    8.0630 O.2     8  GLU8       -0.2715
     20  CB        25.6000   76.9930    5.0980 C.3     8  GLU8        0.0429
     21  CG        25.0500   76.5100    3.7670 C.3     8  GLU8        0.1163
     22  CD        25.2320   74.9900    3.5600 C.2     8  GLU8        0.3649
     23  OE1       26.3220   74.4580    3.9350 O.co2   8  GLU8       -0.2457
     24  OE2       24.2780   74.3380    3.0210 O.co2   8  GLU8       -0.2457
     25  N         26.7480   76.7380    8.0380 N.am    9  PHE9       -0.1960
     26  CA        27.1760   77.2010    9.3610 C.3     9  PHE9        0.1771
     27  C         28.6260   76.9430    9.4960 C.2     9  PHE9        0.2619
     28  O         29.1390   76.1550    8.7460 O.2     9  PHE9       -0.2715
     29  CB        26.4260   76.4780   10.5340 C.3     9  PHE9        0.0574
     30  CG        26.4390   74.9600   10.4530 C.ar    9  PHE9       -0.0200
     31  CD1       27.6140   74.2330   10.6520 C.ar    9  PHE9       -0.0042
     32  CD2       25.2560   74.2520   10.1860 C.ar    9  PHE9       -0.0042
     33  CE1       27.6130   72.8360   10.5890 C.ar    9  PHE9       -0.0003
     34  CE2       25.2460   72.8580   10.0990 C.ar    9  PHE9       -0.0003
     35  CZ        26.4410   72.1460   10.3080 C.ar    9  PHE9       -0.0000
     36  N         29.2620   77.6190   10.4690 N.am   10  ILE10      -0.1963
     37  CA        30.6340   77.3460   10.9100 C.3    10  ILE10       0.1727
     38  C         30.5550   76.7090   12.3180 C.2    10  ILE10       0.2616
     39  O         30.0900   77.3100   13.2950 O.2    10  ILE10      -0.2715
     40  CB        31.5040   78.6150   10.9010 C.3    10  ILE10       0.0290
     41  CG1       31.5660   79.2230    9.4950 C.3    10  ILE10       0.0022
     42  CG2       32.9280   78.3670   11.4810 C.3    10  ILE10       0.0023
     43  CD1       31.7550   80.7110    9.5140 C.3    10  ILE10       0.0001
     44  N         30.9870   75.4570   12.3780 N.am   11  GLU11      -0.1977
     45  CA        30.8270   74.5940   13.5300 C.3    11  GLU11       0.1602
     46  C         32.2410   74.1590   13.9950 C.2    11  GLU11       0.2287
     47  O         32.9780   73.5350   13.2300 O.2    11  GLU11      -0.2864
     48  CB        29.9990   73.4130   13.0300 C.3    11  GLU11       0.0415
     49  CG        29.6620   72.4030   13.9550 C.3    11  GLU11       0.1163
     50  CD        30.7830   71.4830   14.2590 C.2    11  GLU11       0.3649
     51  OE1       31.5290   71.0840   13.3470 O.co2  11  GLU11      -0.2457
     52  OE2       30.9270   71.1890   15.4340 O.co2  11  GLU11      -0.2457
     53  N         36.7950   74.0530    3.8040 N.3    46  TRP46      -0.1227
     54  CA        35.6250   73.4910    3.1800 C.3    46  TRP46       0.1737
     55  C         34.5160   74.5560    2.9810 C.2    46  TRP46       0.2595
     56  O         33.8610   74.6150    1.9240 O.2    46  TRP46      -0.2718
     57  CB        35.1210   72.2860    3.9860 C.3    46  TRP46       0.0564
     58  CG        34.1310   71.4960    3.2100 C.ar   46  TRP46       0.0003
     59  CD1       34.3910   70.4320    2.3750 C.ar   46  TRP46       0.0946
     60  CD2       32.7190   71.7500    3.1150 C.ar   46  TRP46       0.0152
     61  NE1       33.2140   70.0010    1.7830 N.ar   46  TRP46      -0.2442
     62  CE2       32.1780   70.7900    2.2210 C.ar   46  TRP46       0.0810
     63  CE3       31.8560   72.6950    3.6980 C.ar   46  TRP46       0.0012
     64  CZ2       30.8030   70.7350    1.9230 C.ar   46  TRP46       0.0191
     65  CZ3       30.4970   72.6450    3.3970 C.ar   46  TRP46       0.0001
     66  CH2       29.9860   71.6780    2.5160 C.ar   46  TRP46       0.0015
     67  N         34.3160   75.3810    4.0040 N.am   47  VAL47      -0.1980
     68  CA        33.2760   76.3960    4.0130 C.3    47  VAL47       0.1595
     69  C         33.7270   77.5680    3.1330 C.2    47  VAL47       0.2287
     70  O         32.9400   78.0930    2.3540 O.2    47  VAL47      -0.2864
     71  CB        32.9070   76.8010    5.4730 C.3    47  VAL47       0.0276
     72  CG1       32.0120   78.0240    5.5230 C.3    47  VAL47       0.0022
     73  CG2       32.2710   75.6030    6.1880 C.3    47  VAL47       0.0022
     74  N         31.0790   76.9080    0.4530 N.3    51  VAL51      -0.1245
     75  CA        29.9190   77.6500    0.9700 C.3    51  VAL51       0.1561
     76  C         29.9690   79.1530    0.6720 C.2    51  VAL51       0.2260
     77  O         29.0300   79.6770    0.0640 O.2    51  VAL51      -0.2867
     78  CB        29.5800   77.3450    2.4790 C.3    51  VAL51       0.0252
     79  CG1       28.3170   78.0780    2.8990 C.3    51  VAL51       0.0019
     80  CG2       29.3910   75.8340    2.7260 C.3    51  VAL51       0.0019
     81  N         21.4960   71.0720   11.8550 N.3    95  ASP95      -0.1239
     82  CA        20.5610   71.9840   11.2630 C.3    95  ASP95       0.1674
     83  C         19.4500   72.3090   12.2550 C.2    95  ASP95       0.2266
     84  O         18.9970   73.4140   12.2860 O.2    95  ASP95      -0.2867
     85  CB        19.9150   71.4160    9.9750 C.3    95  ASP95       0.1410
     86  CG        20.9340   71.0460    8.9160 C.2    95  ASP95       0.3668
     87  OD1       21.5440   71.9450    8.3220 O.co2  95  ASP95      -0.2456
     88  OD2       21.1570   69.8340    8.7350 O.co2  95  ASP95      -0.2456
     89  N         25.2510   73.0670   -1.4390 N.3   140  HIS140     -0.1241
     90  CA        25.9320   73.8810   -0.4260 C.3   140  HIS140      0.1621
     91  C         25.4030   75.3360   -0.4340 C.2   140  HIS140      0.2264
     92  O         25.8740   76.1980    0.3170 O.2   140  HIS140     -0.2867
     93  CB        27.4690   73.7340   -0.5010 C.3   140  HIS140      0.0745
     94  CG        27.9120   72.3050   -0.5930 C.ar  140  HIS140      0.0817
     95  ND1       28.7330   71.8410   -1.6030 N.ar  140  HIS140     -0.2268
     96  CD2       27.5820   71.2210    0.1520 C.ar  140  HIS140      0.1154
     97  CE1       28.9380   70.5450   -1.4390 C.ar  140  HIS140      0.1986
     98  NE2       28.2530   70.1450   -0.3790 N.ar  140  HIS140     -0.2212
     99  N         19.6420   73.1940   -1.6260 N.3   145  ASP145     -0.1239
    100  CA        19.5850   71.9960   -0.8170 C.3   145  ASP145      0.1674
    101  C         18.1710   71.7950   -0.2510 C.2   145  ASP145      0.2266
    102  O         17.6080   70.7410   -0.4230 O.2   145  ASP145     -0.2867
    103  CB        20.6800   72.0180    0.2590 C.3   145  ASP145      0.1410
    104  CG        20.8240   70.6760    0.9870 C.2   145  ASP145      0.3668
    105  OD1       19.8940   70.3050    1.7720 O.co2 145  ASP145     -0.2456
    106  OD2       21.8820   69.9990    0.7940 O.co2 145  ASP145     -0.2456
@<TRIPOS>BOND
     1    99   100    1
     2    95    97   ar
     3    95    94   ar
     4    89    90    1
     5    97    98   ar
     6   100   101    1
     7   100   103    1
     8    94    93    1
     9    94    96   ar
    10    93    90    1
    11    91    90    1
    12    91    92    2
    13   102   101    2
    14    98    96   ar
    15    77    76    2
    16   103   104    1
    17    74    75    1
    18    76    75    1
    19   106   104   ar
    20    75    78    1
    21   104   105   ar
    22    61    62   ar
    23    61    59   ar
    24    64    62   ar
    25    64    66   ar
    26    56    55    2
    27    62    60   ar
    28    70    69    2
    29    59    58   ar
    30    78    80    1
    31    78    79    1
    32    66    65   ar
    33    55    54    1
    34    55    67   am
    35    24    22   ar
    36    60    58   ar
    37    60    63   ar
    38    69    68    1
    39    54    53    1
    40    54    57    1
    41    58    57    1
    42     8     6   ar
    43    65    63   ar
    44    22    21    1
    45    22    23   ar
    46    21    20    1
    47     6     5    1
    48     6     7   ar
    49     5     2    1
    50    67    68    1
    51    68    71    1
    52    20    17    1
    53     1     2    1
    54     2     3    1
    55    71    72    1
    56    71    73    1
    57     4     3    2
    58     3     9   am
    59    17    16    1
    60    17    18    1
    61    16    11   am
    62    12    11    2
    63     9    10    1
    64    11    10    1
    65    10    13    1
    66    18    25   am
    67    18    19    2
    68    25    26    1
    69    87    86   ar
    70    13    15    1
    71    13    14    1
    72    88    86   ar
    73    28    27    2
    74    86    85    1
    75    26    27    1
    76    26    29    1
    77    41    43    1
    78    41    40    1
    79    27    36   am
    80    85    82    1
    81    34    32   ar
    82    34    35   ar
    83    32    30   ar
    84    35    33   ar
    85    30    29    1
    86    30    31   ar
    87    36    37    1
    88    33    31   ar
    89    40    37    1
    90    40    42    1
    91    37    38    1
    92    82    81    1
    93    82    83    1
    94    83    84    2
    95    38    44   am
    96    38    39    2
    97    44    45    1
    98    48    45    1
    99    48    49    1
   100    47    46    2
   101    51    50   ar
   102    45    46    1
   103    49    50    1
   104    50    52   ar
