@<TRIPOS>MOLECULE
tmp/4okmA00.pdb
 130 122 0 0 0
SMALL
GASTEIGER

@<TRIPOS>ATOM
      1  N        -70.1900  111.0280   38.9090 N.3    76  PHE76      -0.1241
      2  CA       -69.1950  111.1690   37.8390 C.3    76  PHE76       0.1605
      3  C        -69.3260  110.0230   36.8340 C.2    76  PHE76       0.2264
      4  O        -69.1200  110.2080   35.6380 O.2    76  PHE76      -0.2867
      5  CB       -67.7660  111.2490   38.3980 C.3    76  PHE76       0.0534
      6  CG       -67.4400  112.5720   39.0360 C.ar   76  PHE76      -0.0203
      7  CD1      -66.9840  112.6380   40.3410 C.ar   76  PHE76      -0.0042
      8  CD2      -67.6020  113.7610   38.3250 C.ar   76  PHE76      -0.0042
      9  CE1      -66.6770  113.8570   40.9200 C.ar   76  PHE76      -0.0003
     10  CE2      -67.3030  114.9840   38.9020 C.ar   76  PHE76      -0.0003
     11  CZ       -66.8460  115.0330   40.2040 C.ar   76  PHE76      -0.0000
     12  N        -72.0360  111.5390   34.8150 N.3    79  ASP79      -0.1225
     13  CA       -71.6680  112.8390   34.2380 C.3    79  ASP79       0.1805
     14  C        -70.4820  112.7440   33.2580 C.2    79  ASP79       0.2597
     15  O        -70.5210  113.3270   32.1700 O.2    79  ASP79      -0.2718
     16  CB       -71.3800  113.8710   35.3350 C.3    79  ASP79       0.1424
     17  CG       -71.6270  115.2980   34.8670 C.2    79  ASP79       0.3668
     18  OD1      -72.7910  115.6400   34.5750 O.co2  79  ASP79      -0.2456
     19  OD2      -70.6620  116.0830   34.7870 O.co2  79  ASP79      -0.2456
     20  N        -69.4370  112.0170   33.6400 N.am   80  ASP80      -0.1974
     21  CA       -68.3250  111.7500   32.7290 C.3    80  ASP80       0.1709
     22  C        -68.7140  110.6830   31.7070 C.2    80  ASP80       0.2293
     23  O        -68.6180  110.9010   30.5030 O.2    80  ASP80      -0.2864
     24  CB       -67.0740  111.2970   33.4910 C.3    80  ASP80       0.1436
     25  CG       -66.4640  112.4020   34.3410 C.2    80  ASP80       0.3671
     26  OD1      -65.5920  112.0940   35.1830 O.co2  80  ASP80      -0.2456
     27  OD2      -66.8400  113.5800   34.1660 O.co2  80  ASP80      -0.2456
     28  N        -70.5410  113.9960   29.4230 N.3    84  GLU84      -0.1245
     29  CA       -69.4110  114.7670   28.8580 C.3    84  GLU84       0.1567
     30  C        -68.3990  113.9720   28.0210 C.2    84  GLU84       0.2260
     31  O        -67.6930  114.5580   27.1950 O.2    84  GLU84      -0.2867
     32  CB       -68.6650  115.5050   29.9720 C.3    84  GLU84       0.0388
     33  CG       -69.5560  116.4500   30.7640 C.3    84  GLU84       0.1160
     34  CD       -68.7720  117.4470   31.5940 C.2    84  GLU84       0.3649
     35  OE1      -68.0640  118.2900   31.0090 O.co2  84  GLU84      -0.2457
     36  OE2      -68.8640  117.3930   32.8400 O.co2  84  GLU84      -0.2457
     37  N        -76.5160  125.8710   35.5410 N.3   175  ARG175     -0.1245
     38  CA       -75.3800  125.5150   36.3840 C.3   175  ARG175      0.1563
     39  C        -75.7650  125.3640   37.8530 C.2   175  ARG175      0.2260
     40  O        -75.1000  124.6620   38.6030 O.2   175  ARG175     -0.2867
     41  CB       -74.2730  126.5660   36.2190 C.3   175  ARG175      0.0307
     42  CG       -72.9140  126.1790   36.7730 C.3   175  ARG175      0.0489
     43  CD       -72.4140  124.8550   36.2190 C.3   175  ARG175      0.2205
     44  NE       -71.0040  124.6280   36.5420 N.pl3 175  ARG175     -0.0865
     45  CZ       -70.4480  123.4290   36.7240 C.cat 175  ARG175      0.5346
     46  NH1      -69.1550  123.3390   37.0280 N.pl3 175  ARG175      0.1354
     47  NH2      -71.1700  122.3140   36.6130 N.pl3 175  ARG175      0.1354
     48  N        -76.7580  121.4320   37.1910 N.3   178  ASP178     -0.1225
     49  CA       -76.0230  120.4540   36.3680 C.3   178  ASP178      0.1805
     50  C        -74.6700  120.0400   36.9370 C.2   178  ASP178      0.2598
     51  O        -74.0360  119.1260   36.4090 O.2   178  ASP178     -0.2718
     52  CB       -75.9250  120.8880   34.8840 C.3   178  ASP178      0.1424
     53  CG       -74.8240  121.9130   34.6060 C.2   178  ASP178      0.3668
     54  OD1      -74.8090  122.4330   33.4700 O.co2 178  ASP178     -0.2456
     55  OD2      -73.9730  122.1960   35.4710 O.co2 178  ASP178     -0.2456
     56  N        -74.2470  120.7020   38.0130 N.am  179  GLY179     -0.1957
     57  CA       -73.0720  120.2890   38.7720 C.3   179  GLY179      0.1869
     58  C        -73.3860  119.2550   39.8450 C.2   179  GLY179      0.2309
     59  O        -72.4920  118.8390   40.5810 O.2   179  GLY179     -0.2863
     60  N        -65.5180  125.6200   40.8490 N.3   221  ASN221     -0.1225
     61  CA       -65.1790  124.5220   39.9600 C.3   221  ASN221      0.1785
     62  C        -64.8670  125.0030   38.5450 C.2   221  ASN221      0.2597
     63  O        -63.8790  124.5690   37.9500 O.2   221  ASN221     -0.2718
     64  CB       -66.2780  123.4640   39.9220 C.3   221  ASN221      0.1169
     65  CG       -66.0030  122.3930   38.8870 C.2   221  ASN221      0.2627
     66  OD1      -66.3170  122.5640   37.7120 O.2   221  ASN221     -0.2716
     67  ND2      -65.3960  121.2910   39.3120 N.am  221  ASN221     -0.0877
     68  N        -65.7050  125.8810   37.9990 N.am  222  ASP222     -0.1974
     69  CA       -65.4180  126.4600   36.6810 C.3   222  ASP222      0.1709
     70  C        -64.0080  127.0590   36.6370 C.2   222  ASP222      0.2293
     71  O        -63.3010  126.9040   35.6420 O.2   222  ASP222     -0.2864
     72  CB       -66.4500  127.5210   36.2920 C.3   222  ASP222      0.1436
     73  CG       -67.7940  126.9220   35.8980 C.2   222  ASP222      0.3671
     74  OD1      -68.6830  127.7030   35.4930 O.co2 222  ASP222     -0.2456
     75  OD2      -67.9600  125.6820   35.9860 O.co2 222  ASP222     -0.2456
     76  N        -61.3530  123.8870   37.3960 N.3   225  SER225     -0.1217
     77  CA       -61.4050  122.8500   36.3640 C.3   225  SER225      0.1889
     78  C        -61.2590  123.4080   34.9450 C.2   225  SER225      0.2288
     79  O        -61.2390  122.6370   33.9820 O.2   225  SER225     -0.2866
     80  CB       -62.6940  122.0150   36.4840 C.3   225  SER225      0.2089
     81  OG       -63.8470  122.7010   36.0120 O.3   225  SER225     -0.2183
     82  N        -58.2520  121.7800   33.1180 N.3   228  LYS228     -0.1231
     83  CA       -58.6050  120.4040   32.7610 C.3   228  LYS228      0.1693
     84  C        -59.6170  120.3440   31.6000 C.2   228  LYS228      0.2591
     85  O        -59.5370  119.4710   30.7370 O.2   228  LYS228     -0.2718
     86  CB       -59.1360  119.6840   34.0160 C.3   228  LYS228      0.0285
     87  CG       -59.8250  118.3540   33.7770 C.3   228  LYS228      0.0035
     88  CD       -61.3000  118.5090   33.4290 C.3   228  LYS228      0.0206
     89  CE       -62.2330  118.2540   34.5960 C.3   228  LYS228      0.1093
     90  NZ       -63.5620  117.8060   34.0930 N.3   228  LYS228     -0.1314
     91  N        -60.5590  121.2810   31.5840 N.am  229  GLU229     -0.1979
     92  CA       -61.6250  121.2970   30.5790 C.3   229  GLU229      0.1602
     93  C        -61.1730  121.8960   29.2510 C.2   229  GLU229      0.2287
     94  O        -61.3930  121.2960   28.1940 O.2   229  GLU229     -0.2864
     95  CB       -62.8460  122.0490   31.1130 C.3   229  GLU229      0.0415
     96  CG       -63.6130  121.2450   32.1540 C.3   229  GLU229      0.1163
     97  CD       -64.6460  122.0510   32.9140 C.2   229  GLU229      0.3649
     98  OE1      -65.2170  121.4870   33.8750 O.co2 229  GLU229     -0.2457
     99  OE2      -64.8930  123.2270   32.5650 O.co2 229  GLU229     -0.2457
    100  N        -68.1950  123.4690   28.7630 N.3   237  LEU237     -0.1245
    101  CA       -68.8870  124.6860   29.1580 C.3   237  LEU237      0.1561
    102  C        -68.4240  125.0970   30.5320 C.2   237  LEU237      0.2260
    103  O        -68.2510  124.2480   31.4070 O.2   237  LEU237     -0.2867
    104  CB       -70.4010  124.4570   29.2320 C.3   237  LEU237      0.0270
    105  CG       -71.3120  125.1860   28.2560 C.3   237  LEU237      0.0019
    106  CD1      -72.7610  124.9530   28.6630 C.3   237  LEU237      0.0001
    107  CD2      -71.0010  126.6740   28.2130 C.3   237  LEU237      0.0001
    108  N        -57.9320  115.1260   39.5520 N.3   307  ARG307     -0.1231
    109  CA       -58.9780  115.4690   38.5970 C.3   307  ARG307      0.1694
    110  C        -58.7760  116.8840   38.0450 C.2   307  ARG307      0.2592
    111  O        -59.0810  117.1470   36.8820 O.2   307  ARG307     -0.2718
    112  CB       -60.3570  115.3670   39.2590 C.3   307  ARG307      0.0321
    113  CG       -61.5180  115.5650   38.3000 C.3   307  ARG307      0.0489
    114  CD       -62.8670  115.4140   38.9760 C.3   307  ARG307      0.2205
    115  NE       -63.9210  115.6050   37.9910 N.pl3 307  ARG307     -0.0865
    116  CZ       -64.4150  114.6630   37.1820 C.cat 307  ARG307      0.5346
    117  NH1      -65.3600  114.9930   36.3100 N.pl3 307  ARG307      0.1354
    118  NH2      -63.9890  113.4010   37.2320 N.pl3 307  ARG307      0.1354
    119  N        -58.2650  117.7900   38.8790 N.am  308  TYR308     -0.1976
    120  CA       -58.0620  119.1890   38.4710 C.3   308  TYR308      0.1639
    121  C        -56.5810  119.5840   38.3170 C.2   308  TYR308      0.2290
    122  O        -56.2480  120.4260   37.4830 O.2   308  TYR308     -0.2864
    123  CB       -58.7890  120.1240   39.4480 C.3   308  TYR308      0.0560
    124  CG       -60.2310  119.7070   39.6810 C.ar  308  TYR308     -0.0198
    125  CD1      -60.6630  119.2810   40.9350 C.ar  308  TYR308     -0.0009
    126  CD2      -61.1410  119.6940   38.6350 C.ar  308  TYR308     -0.0009
    127  CE1      -61.9710  118.8750   41.1420 C.ar  308  TYR308      0.0417
    128  CE2      -62.4570  119.2910   38.8270 C.ar  308  TYR308      0.0417
    129  CZ       -62.8660  118.8830   40.0810 C.ar  308  TYR308      0.1957
    130  OH       -64.1620  118.4740   40.2770 O.3   308  TYR308     -0.2866
@<TRIPOS>BOND
     1    31    30    2
     2    30    29    1
     3    94    93    2
     4   107   105    1
     5   105   106    1
     6   105   104    1
     7   100   101    1
     8    29    28    1
     9    29    32    1
    10   101   104    1
    11   101   102    1
    12    93    92    1
    13    32    33    1
    14    23    22    2
    15   102   103    2
    16    92    95    1
    17    92    91    1
    18    85    84    2
    19    33    34    1
    20    35    34   ar
    21    95    96    1
    22    91    84   am
    23    34    36   ar
    24    84    83    1
    25    22    21    1
    26    96    97    1
    27    15    14    2
    28    99    97   ar
    29    21    24    1
    30    21    20    1
    31    83    82    1
    32    83    86    1
    33    97    98   ar
    34    14    20   am
    35    14    13    1
    36    88    87    1
    37    88    89    1
    38    54    53   ar
    39    24    25    1
    40    87    86    1
    41    79    78    2
    42    90    89    1
    43    27    25   ar
    44    13    12    1
    45    13    16    1
    46    25    26   ar
    47    18    17   ar
    48    53    52    1
    49    53    55   ar
    50    19    17   ar
    51    17    16    1
    52    52    49    1
    53    78    77    1
    54    74    73   ar
    55    37    38    1
    56     4     3    2
    57    71    70    2
    58    73    75   ar
    59    73    72    1
    60    81    80    1
    61    43    44    1
    62    43    42    1
    63    41    38    1
    64    41    42    1
    65    72    69    1
    66   117   116    1
    67    77    80    1
    68    77    76    1
    69    49    50    1
    70    49    48    1
    71    38    39    1
    72    51    50    2
    73    44    45    2
    74    47    45    1
    75    70    69    1
    76    69    68    1
    77    45    46    1
    78     3     2    1
    79   111   110    2
    80    50    56   am
    81   116   118    1
    82   116   115    2
    83   122   121    2
    84    66    65    2
    85     2     5    1
    86     2     1    1
    87    39    40    2
    88    63    62    2
    89   115   114    1
    90    68    62   am
    91    56    57    1
    92   110   109    1
    93   110   119   am
    94   113   114    1
    95   113   112    1
    96   121   120    1
    97     8    10   ar
    98     8     6   ar
    99     5     6    1
   100   120   119    1
   101   120   123    1
   102    62    61    1
   103   109   112    1
   104   109   108    1
   105   126   128   ar
   106   126   124   ar
   107    57    58    1
   108   128   129   ar
   109    65    67   am
   110    65    64    1
   111    10    11   ar
   112     6     7   ar
   113   123   124    1
   114   124   125   ar
   115    58    59    2
   116    64    61    1
   117    61    60    1
   118   129   130    1
   119   129   127   ar
   120    11     9   ar
   121     7     9   ar
   122   125   127   ar
