@<TRIPOS>MOLECULE
tmp/4oknB00.pdb
 126 120 0 0 0
SMALL
GASTEIGER

@<TRIPOS>ATOM
      1  N          4.2050    9.6370  -19.4500 N.3    25  VAL25      -0.1231
      2  CA         3.7100    9.9440  -20.7770 C.3    25  VAL25       0.1692
      3  C          4.8850   10.3850  -21.6290 C.2    25  VAL25       0.2592
      4  O          5.5600   11.3640  -21.3100 O.2    25  VAL25      -0.2718
      5  CB         2.6680   11.0740  -20.7210 C.3    25  VAL25       0.0266
      6  CG1        2.1190   11.3710  -22.1150 C.3    25  VAL25       0.0020
      7  CG2        1.5500   10.7060  -19.7580 C.3    25  VAL25       0.0020
      8  N          5.1330    9.6440  -22.7040 N.am   26  GLY26      -0.1957
      9  CA         6.2540    9.9040  -23.5960 C.3    26  GLY26       0.1869
     10  C          7.3450    8.9010  -23.2950 C.2    26  GLY26       0.2309
     11  O          7.8860    8.8880  -22.1850 O.2    26  GLY26      -0.2863
     12  N          2.1240    6.4280  -24.9780 N.3    51  ASP51      -0.1225
     13  CA         2.6120    7.2450  -26.0860 C.3    51  ASP51       0.1805
     14  C          1.7330    6.9430  -27.3250 C.2    51  ASP51       0.2598
     15  O          0.9050    6.0220  -27.3050 O.2    51  ASP51      -0.2718
     16  CB         4.0860    6.9080  -26.3600 C.3    51  ASP51       0.1424
     17  CG         4.8670    8.0610  -26.9770 C.2    51  ASP51       0.3668
     18  OD1        4.3040    8.7940  -27.8180 O.co2  51  ASP51      -0.2456
     19  OD2        6.0690    8.2060  -26.6480 O.co2  51  ASP51      -0.2456
     20  N          1.9090    7.7250  -28.3900 N.am   52  VAL52      -0.1966
     21  CA         1.2270    7.4700  -29.6640 C.3    52  VAL52       0.1727
     22  C          1.9580    6.4610  -30.5430 C.2    52  VAL52       0.2616
     23  O          1.3410    5.7880  -31.3600 O.2    52  VAL52      -0.2715
     24  CB         0.9940    8.7620  -30.4770 C.3    52  VAL52       0.0290
     25  CG1       -0.0740    9.5960  -29.8000 C.3    52  VAL52       0.0023
     26  CG2        2.2870    9.5480  -30.6880 C.3    52  VAL52       0.0023
     27  N          3.2710    6.3660  -30.3800 N.am   53  ILE53      -0.1977
     28  CA         4.0790    5.4370  -31.1530 C.3    53  ILE53       0.1596
     29  C          3.8940    4.0530  -30.5460 C.2    53  ILE53       0.2287
     30  O          4.4840    3.7340  -29.5170 O.2    53  ILE53      -0.2864
     31  CB         5.5740    5.8000  -31.0880 C.3    53  ILE53       0.0276
     32  CG1        5.8110    7.2660  -31.4660 C.3    53  ILE53       0.0022
     33  CG2        6.3910    4.8630  -31.9720 C.3    53  ILE53       0.0022
     34  CD1        6.8790    7.9130  -30.6010 C.3    53  ILE53       0.0001
     35  N         -5.3150    5.7780  -22.9150 N.3    82  TYR82      -0.1241
     36  CA        -5.0240    6.2720  -21.5670 C.3    82  TYR82       0.1605
     37  C         -5.7380    5.5280  -20.4290 C.2    82  TYR82       0.2264
     38  O         -5.4750    5.8060  -19.2530 O.2    82  TYR82      -0.2867
     39  CB        -5.3050    7.7800  -21.4930 C.3    82  TYR82       0.0534
     40  CG        -4.1710    8.6050  -22.0590 C.ar   82  TYR82      -0.0201
     41  CD1       -3.9700    8.7160  -23.4400 C.ar   82  TYR82      -0.0009
     42  CD2       -3.2860    9.2660  -21.2120 C.ar   82  TYR82      -0.0009
     43  CE1       -2.9090    9.4640  -23.9470 C.ar   82  TYR82       0.0417
     44  CE2       -2.2300   10.0050  -21.7100 C.ar   82  TYR82       0.0417
     45  CZ        -2.0380   10.1010  -23.0680 C.ar   82  TYR82       0.1957
     46  OH        -0.9790   10.8510  -23.5320 O.3    82  TYR82      -0.2866
     47  N          6.1230   14.3120  -22.9120 N.3    95  ALA95      -0.1231
     48  CA         5.8030   14.3560  -24.3360 C.3    95  ALA95       0.1697
     49  C          5.8240   15.7940  -24.8420 C.2    95  ALA95       0.2632
     50  O          5.4010   16.7140  -24.1360 O.2    95  ALA95      -0.2714
     51  CB         4.4530   13.7130  -24.5960 C.3    95  ALA95       0.0304
     52  N          6.3150   15.9800  -26.0660 N.am   96  GLY96      -0.1718
     53  CA         6.3150   17.2980  -26.6910 C.2    96  GLY96       0.1480
     54  C          6.7120   17.3350  -28.1550 C.2    96  GLY96       0.2820
     55  O          7.1070   16.3210  -28.7400 O.2    96  GLY96      -0.2669
     56  N          6.6090   18.5290  -28.7390 N.am   97  ALA97      -0.1929
     57  CA         7.0000   18.7660  -30.1230 C.3    97  ALA97       0.1731
     58  C          8.5080   18.7390  -30.2650 C.2    97  ALA97       0.2616
     59  O          9.2230   19.0800  -29.3360 O.2    97  ALA97      -0.2715
     60  CB         6.4680   20.1120  -30.5880 C.3    97  ALA97       0.0334
     61  N          8.9880   18.3220  -31.4280 N.am   98  ARG98      -0.1977
     62  CA        10.4040   18.4250  -31.7400 C.3    98  ARG98       0.1597
     63  C         10.6280   19.6420  -32.6300 C.2    98  ARG98       0.2287
     64  O          9.8040   19.9550  -33.4950 O.2    98  ARG98      -0.2864
     65  CB        10.9170   17.1490  -32.4090 C.3    98  ARG98       0.0334
     66  CG        10.5640   16.9850  -33.8820 C.3    98  ARG98       0.0492
     67  CD        11.1540   15.7090  -34.4730 C.3    98  ARG98       0.2205
     68  NE        12.6150   15.6540  -34.3290 N.pl3  98  ARG98      -0.0865
     69  CZ        13.2800   15.0990  -33.3120 C.cat  98  ARG98       0.5346
     70  NH1       12.6400   14.5180  -32.3000 N.pl3  98  ARG98       0.1354
     71  NH2       14.6100   15.1270  -33.3050 N.pl3  98  ARG98       0.1354
     72  N         12.5360   22.1100  -35.4530 N.3   100  GLN100     -0.1245
     73  CA        13.0090   21.9110  -36.8260 C.3   100  GLN100      0.1566
     74  C         13.9160   23.0810  -37.2110 C.2   100  GLN100      0.2260
     75  O         14.2830   23.8700  -36.3480 O.2   100  GLN100     -0.2867
     76  CB        11.8140   21.7790  -37.7770 C.3   100  GLN100      0.0367
     77  CG        10.9200   20.5890  -37.4530 C.3   100  GLN100      0.0905
     78  CD         9.7700   20.4200  -38.4320 C.2   100  GLN100      0.2608
     79  OE1        9.3030   21.3830  -39.0400 O.2   100  GLN100     -0.2717
     80  NE2        9.3030   19.1890  -38.5820 N.am  100  GLN100     -0.0878
     81  N          2.6820   24.3420  -30.7860 N.3   111  ARG111     -0.1245
     82  CA         2.6210   22.9320  -31.1790 C.3   111  ARG111      0.1563
     83  C          2.5720   22.0040  -29.9570 C.2   111  ARG111      0.2260
     84  O          1.9160   20.9620  -30.0020 O.2   111  ARG111     -0.2867
     85  CB         3.7890   22.5640  -32.0950 C.3   111  ARG111      0.0307
     86  CG         3.6570   23.1220  -33.5090 C.3   111  ARG111      0.0489
     87  CD         4.9830   23.0420  -34.2420 C.3   111  ARG111      0.2205
     88  NE         5.4640   21.6590  -34.2980 N.pl3 111  ARG111     -0.0865
     89  CZ         6.7420   21.2790  -34.2950 C.cat 111  ARG111      0.5346
     90  NH1        7.7300   22.1690  -34.2280 N.pl3 111  ARG111      0.1354
     91  NH2        7.0330   19.9840  -34.3550 N.pl3 111  ARG111      0.1354
     92  N         -0.9850   22.2370  -28.5450 N.3   114  ASN114     -0.1225
     93  CA        -1.8720   21.3720  -29.3250 C.3   114  ASN114      0.1785
     94  C         -1.7500   19.9190  -28.8860 C.2   114  ASN114      0.2597
     95  O         -2.7540   19.2230  -28.7410 O.2   114  ASN114     -0.2718
     96  CB        -1.5680   21.4910  -30.8240 C.3   114  ASN114      0.1169
     97  CG        -1.8620   22.8700  -31.3710 C.2   114  ASN114      0.2627
     98  OD1       -2.7040   23.5930  -30.8400 O.2   114  ASN114     -0.2716
     99  ND2       -1.1710   23.2440  -32.4410 N.am  114  ASN114     -0.0877
    100  N         -0.5120   19.4770  -28.6730 N.am  115  ILE115     -0.1980
    101  CA        -0.2390   18.1390  -28.1580 C.3   115  ILE115      0.1595
    102  C         -0.8230   17.9770  -26.7470 C.2   115  ILE115      0.2287
    103  O         -1.3830   16.9280  -26.4280 O.2   115  ILE115     -0.2864
    104  CB         1.2810   17.8420  -28.1600 C.3   115  ILE115      0.0276
    105  CG1        1.7970   17.6760  -29.5960 C.3   115  ILE115      0.0022
    106  CG2        1.6080   16.6040  -27.3260 C.3   115  ILE115      0.0022
    107  CD1        3.3080   17.7080  -29.7350 C.3   115  ILE115      0.0001
    108  N         -4.6420   17.2890  -26.2240 N.3   118  PHE118     -0.1227
    109  CA        -5.0520   15.8930  -26.3290 C.3   118  PHE118      0.1736
    110  C         -4.6640   15.1200  -25.0740 C.2   118  PHE118      0.2595
    111  O         -5.4720   14.3910  -24.4990 O.2   118  PHE118     -0.2718
    112  CB        -4.4010   15.2350  -27.5420 C.3   118  PHE118      0.0547
    113  CG        -4.5200   13.7380  -27.5530 C.ar  118  PHE118     -0.0202
    114  CD1       -5.6880   13.1180  -27.9980 C.ar  118  PHE118     -0.0042
    115  CD2       -3.4620   12.9420  -27.1280 C.ar  118  PHE118     -0.0042
    116  CE1       -5.8010   11.7370  -28.0050 C.ar  118  PHE118     -0.0003
    117  CE2       -3.5700   11.5630  -27.1390 C.ar  118  PHE118     -0.0003
    118  CZ        -4.7370   10.9570  -27.5810 C.ar  118  PHE118     -0.0000
    119  N         -3.4120   15.2600  -24.6660 N.am  119  ILE119     -0.1980
    120  CA        -2.8870   14.4580  -23.5580 C.3   119  ILE119      0.1595
    121  C         -3.5890   14.7750  -22.2250 C.2   119  ILE119      0.2287
    122  O         -4.1090   13.8850  -21.5610 O.2   119  ILE119     -0.2864
    123  CB        -1.3580   14.6320  -23.4190 C.3   119  ILE119      0.0276
    124  CG1       -0.6540   14.0600  -24.6580 C.3   119  ILE119      0.0022
    125  CG2       -0.8570   13.9720  -22.1450 C.3   119  ILE119      0.0022
    126  CD1        0.8350   14.3280  -24.6990 C.3   119  ILE119      0.0001
@<TRIPOS>BOND
     1    79    78    2
     2    80    78   am
     3    78    77    1
     4    76    77    1
     5    76    73    1
     6    74    73    1
     7    74    75    2
     8    73    72    1
     9    67    68    1
    10    67    66    1
    11    91    89    1
    12    68    69    2
    13    88    89    2
    14    88    87    1
    15    89    90    1
    16    87    86    1
    17    66    65    1
    18    86    85    1
    19    64    63    2
    20    69    71    1
    21    69    70    1
    22    63    62    1
    23    99    97   am
    24    65    62    1
    25    85    82    1
    26    33    31    1
    27    62    61    1
    28    32    31    1
    29    32    34    1
    30    61    58   am
    31    97    98    2
    32    97    96    1
    33    23    22    2
    34    82    81    1
    35    82    83    1
    36    28    31    1
    37    28    29    1
    38    28    27    1
    39    96    93    1
    40    26    24    1
    41    60    57    1
    42    29    30    2
    43    22    27   am
    44    22    21    1
    45    24    25    1
    46    24    21    1
    47    58    57    1
    48    58    59    2
    49    57    56    1
    50    84    83    2
    51   107   105    1
    52    21    20    1
    53   105   104    1
    54    93    94    1
    55    93    92    1
    56    94    95    2
    57    94   100   am
    58    55    54    2
    59    56    54   am
    60   100   101    1
    61    20    14   am
    62   104   101    1
    63   104   106    1
    64   101   102    1
    65    54    53    1
    66   116   114   ar
    67   116   118   ar
    68   114   113   ar
    69    18    17   ar
    70   118   117   ar
    71   113   112    1
    72   113   115   ar
    73   112   109    1
    74    14    15    2
    75    14    13    1
    76   117   115   ar
    77    17    19   ar
    78    17    16    1
    79   102   103    2
    80    53    52    2
    81    16    13    1
    82   109   108    1
    83   109   110    1
    84    13    12    1
    85    52    49    1
    86   110   119   am
    87   110   111    2
    88    49    48    1
    89    49    50    2
    90   126   124    1
    91   119   120    1
    92   124   123    1
    93    51    48    1
    94    48    47    1
    95    43    41   ar
    96    43    45   ar
    97     9    10    1
    98     9     8    1
    99   120   123    1
   100   120   121    1
   101    46    45    1
   102    41    40   ar
   103   123   125    1
   104    10    11    2
   105    45    44   ar
   106    35    36    1
   107     8     3   am
   108   121   122    2
   109     6     5    1
   110    40    39    1
   111    40    42   ar
   112    44    42   ar
   113     3     4    2
   114     3     2    1
   115    36    39    1
   116    36    37    1
   117     2     5    1
   118     2     1    1
   119     5     7    1
   120    37    38    2
