@<TRIPOS>MOLECULE
tmp/4okpB00.pdb
 98 93 0 0 0
SMALL
GASTEIGER

@<TRIPOS>ATOM
      1  N         56.4550   10.8890   41.2400 N.3    89  TYR89      -0.1227
      2  CA        57.2230    9.8170   41.8580 C.3    89  TYR89       0.1736
      3  C         58.3610   10.3460   42.7170 C.2    89  TYR89       0.2595
      4  O         59.0040    9.5910   43.4450 O.2    89  TYR89      -0.2718
      5  CB        57.7270    8.8560   40.7750 C.3    89  TYR89       0.0548
      6  CG        56.5820    8.3270   39.9550 C.ar   89  TYR89      -0.0200
      7  CD1       56.2830    8.8610   38.7070 C.ar   89  TYR89      -0.0009
      8  CD2       55.7540    7.3350   40.4590 C.ar   89  TYR89      -0.0009
      9  CE1       55.2100    8.3930   37.9710 C.ar   89  TYR89       0.0417
     10  CE2       54.6790    6.8670   39.7360 C.ar   89  TYR89       0.0417
     11  CZ        54.4140    7.3930   38.4920 C.ar   89  TYR89       0.1957
     12  OH        53.3410    6.9150   37.7750 O.3    89  TYR89      -0.2866
     13  N         58.6020   11.6500   42.6330 N.am   90  TRP90      -0.1976
     14  CA        59.5560   12.3140   43.5140 C.3    90  TRP90       0.1640
     15  C         58.9320   13.6180   43.9740 C.2    90  TRP90       0.2290
     16  O         59.2010   14.6790   43.4070 O.2    90  TRP90      -0.2864
     17  CB        60.8760   12.5880   42.7960 C.3    90  TRP90       0.0576
     18  CG        62.0230   12.8390   43.7260 C.ar   90  TRP90       0.0006
     19  CD1       61.9800   12.9310   45.0930 C.ar   90  TRP90       0.0946
     20  CD2       63.3910   13.0130   43.3550 C.ar   90  TRP90       0.0152
     21  NE1       63.2430   13.1570   45.5900 N.ar   90  TRP90      -0.2442
     22  CE2       64.1260   13.2170   44.5410 C.ar   90  TRP90       0.0810
     23  CE3       64.0670   13.0320   42.1300 C.ar   90  TRP90       0.0012
     24  CZ2       65.5040   13.4200   44.5360 C.ar   90  TRP90       0.0191
     25  CZ3       65.4310   13.2380   42.1280 C.ar   90  TRP90       0.0001
     26  CH2       66.1360   13.4300   43.3210 C.ar   90  TRP90       0.0015
     27  N         71.3390   10.7210   48.6170 N.3   125  SER125     -0.1217
     28  CA        70.0160   11.0860   48.1320 C.3   125  SER125      0.1889
     29  C         69.7980   12.5930   48.2340 C.2   125  SER125      0.2288
     30  O         69.2140   13.2000   47.3410 O.2   125  SER125     -0.2866
     31  CB        68.9280   10.3350   48.9010 C.3   125  SER125      0.2089
     32  OG        68.9010    8.9680   48.5290 O.3   125  SER125     -0.2183
     33  N         71.6110   14.3240   45.5140 N.3   128  LEU128     -0.1245
     34  CA        70.9140   14.1050   44.2550 C.3   128  LEU128      0.1561
     35  C         69.7070   15.0350   44.1160 C.2   128  LEU128      0.2260
     36  O         69.4850   15.6240   43.0550 O.2   128  LEU128     -0.2867
     37  CB        70.4950   12.6380   44.1390 C.3   128  LEU128      0.0270
     38  CG        70.2220   12.0930   42.7370 C.3   128  LEU128      0.0019
     39  CD1       71.4670   12.1280   41.8230 C.3   128  LEU128      0.0001
     40  CD2       69.6610   10.6810   42.8140 C.3   128  LEU128      0.0001
     41  N         67.6780    8.5050   36.3610 N.3   154  LEU154     -0.1245
     42  CA        66.5770    8.9680   37.1950 C.3   154  LEU154      0.1561
     43  C         65.2860    8.2510   36.8120 C.2   154  LEU154      0.2260
     44  O         64.4900    7.8760   37.6940 O.2   154  LEU154     -0.2867
     45  CB        66.4210   10.4850   37.0990 C.3   154  LEU154      0.0270
     46  CG        65.3300   11.0610   38.0030 C.3   154  LEU154      0.0019
     47  CD1       65.5680   10.6970   39.4690 C.3   154  LEU154      0.0001
     48  CD2       65.2470   12.5740   37.8260 C.3   154  LEU154      0.0001
     49  N         65.2950    4.8810   38.6160 N.3   157  ALA157     -0.1231
     50  CA        65.0810    5.0410   40.0490 C.3   157  ALA157      0.1694
     51  C         63.6170    5.3370   40.3630 C.2   157  ALA157      0.2591
     52  O         63.0630    4.8230   41.3410 O.2   157  ALA157     -0.2718
     53  CB        65.9860    6.1520   40.5910 C.3   157  ALA157      0.0304
     54  N         62.9810    6.1690   39.5520 N.am  158  LEU158     -0.1980
     55  CA        61.5970    6.5300   39.8180 C.3   158  LEU158      0.1596
     56  C         60.6180    5.4490   39.3870 C.2   158  LEU158      0.2287
     57  O         59.5660    5.2800   40.0080 O.2   158  LEU158     -0.2864
     58  CB        61.2540    7.8700   39.1590 C.3   158  LEU158      0.0297
     59  CG        62.1090    9.0570   39.6080 C.3   158  LEU158      0.0022
     60  CD1       61.6200   10.3360   38.9630 C.3   158  LEU158      0.0001
     61  CD2       62.1040    9.1830   41.1310 C.3   158  LEU158      0.0001
     62  N         59.5690    3.0510   42.1170 N.3   161  LYS161     -0.1245
     63  CA        59.0390    3.5810   43.3680 C.3   161  LYS161      0.1561
     64  C         57.6920    2.9830   43.7660 C.2   161  LYS161      0.2260
     65  O         57.5200    2.5940   44.9180 O.2   161  LYS161     -0.2867
     66  CB        59.0090    5.1140   43.3640 C.3   161  LYS161      0.0271
     67  CG        60.4060    5.7370   43.4420 C.3   161  LYS161      0.0035
     68  CD        61.1260    5.3090   44.7240 C.3   161  LYS161      0.0206
     69  CE        62.5890    5.7630   44.7670 C.3   161  LYS161      0.1093
     70  NZ        63.5150    4.8440   44.0170 N.3   161  LYS161     -0.1314
     71  N         65.8510   -0.7730   43.4130 N.3   167  PHE167     -0.1241
     72  CA        66.0830   -0.9700   41.9870 C.3   167  PHE167      0.1605
     73  C         66.6680   -2.3580   41.7140 C.2   167  PHE167      0.2264
     74  O         66.2310   -3.0610   40.7870 O.2   167  PHE167     -0.2867
     75  CB        66.9980    0.1240   41.4390 C.3   167  PHE167      0.0534
     76  CG        67.1900    0.0530   39.9500 C.ar  167  PHE167     -0.0203
     77  CD1       66.2400    0.5860   39.0890 C.ar  167  PHE167     -0.0042
     78  CD2       68.3050   -0.5720   39.4110 C.ar  167  PHE167     -0.0042
     79  CE1       66.4020    0.5140   37.7120 C.ar  167  PHE167     -0.0003
     80  CE2       68.4790   -0.6500   38.0400 C.ar  167  PHE167     -0.0003
     81  CZ        67.5310   -0.1030   37.1840 C.ar  167  PHE167     -0.0000
     82  N         73.3140    6.8510   40.7930 N.3   213  LEU213     -0.1245
     83  CA        72.5090    6.2410   39.7350 C.3   213  LEU213      0.1561
     84  C         73.3090    5.2740   38.8660 C.2   213  LEU213      0.2260
     85  O         72.9430    5.0060   37.7160 O.2   213  LEU213     -0.2867
     86  CB        71.8000    7.3070   38.8880 C.3   213  LEU213      0.0270
     87  CG        70.8510    8.2130   39.6840 C.3   213  LEU213      0.0019
     88  CD1       70.3200    9.3620   38.8160 C.3   213  LEU213      0.0001
     89  CD2       69.6990    7.4010   40.2780 C.3   213  LEU213      0.0001
     90  N         71.3180    2.0940   37.7830 N.3   216  GLU216     -0.1245
     91  CA        70.2590    2.4130   36.8440 C.3   216  GLU216      0.1567
     92  C         70.7850    2.7710   35.4510 C.2   216  GLU216      0.2260
     93  O         70.1010    2.5530   34.4530 O.2   216  GLU216     -0.2867
     94  CB        69.4330    3.5770   37.4030 C.3   216  GLU216      0.0388
     95  CG        68.6770    3.2830   38.7110 C.3   216  GLU216      0.1160
     96  CD        69.4890    3.5040   39.9940 C.2   216  GLU216      0.3649
     97  OE1       70.7190    3.6950   39.9390 O.co2 216  GLU216     -0.2457
     98  OE2       68.8790    3.4880   41.0880 O.co2 216  GLU216     -0.2457
@<TRIPOS>BOND
     1    93    92    2
     2    92    91    1
     3    41    42    1
     4    43    42    1
     5    43    44    2
     6    91    94    1
     7    91    90    1
     8    45    42    1
     9    45    46    1
    10    81    79   ar
    11    81    80   ar
    12    94    95    1
    13    79    77   ar
    14    85    84    2
    15    12    11    1
    16    48    46    1
    17     9    11   ar
    18     9     7   ar
    19    46    47    1
    20    80    78   ar
    21    11    10   ar
    22    49    50    1
    23     7     6   ar
    24    95    96    1
    25    88    87    1
    26    84    83    1
    27    86    87    1
    28    86    83    1
    29    60    59    1
    30    77    76   ar
    31    58    59    1
    32    58    55    1
    33    56    55    1
    34    56    57    2
    35    78    76   ar
    36    54    55    1
    37    54    51   am
    38    59    61    1
    39    87    89    1
    40    83    82    1
    41    10     8   ar
    42    97    96   ar
    43    76    75    1
    44     6     8   ar
    45     6     5    1
    46    96    98   ar
    47    50    51    1
    48    50    53    1
    49    51    52    2
    50     5     2    1
    51    74    73    2
    52     1     2    1
    53    75    72    1
    54    73    72    1
    55    39    38    1
    56     2     3    1
    57    72    71    1
    58    62    63    1
    59    25    23   ar
    60    25    26   ar
    61    23    20   ar
    62    13     3   am
    63    13    14    1
    64     3     4    2
    65    38    40    1
    66    38    37    1
    67    17    14    1
    68    17    18    1
    69    36    35    2
    70    26    24   ar
    71    20    18   ar
    72    20    22   ar
    73    66    63    1
    74    66    67    1
    75    63    64    1
    76    16    15    2
    77    67    68    1
    78    14    15    1
    79    18    19   ar
    80    64    65    2
    81    70    69    1
    82    35    34    1
    83    37    34    1
    84    34    33    1
    85    24    22   ar
    86    22    21   ar
    87    68    69    1
    88    19    21   ar
    89    30    29    2
    90    28    29    1
    91    28    27    1
    92    28    31    1
    93    32    31    1
