@<TRIPOS>MOLECULE
tmp/4oksA00.pdb
 153 144 0 0 0
SMALL
GASTEIGER

@<TRIPOS>ATOM
      1  N        -16.1890  -22.0220   35.0720 N.3    47  PRO47      -0.2116
      2  CA       -15.9220  -23.0070   34.0030 C.3    47  PRO47       0.1372
      3  C        -14.9380  -24.0990   34.4430 C.2    47  PRO47       0.2244
      4  O        -15.0990  -25.2740   34.1110 O.2    47  PRO47      -0.2868
      5  CB       -15.3260  -22.1640   32.8730 C.3    47  PRO47       0.0268
      6  CG       -15.7430  -20.7280   33.1860 C.3    47  PRO47       0.0207
      7  CD       -15.7550  -20.6620   34.6970 C.3    47  PRO47       0.0892
      8  N        -12.7120  -26.6350   36.7920 N.3    49  VAL49      -0.1245
      9  CA       -12.7120  -27.5250   37.9490 C.3    49  VAL49       0.1561
     10  C        -11.6590  -27.0980   38.9690 C.2    49  VAL49       0.2260
     11  O        -11.8950  -27.1370   40.1720 O.2    49  VAL49      -0.2867
     12  CB       -12.4460  -28.9890   37.5320 C.3    49  VAL49       0.0252
     13  CG1      -12.2300  -29.8720   38.7560 C.3    49  VAL49       0.0019
     14  CG2      -13.5880  -29.5160   36.6750 C.3    49  VAL49       0.0019
     15  N        -18.0700  -30.6380   41.7750 N.3    71  THR71      -0.1203
     16  CA       -17.3620  -30.8240   40.5140 C.3    71  THR71       0.1994
     17  C        -17.5450  -32.2610   40.0760 C.2    71  THR71       0.2618
     18  O        -17.9780  -33.0970   40.8720 O.2    71  THR71      -0.2717
     19  CB       -15.8530  -30.5430   40.6430 C.3    71  THR71       0.1784
     20  OG1      -15.2240  -31.6410   41.3240 O.3    71  THR71      -0.2211
     21  CG2      -15.6070  -29.2490   41.4170 C.3    71  THR71       0.0376
     22  N        -17.2020  -32.5520   38.8220 N.am   72  GLY72      -0.1942
     23  CA       -17.2940  -33.9100   38.3080 C.3    72  GLY72       0.2014
     24  C        -16.5400  -34.9110   39.1700 C.2    72  GLY72       0.2638
     25  O        -17.1080  -35.8770   39.6530 O.2    72  GLY72      -0.2714
     26  N        -15.2660  -34.6420   39.4030 N.am   73  VAL73      -0.1977
     27  CA       -14.3940  -35.5790   40.1030 C.3    73  VAL73       0.1596
     28  C        -14.6280  -35.5810   41.6010 C.2    73  VAL73       0.2287
     29  O        -14.5190  -36.6250   42.2360 O.2    73  VAL73      -0.2864
     30  CB       -12.8940  -35.2750   39.8370 C.3    73  VAL73       0.0276
     31  CG1      -12.5790  -35.4520   38.3650 C.3    73  VAL73       0.0022
     32  CG2      -12.5250  -33.8540   40.2950 C.3    73  VAL73       0.0022
     33  N        -18.8750  -26.2000   39.2330 N.3    86  THR86      -0.1218
     34  CA       -18.6060  -25.9660   37.8240 C.3    86  THR86       0.1862
     35  C        -19.9250  -25.8750   37.0840 C.2    86  THR86       0.2287
     36  O        -20.9240  -26.4350   37.5280 O.2    86  THR86      -0.2866
     37  CB       -17.7620  -27.0800   37.1820 C.3    86  THR86       0.1770
     38  OG1      -18.4710  -28.3170   37.2510 O.3    86  THR86      -0.2211
     39  CG2      -16.4320  -27.2290   37.8810 C.3    86  THR86       0.0375
     40  N        -20.5010  -27.4390   34.3240 N.3    88  GLY88      -0.1210
     41  CA       -20.7720  -28.8170   33.9410 C.3    88  GLY88       0.1956
     42  C        -21.3880  -29.6730   35.0270 C.2    88  GLY88       0.2611
     43  O        -22.2330  -30.5150   34.7410 O.2    88  GLY88      -0.2717
     44  N        -20.9800  -29.4590   36.2750 N.am   89  LYS89      -0.1979
     45  CA       -21.5460  -30.2300   37.3790 C.3    89  LYS89       0.1596
     46  C        -22.9550  -29.7450   37.6830 C.2    89  LYS89       0.2287
     47  O        -23.8480  -30.5390   37.9820 O.2    89  LYS89      -0.2864
     48  CB       -20.6530  -30.1240   38.6280 C.3    89  LYS89       0.0298
     49  CG       -21.1360  -30.9510   39.8110 C.3    89  LYS89       0.0038
     50  CD       -21.0810  -32.4450   39.5100 C.3    89  LYS89       0.0206
     51  CE       -21.5710  -33.2860   40.6810 C.3    89  LYS89       0.1093
     52  NZ       -21.5580  -34.7440   40.3440 N.3    89  LYS89      -0.1314
     53  N        -25.0220  -28.5320   35.4740 N.3    91  LEU91      -0.1231
     54  CA       -25.8780  -29.1420   34.4480 C.3    91  LEU91       0.1693
     55  C        -26.1750  -30.6110   34.7450 C.2    91  LEU91       0.2591
     56  O        -27.3100  -31.0590   34.5580 O.2    91  LEU91      -0.2718
     57  CB       -25.2180  -29.0220   33.0740 C.3    91  LEU91       0.0284
     58  CG       -25.2290  -27.6150   32.4770 C.3    91  LEU91       0.0019
     59  CD1      -24.2580  -27.5280   31.3170 C.3    91  LEU91       0.0001
     60  CD2      -26.6490  -27.2570   32.0570 C.3    91  LEU91       0.0001
     61  N        -25.1520  -31.3640   35.1740 N.am   92  ALA92      -0.1980
     62  CA       -25.3600  -32.7650   35.5780 C.3    92  ALA92       0.1597
     63  C        -26.3250  -32.8690   36.7470 C.2    92  ALA92       0.2287
     64  O        -27.1290  -33.7790   36.7890 O.2    92  ALA92      -0.2864
     65  CB       -24.0500  -33.4330   35.9370 C.3    92  ALA92       0.0319
     66  N        -18.6020  -24.5200   25.5190 N.3   114  ALA114     -0.1231
     67  CA       -19.9840  -24.9800   25.3950 C.3   114  ALA114      0.1694
     68  C        -20.6840  -25.1450   26.7370 C.2   114  ALA114      0.2592
     69  O        -21.8720  -24.8270   26.8730 O.2   114  ALA114     -0.2718
     70  CB       -20.0380  -26.2890   24.6240 C.3   114  ALA114      0.0304
     71  N        -19.9560  -25.6470   27.7310 N.am  115  THR115     -0.1953
     72  CA       -20.5160  -25.8380   29.0700 C.3   115  THR115      0.1897
     73  C        -20.9490  -24.5240   29.7180 C.2   115  THR115      0.2313
     74  O        -22.0000  -24.4570   30.3460 O.2   115  THR115     -0.2863
     75  CB       -19.5150  -26.5300   30.0260 C.3   115  THR115      0.1794
     76  OG1      -18.2150  -26.5630   29.4250 O.3   115  THR115     -0.2208
     77  CG2      -19.9690  -27.9460   30.3470 C.3   115  THR115      0.0378
     78  N        -24.2290  -23.2620   27.8390 N.3   118  LEU118     -0.1245
     79  CA       -25.4070  -24.0560   28.1970 C.3   118  LEU118      0.1561
     80  C        -25.7320  -23.8700   29.6810 C.2   118  LEU118      0.2260
     81  O        -26.9060  -23.7450   30.0690 O.2   118  LEU118     -0.2867
     82  CB       -25.1960  -25.5470   27.8690 C.3   118  LEU118      0.0270
     83  CG       -26.3770  -26.5130   28.1240 C.3   118  LEU118      0.0019
     84  CD1      -27.7080  -26.0350   27.5170 C.3   118  LEU118      0.0001
     85  CD2      -26.0370  -27.8690   27.5650 C.3   118  LEU118      0.0001
     86  N        -21.8120  -27.9930   19.8240 N.3   303  GLU303     -0.1231
     87  CA       -21.2900  -28.6580   21.0170 C.3   303  GLU303      0.1699
     88  C        -22.3490  -28.7410   22.1280 C.2   303  GLU303      0.2592
     89  O        -22.4890  -29.7640   22.7860 O.2   303  GLU303     -0.2718
     90  CB       -20.0530  -27.9340   21.5720 C.3   303  GLU303      0.0402
     91  CG       -18.7790  -28.0030   20.7560 C.3   303  GLU303      0.1161
     92  CD       -17.6030  -27.3260   21.4760 C.2   303  GLU303      0.3649
     93  OE1      -17.1750  -26.2290   21.0550 O.co2 303  GLU303     -0.2457
     94  OE2      -17.1220  -27.8900   22.4850 O.co2 303  GLU303     -0.2457
     95  N        -23.0620  -27.6390   22.3540 N.am  304  CYS304     -0.1970
     96  CA       -24.0830  -27.5920   23.3960 C.3   304  CYS304      0.1712
     97  C        -25.1200  -28.6900   23.1590 C.2   304  CYS304      0.2296
     98  O        -25.4490  -29.4330   24.0860 O.2   304  CYS304     -0.2864
     99  CB       -24.7580  -26.2070   23.4520 C.3   304  CYS304      0.0983
    100  SG       -23.6990  -24.8360   24.0290 S.3   304  CYS304     -0.0798
    101  N        -23.5160  -32.0870   23.7930 N.3   307  ALA307     -0.1245
    102  CA       -23.4030  -32.3690   25.2210 C.3   307  ALA307      0.1562
    103  C        -24.7840  -32.5810   25.8840 C.2   307  ALA307      0.2260
    104  O        -24.9480  -33.4510   26.7450 O.2   307  ALA307     -0.2867
    105  CB       -22.6330  -31.2560   25.9130 C.3   307  ALA307      0.0290
    106  N        -24.4730  -36.0580   27.5610 N.3   311  TRP311     -0.1227
    107  CA       -24.1580  -36.0240   28.9840 C.3   311  TRP311      0.1737
    108  C        -25.3430  -35.7490   29.9080 C.2   311  TRP311      0.2595
    109  O        -25.3050  -36.1260   31.0780 O.2   311  TRP311     -0.2718
    110  CB       -23.1050  -34.9560   29.2690 C.3   311  TRP311      0.0564
    111  CG       -21.7620  -35.2470   28.7500 C.ar  311  TRP311      0.0003
    112  CD1      -21.1520  -34.6790   27.6590 C.ar  311  TRP311      0.0946
    113  CD2      -20.8220  -36.1640   29.3090 C.ar  311  TRP311      0.0152
    114  NE1      -19.8880  -35.1930   27.5120 N.ar  311  TRP311     -0.2442
    115  CE2      -19.6620  -36.1110   28.5070 C.ar  311  TRP311      0.0810
    116  CE3      -20.8480  -37.0280   30.4140 C.ar  311  TRP311      0.0012
    117  CZ2      -18.5430  -36.9010   28.7650 C.ar  311  TRP311      0.0191
    118  CZ3      -19.7350  -37.8050   30.6750 C.ar  311  TRP311      0.0001
    119  CH2      -18.5950  -37.7400   29.8490 C.ar  311  TRP311      0.0015
    120  N        -26.3700  -35.0680   29.4010 N.am  312  TYR312     -0.1962
    121  CA       -27.3300  -34.4040   30.2820 C.3   312  TYR312      0.1771
    122  C        -28.7640  -34.8080   29.9870 C.2   312  TYR312      0.2619
    123  O        -29.7110  -34.2360   30.5400 O.2   312  TYR312     -0.2715
    124  CB       -27.1830  -32.8780   30.1610 C.3   312  TYR312      0.0574
    125  CG       -25.8140  -32.3720   30.5480 C.ar  312  TYR312     -0.0198
    126  CD1      -25.2310  -32.7570   31.7420 C.ar  312  TYR312     -0.0009
    127  CD2      -25.0960  -31.5200   29.7050 C.ar  312  TYR312     -0.0009
    128  CE1      -23.9420  -32.3000   32.1070 C.ar  312  TYR312      0.0417
    129  CE2      -23.8420  -31.0540   30.0510 C.ar  312  TYR312      0.0417
    130  CZ       -23.2600  -31.4460   31.2570 C.ar  312  TYR312      0.1957
    131  OH       -22.0060  -30.9870   31.6050 O.3   312  TYR312     -0.2866
    132  N        -28.9060  -35.7710   29.0820 N.am  313  GLU313     -0.1977
    133  CA       -30.1890  -36.3020   28.6890 C.3   313  GLU313      0.1602
    134  C        -31.2030  -35.2140   28.3220 C.2   313  GLU313      0.2287
    135  O        -32.3670  -35.3010   28.6850 O.2   313  GLU313     -0.2864
    136  CB       -30.7300  -37.1990   29.8060 C.3   313  GLU313      0.0415
    137  CG       -29.8580  -38.4380   30.0170 C.3   313  GLU313      0.1163
    138  CD       -29.9700  -39.0390   31.4150 C.2   313  GLU313      0.3649
    139  OE1      -28.9400  -39.0710   32.1310 O.co2 313  GLU313     -0.2457
    140  OE2      -31.0740  -39.5010   31.7910 O.co2 313  GLU313     -0.2457
    141  N        -17.7540  -41.0170   24.7430 N.3   361  LYS361     -0.1245
    142  CA       -17.7480  -40.2060   25.9630 C.3   361  LYS361      0.1561
    143  C        -16.4910  -40.5310   26.7770 C.2   361  LYS361      0.2260
    144  O        -15.7440  -39.6450   27.1840 O.2   361  LYS361     -0.2867
    145  CB       -19.0080  -40.4570   26.7930 C.3   361  LYS361      0.0271
    146  CG       -20.2580  -39.7900   26.2700 C.3   361  LYS361      0.0035
    147  CD       -21.5060  -40.3740   26.9470 C.3   361  LYS361      0.0206
    148  CE       -21.6340  -39.8980   28.4030 C.3   361  LYS361      0.1093
    149  NZ       -22.9780  -40.2560   28.9380 N.3   361  LYS361     -0.1314
    150  N        -13.0100  -39.2730   25.4220 N.3   364  GLY364     -0.1225
    151  CA       -12.8390  -37.8250   25.4020 C.3   364  GLY364      0.1811
    152  C        -12.8530  -37.1260   24.0430 C.2   364  GLY364      0.2280
    153  O        -12.2650  -36.0550   23.8950 O.2   364  GLY364     -0.2866
@<TRIPOS>BOND
     1    86    87    1
     2    91    92    1
     3    91    90    1
     4    87    90    1
     5    87    88    1
     6    93    92   ar
     7    92    94   ar
     8    88    95   am
     9    88    89    2
    10    95    96    1
    11    97    96    1
    12    97    98    2
    13    96    99    1
    14    99   100    1
    15   101   102    1
    16   153   152    2
    17   152   151    1
    18    70    67    1
    19   141   142    1
    20   102   103    1
    21   102   105    1
    22    67    66    1
    23    67    68    1
    24   151   150    1
    25   103   104    2
    26   142   143    1
    27   142   145    1
    28   146   145    1
    29   146   147    1
    30    68    69    2
    31    68    71   am
    32   143   144    2
    33   147   148    1
    34   114   112   ar
    35   114   115   ar
    36    84    83    1
    37   106   107    1
    38    85    83    1
    39   112   111   ar
    40    71    72    1
    41    78    79    1
    42    82    83    1
    43    82    79    1
    44    79    80    1
    45   134   135    2
    46   134   133    1
    47   148   149    1
    48   115   117   ar
    49   115   113   ar
    50   133   132    1
    51   133   136    1
    52   111   110    1
    53   111   113   ar
    54   117   119   ar
    55   107   110    1
    56   107   108    1
    57    72    73    1
    58    72    75    1
    59   132   122   am
    60   113   116   ar
    61   120   108   am
    62   120   121    1
    63    76    75    1
    64    80    81    2
    65   127   129   ar
    66   127   125   ar
    67    73    74    2
    68   136   137    1
    69   119   118   ar
    70   108   109    2
    71   122   121    1
    72   122   123    2
    73   137   138    1
    74    75    77    1
    75   129   130   ar
    76   124   121    1
    77   124   125    1
    78   116   118   ar
    79   125   126   ar
    80   130   131    1
    81   130   128   ar
    82    59    58    1
    83   138   140   ar
    84   138   139   ar
    85   126   128   ar
    86    60    58    1
    87    58    57    1
    88     5     6    1
    89     5     2    1
    90    57    54    1
    91     6     7    1
    92    41    40    1
    93    41    42    1
    94     2     3    1
    95     2     1    1
    96     4     3    2
    97    54    55    1
    98    54    53    1
    99    56    55    2
   100     7     1    1
   101    43    42    2
   102    55    61   am
   103    42    44   am
   104    61    62    1
   105    62    65    1
   106    62    63    1
   107    44    45    1
   108    14    12    1
   109    63    64    2
   110     8     9    1
   111    35    36    2
   112    35    34    1
   113    37    38    1
   114    37    34    1
   115    37    39    1
   116    45    46    1
   117    45    48    1
   118    12     9    1
   119    12    13    1
   120    46    47    2
   121    34    33    1
   122     9    10    1
   123    23    22    1
   124    23    24    1
   125    31    30    1
   126    48    49    1
   127    22    17   am
   128    10    11    2
   129    24    26   am
   130    24    25    2
   131    26    27    1
   132    50    49    1
   133    50    51    1
   134    30    27    1
   135    30    32    1
   136    17    16    1
   137    17    18    2
   138    27    28    1
   139    52    51    1
   140    16    19    1
   141    16    15    1
   142    19    20    1
   143    19    21    1
   144    28    29    2
