@<TRIPOS>MOLECULE
tmp/4oktA00.pdb
 142 133 0 0 0
SMALL
GASTEIGER

@<TRIPOS>ATOM
      1  N         30.5680    9.5300    9.1320 N.3    43  LEU43      -0.1231
      2  CA        30.8510    9.3040   10.5550 C.3    43  LEU43       0.1693
      3  C         31.3720   10.5570   11.2710 C.2    43  LEU43       0.2591
      4  O         30.9870   10.8350   12.4080 O.2    43  LEU43      -0.2718
      5  CB        31.8390    8.1410   10.7430 C.3    43  LEU43       0.0284
      6  CG        32.2810    7.9040   12.1960 C.3    43  LEU43       0.0019
      7  CD1       31.0620    7.8450   13.1210 C.3    43  LEU43       0.0001
      8  CD2       33.1620    6.6600   12.3440 C.3    43  LEU43       0.0001
      9  N         32.2620   11.2930   10.6160 N.am   44  VAL44      -0.1980
     10  CA        32.9100   12.4860   11.2230 C.3    44  VAL44       0.1595
     11  C         31.8070   13.5120   11.5160 C.2    44  VAL44       0.2287
     12  O         31.7170   14.0460   12.6180 O.2    44  VAL44      -0.2864
     13  CB        34.0030   13.0620   10.2800 C.3    44  VAL44       0.0276
     14  CG1       34.4740   14.4770   10.6890 C.3    44  VAL44       0.0022
     15  CG2       35.1750   12.0950   10.1900 C.3    44  VAL44       0.0022
     16  N         29.6020   12.3310   14.5120 N.3    47  VAL47      -0.1231
     17  CA        30.2140   12.5800   15.8270 C.3    47  VAL47       0.1692
     18  C         30.0160   14.0380   16.2540 C.2    47  VAL47       0.2591
     19  O         29.6840   14.3100   17.4040 O.2    47  VAL47      -0.2718
     20  CB        31.7250   12.2330   15.8550 C.3    47  VAL47       0.0266
     21  CG1       32.3930   12.7590   17.1110 C.3    47  VAL47       0.0020
     22  CG2       31.9190   10.7330   15.7680 C.3    47  VAL47       0.0020
     23  N         30.2220   14.9660   15.3340 N.am   48  LYS48      -0.1980
     24  CA        30.0520   16.3930   15.6440 C.3    48  LYS48       0.1596
     25  C         28.5850   16.7710   15.8830 C.2    48  LYS48       0.2287
     26  O         28.3030   17.6550   16.6890 O.2    48  LYS48      -0.2864
     27  CB        30.6380   17.2550   14.5220 C.3    48  LYS48       0.0298
     28  CG        32.1500   17.1750   14.4290 C.3    48  LYS48       0.0038
     29  CD        32.7090   17.8730   13.1940 C.3    48  LYS48       0.0206
     30  CE        34.2200   17.9470   13.3480 C.3    48  LYS48       0.1093
     31  NZ        34.9510   18.7160   12.2920 N.3    48  LYS48      -0.1314
     32  N         27.4710   15.0110   19.5480 N.3    51  LYS51      -0.1245
     33  CA        28.0260   15.6850   20.7000 C.3    51  LYS51       0.1561
     34  C         27.3180   17.0020   21.0290 C.2    51  LYS51       0.2260
     35  O         27.3730   17.4740   22.1700 O.2    51  LYS51      -0.2867
     36  CB        29.5160   15.9200   20.4830 C.3    51  LYS51       0.0271
     37  CG        30.2800   14.6170   20.4160 C.3    51  LYS51       0.0035
     38  CD        31.7530   14.8390   20.2250 C.3    51  LYS51       0.0206
     39  CE        32.4510   15.1430   21.5450 C.3    51  LYS51       0.1093
     40  NZ        33.7850   15.7070   21.2520 N.3    51  LYS51      -0.1314
     41  N         23.2720   15.3110   25.6860 N.3    56  PHE56      -0.1241
     42  CA        24.1920   14.2700   25.3080 C.3    56  PHE56       0.1605
     43  C         25.3660   14.1390   26.2840 C.2    56  PHE56       0.2264
     44  O         25.9410   13.0550   26.3980 O.2    56  PHE56      -0.2867
     45  CB        24.7110   14.5130   23.9030 C.3    56  PHE56       0.0534
     46  CG        25.4240   13.3300   23.3170 C.ar   56  PHE56      -0.0203
     47  CD1       24.7120   12.2630   22.8370 C.ar   56  PHE56      -0.0042
     48  CD2       26.8080   13.2890   23.2770 C.ar   56  PHE56      -0.0042
     49  CE1       25.3600   11.1710   22.3110 C.ar   56  PHE56      -0.0003
     50  CE2       27.4640   12.2100   22.7440 C.ar   56  PHE56      -0.0003
     51  CZ        26.7340   11.1370   22.2650 C.ar   56  PHE56      -0.0000
     52  N         30.9930    9.3160   29.1580 N.3    61  VAL61      -0.1245
     53  CA        31.7490    9.4760   27.9150 C.3    61  VAL61       0.1561
     54  C         31.8800    8.1680   27.0910 C.2    61  VAL61       0.2260
     55  O         31.8590    8.2040   25.8650 O.2    61  VAL61      -0.2867
     56  CB        33.1210   10.1610   28.1900 C.3    61  VAL61       0.0252
     57  CG1       34.1120    9.2070   28.8560 C.3    61  VAL61       0.0019
     58  CG2       33.7020   10.7410   26.9110 C.3    61  VAL61       0.0019
     59  N         28.6800    7.5730   25.3960 N.3    64  GLN64      -0.1231
     60  CA        28.6270    8.5690   24.3300 C.3    64  GLN64       0.1698
     61  C         29.2590    8.0070   23.0820 C.2    64  GLN64       0.2592
     62  O         28.7030    8.1420   21.9960 O.2    64  GLN64      -0.2718
     63  CB        29.3580    9.8660   24.7310 C.3    64  GLN64       0.0381
     64  CG        28.5780   10.7650   25.6690 C.3    64  GLN64       0.0905
     65  CD        29.3150   12.0330   26.0250 C.2    64  GLN64       0.2608
     66  OE1       29.3590   12.3560   27.3090 O.2    64  GLN64      -0.2717
     67  NE2       29.8210   12.7260   25.1580 N.am   64  GLN64      -0.0878
     68  N         30.4210    7.3740   23.2520 N.am   65  MET65      -0.1979
     69  CA        31.1770    6.7850   22.1470 C.3    65  MET65       0.1605
     70  C         30.5010    5.5310   21.6030 C.2    65  MET65       0.2287
     71  O         30.4420    5.3070   20.3820 O.2    65  MET65      -0.2864
     72  CB        32.6120    6.4440   22.6100 C.3    65  MET65       0.0413
     73  CG        33.5200    7.6650   22.7010 C.3    65  MET65       0.0598
     74  SD        35.2190    7.4270   23.2750 S.3    65  MET65      -0.1393
     75  CE        35.5800    5.7430   22.8210 C.3    65  MET65       0.0692
     76  N         27.2150    6.0070   19.4310 N.3    68  ILE68      -0.1231
     77  CA        27.5120    6.5660   18.1100 C.3    68  ILE68       0.1692
     78  C         27.9390    5.4470   17.1940 C.2    68  ILE68       0.2591
     79  O         27.5220    5.3930   16.0480 O.2    68  ILE68      -0.2718
     80  CB        28.6050    7.6490   18.1030 C.3    68  ILE68       0.0266
     81  CG1       28.1530    8.8980   18.8710 C.3    68  ILE68       0.0019
     82  CG2       28.9270    8.0620   16.6620 C.3    68  ILE68       0.0020
     83  CD1       29.2840    9.8420   19.2720 C.3    68  ILE68       0.0001
     84  N         28.7610    4.5470   17.7070 N.am   69  GLN69      -0.1979
     85  CA        29.2510    3.4470   16.8970 C.3    69  GLN69       0.1601
     86  C         28.1400    2.4530   16.5790 C.2    69  GLN69       0.2287
     87  O         28.0320    1.9910   15.4520 O.2    69  GLN69      -0.2864
     88  CB        30.4250    2.7850   17.5840 C.3    69  GLN69       0.0394
     89  CG        31.6870    3.5820   17.3520 C.3    69  GLN69       0.0908
     90  CD        32.8270    3.1730   18.2350 C.2    69  GLN69       0.2608
     91  OE1       33.7840    2.5920   17.7680 O.2    69  GLN69      -0.2717
     92  NE2       32.7340    3.4890   19.5280 N.am   69  GLN69      -0.0878
     93  N         41.2020    2.7580    7.9220 N.3   223  GLU223     -0.1231
     94  CA        41.6000    2.3590    9.2630 C.3   223  GLU223      0.1699
     95  C         40.4190    2.3090   10.2190 C.2   223  GLU223      0.2592
     96  O         40.1090    1.2690   10.8210 O.2   223  GLU223     -0.2718
     97  CB        42.6920    3.3070    9.8390 C.3   223  GLU223      0.0402
     98  CG        42.9060    4.7030    9.1590 C.3   223  GLU223      0.1161
     99  CD        41.7420    5.7430    9.2670 C.2   223  GLU223      0.3649
    100  OE1       41.9100    6.7750    9.9690 O.co2 223  GLU223     -0.2457
    101  OE2       40.6690    5.5780    8.6350 O.co2 223  GLU223     -0.2457
    102  N         39.7540    3.4380   10.3380 N.am  224  MET224     -0.1979
    103  CA        38.7500    3.6200   11.3660 C.3   224  MET224      0.1605
    104  C         37.5370    2.7260   11.1910 C.2   224  MET224      0.2287
    105  O         37.0510    2.1830   12.1610 O.2   224  MET224     -0.2864
    106  CB        38.2960    5.0750   11.3850 C.3   224  MET224      0.0413
    107  CG        37.1360    5.3490   12.3160 C.3   224  MET224      0.0598
    108  SD        37.2820    6.9880   13.0130 S.3   224  MET224     -0.1393
    109  CE        37.4110    7.9830   11.5320 C.3   224  MET224      0.0692
    110  N         38.2070   -0.8380   12.1380 N.3   227  GLU227     -0.1231
    111  CA        38.1810   -1.0390   13.5890 C.3   227  GLU227      0.1699
    112  C         36.7520   -1.1880   14.0890 C.2   227  GLU227      0.2592
    113  O         36.4600   -2.0840   14.8480 O.2   227  GLU227     -0.2718
    114  CB        38.8800    0.1230   14.2990 C.3   227  GLU227      0.0402
    115  CG        38.4540    0.3610   15.7300 C.3   227  GLU227      0.1161
    116  CD        39.0910    1.6040   16.3020 C.2   227  GLU227      0.3649
    117  OE1       38.3440    2.5810   16.5630 O.co2 227  GLU227     -0.2457
    118  OE2       40.3490    1.5970   16.4600 O.co2 227  GLU227     -0.2457
    119  N         35.8690   -0.3090   13.6360 N.am  228  ILE228     -0.1980
    120  CA        34.4680   -0.3260   14.0620 C.3   228  ILE228      0.1595
    121  C         33.7230   -1.5940   13.6530 C.2   228  ILE228      0.2287
    122  O         33.0530   -2.2200   14.4600 O.2   228  ILE228     -0.2864
    123  CB        33.7300    0.8820   13.4870 C.3   228  ILE228      0.0276
    124  CG1       34.2830    2.1660   14.1380 C.3   228  ILE228      0.0022
    125  CG2       32.2220    0.7210   13.6890 C.3   228  ILE228      0.0022
    126  CD1       33.5780    3.4360   13.7000 C.3   228  ILE228      0.0001
    127  N         35.2930   -4.4280   15.6950 N.3   231  VAL231     -0.1231
    128  CA        35.2580   -4.2940   17.1560 C.3   231  VAL231      0.1692
    129  C         33.8650   -4.0490   17.7370 C.2   231  VAL231      0.2591
    130  O         33.5300   -4.5930   18.8040 O.2   231  VAL231     -0.2718
    131  CB        36.2210   -3.1970   17.6370 C.3   231  VAL231      0.0266
    132  CG1       36.0900   -2.9620   19.1340 C.3   231  VAL231      0.0020
    133  CG2       37.6600   -3.5770   17.3080 C.3   231  VAL231      0.0020
    134  N         33.0560   -3.2450   17.0480 N.am  232  GLN232     -0.1979
    135  CA        31.7110   -2.8940   17.5480 C.3   232  GLN232      0.1601
    136  C         30.6240   -3.6760   16.8450 C.2   232  GLN232      0.2287
    137  O         29.7600   -4.2700   17.4800 O.2   232  GLN232     -0.2864
    138  CB        31.4440   -1.4110   17.3750 C.3   232  GLN232      0.0394
    139  CG        32.4590   -0.5120   18.0610 C.3   232  GLN232      0.0908
    140  CD        32.5050   -0.7160   19.5540 C.2   232  GLN232      0.2608
    141  OE1       31.5740   -1.2130   20.1600 O.2   232  GLN232     -0.2717
    142  NE2       33.6050   -0.3530   20.1460 N.am  232  GLN232     -0.0878
@<TRIPOS>BOND
     1    93    94    1
     2   101    99   ar
     3     1     2    1
     4    98    99    1
     5    98    97    1
     6    94    97    1
     7    94    95    1
     8    99   100   ar
     9    15    13    1
    10    95   102   am
    11    95    96    2
    12    13    14    1
    13    13    10    1
    14   102   103    1
    15     2     5    1
    16     2     3    1
    17     9    10    1
    18     9     3   am
    19     5     6    1
    20   104   103    1
    21   104   105    2
    22    10    11    1
    23     3     4    2
    24   103   106    1
    25   106   107    1
    26    11    12    2
    27   109   108    1
    28   110   111    1
    29     6     8    1
    30     6     7    1
    31    31    30    1
    32   107   108    1
    33    29    30    1
    34    29    28    1
    35   123   125    1
    36   123   120    1
    37   123   124    1
    38   111   112    1
    39   111   114    1
    40   119   120    1
    41   119   112   am
    42   121   120    1
    43   121   122    2
    44   126   124    1
    45   112   113    2
    46   114   115    1
    47    28    27    1
    48    16    17    1
    49    27    24    1
    50    23    24    1
    51    23    18   am
    52    87    86    2
    53    24    25    1
    54   127   128    1
    55   115   116    1
    56    22    20    1
    57    17    20    1
    58    17    18    1
    59    20    21    1
    60    25    26    2
    61    79    78    2
    62    18    19    2
    63   116   118   ar
    64   116   117   ar
    65    86    85    1
    66    82    80    1
    67   136   137    2
    68   136   135    1
    69    85    88    1
    70    85    84    1
    71   134   135    1
    72   134   129   am
    73   128   131    1
    74   128   129    1
    75    78    84   am
    76    78    77    1
    77   133   131    1
    78    89    88    1
    79    89    90    1
    80   138   135    1
    81   138   139    1
    82   131   132    1
    83   129   130    2
    84    91    90    2
    85   139   140    1
    86    80    77    1
    87    80    81    1
    88    77    76    1
    89    90    92   am
    90    81    83    1
    91    32    33    1
    92   140   142   am
    93   140   141    2
    94    38    37    1
    95    38    39    1
    96    71    70    2
    97    37    36    1
    98    36    33    1
    99    33    34    1
   100    34    35    2
   101    40    39    1
   102    70    69    1
   103    62    61    2
   104    69    72    1
   105    69    68    1
   106    51    49   ar
   107    51    50   ar
   108    49    47   ar
   109    72    73    1
   110    73    74    1
   111    50    48   ar
   112    75    74    1
   113    47    46   ar
   114    61    68   am
   115    61    60    1
   116    48    46   ar
   117    46    45    1
   118    45    42    1
   119    60    63    1
   120    60    59    1
   121    63    64    1
   122    67    65   am
   123    42    41    1
   124    42    43    1
   125    64    65    1
   126    55    54    2
   127    65    66    2
   128    43    44    2
   129    58    56    1
   130    54    53    1
   131    53    56    1
   132    53    52    1
   133    56    57    1
