@<TRIPOS>MOLECULE
tmp/4okwA00.pdb
 142 133 0 0 0
SMALL
GASTEIGER

@<TRIPOS>ATOM
      1  N         -2.8440   -9.4210    9.6820 N.3    42  LEU42      -0.1231
      2  CA        -3.1020   -9.2190   11.1220 C.3    42  LEU42       0.1693
      3  C         -3.7720  -10.4690   11.7150 C.2    42  LEU42       0.2591
      4  O         -3.4690  -10.8580   12.8200 O.2    42  LEU42      -0.2718
      5  CB        -4.0400   -8.0280   11.3310 C.3    42  LEU42       0.0284
      6  CG        -4.6170   -7.8580   12.7490 C.3    42  LEU42       0.0019
      7  CD1       -3.4760   -7.6810   13.7630 C.3    42  LEU42       0.0001
      8  CD2       -5.5450   -6.6320   12.8640 C.3    42  LEU42       0.0001
      9  N         -4.6890  -11.0750   10.9720 N.am   43  VAL43      -0.1980
     10  CA        -5.3650  -12.3000   11.5090 C.3    43  VAL43       0.1595
     11  C         -4.2760  -13.3540   11.8150 C.2    43  VAL43       0.2287
     12  O         -4.3350  -14.0150   12.8520 O.2    43  VAL43      -0.2864
     13  CB        -6.4170  -12.8800   10.5350 C.3    43  VAL43       0.0276
     14  CG1       -6.8810  -14.2760   11.0090 C.3    43  VAL43       0.0022
     15  CG2       -7.6310  -11.9480   10.3920 C.3    43  VAL43       0.0022
     16  N         -1.9560  -12.3230   14.8630 N.3    46  VAL46      -0.1231
     17  CA        -2.5810  -12.5500   16.1600 C.3    46  VAL46       0.1692
     18  C         -2.3820  -14.0480   16.5630 C.2    46  VAL46       0.2591
     19  O         -2.0670  -14.3470   17.6980 O.2    46  VAL46      -0.2718
     20  CB        -4.1230  -12.2460   16.0600 C.3    46  VAL46       0.0266
     21  CG1       -4.9450  -12.9090   17.1680 C.3    46  VAL46       0.0020
     22  CG2       -4.3770  -10.7460   16.0270 C.3    46  VAL46       0.0020
     23  N         -2.6280  -14.9670   15.6470 N.am   47  LYS47      -0.1980
     24  CA        -2.5050  -16.4320   16.0070 C.3    47  LYS47       0.1596
     25  C         -1.0870  -16.7790   16.3290 C.2    47  LYS47       0.2287
     26  O         -0.8060  -17.5270   17.2390 O.2    47  LYS47      -0.2864
     27  CB        -2.8760  -17.2960   14.8100 C.3    47  LYS47       0.0298
     28  CG        -4.3790  -17.2460   14.4400 C.3    47  LYS47       0.0038
     29  CD        -4.4730  -17.6640   12.9700 C.3    47  LYS47       0.0206
     30  CE        -5.5780  -18.6520   12.6990 C.3    47  LYS47       0.1093
     31  NZ        -6.7930  -17.8330   12.3870 N.3    47  LYS47      -0.1314
     32  N         -0.0790  -15.0680   19.9250 N.3    50  LYS50      -0.1245
     33  CA        -0.6990  -15.8580   20.9860 C.3    50  LYS50       0.1561
     34  C          0.0460  -17.1550   21.3100 C.2    50  LYS50       0.2260
     35  O         -0.0260  -17.6340   22.4620 O.2    50  LYS50      -0.2867
     36  CB        -2.1780  -16.1390   20.6460 C.3    50  LYS50       0.0271
     37  CG        -3.1530  -14.9990   21.0100 C.3    50  LYS50       0.0035
     38  CD        -4.5230  -15.5230   20.4930 C.3    50  LYS50       0.0206
     39  CE        -5.7530  -14.7260   20.8770 C.3    50  LYS50       0.1093
     40  NZ        -6.9280  -15.0990   20.0400 N.3    50  LYS50      -0.1314
     41  N          4.0870  -15.1870   25.8720 N.3    55  PHE55      -0.1241
     42  CA         3.2570  -14.0530   25.4710 C.3    55  PHE55       0.1605
     43  C          1.9810  -13.9520   26.2790 C.2    55  PHE55       0.2264
     44  O          1.5230  -12.8400   26.6150 O.2    55  PHE55      -0.2867
     45  CB         2.8670  -14.1650   23.9970 C.3    55  PHE55       0.0534
     46  CG         2.1380  -12.9400   23.4810 C.ar   55  PHE55      -0.0203
     47  CD1        2.8360  -11.7230   23.3100 C.ar   55  PHE55      -0.0042
     48  CD2        0.7760  -12.9850   23.1760 C.ar   55  PHE55      -0.0042
     49  CE1        2.1810  -10.5940   22.8310 C.ar   55  PHE55      -0.0003
     50  CE2        0.1220  -11.8640   22.6690 C.ar   55  PHE55      -0.0003
     51  CZ         0.8160  -10.6600   22.5080 C.ar   55  PHE55      -0.0000
     52  N         -4.0510   -9.2910   29.2280 N.3    60  VAL60      -0.1245
     53  CA        -4.7180   -9.4140   27.9370 C.3    60  VAL60       0.1561
     54  C         -4.7460   -8.1060   27.1750 C.2    60  VAL60       0.2260
     55  O         -4.6730   -8.0890   25.9430 O.2    60  VAL60      -0.2867
     56  CB        -6.1690   -9.9830   28.0740 C.3    60  VAL60       0.0252
     57  CG1       -7.0960   -9.4830   26.9810 C.3    60  VAL60       0.0019
     58  CG2       -6.1510  -11.4990   28.0390 C.3    60  VAL60       0.0019
     59  N         -1.4170   -7.6020   25.7380 N.3    63  GLN63      -0.1231
     60  CA        -1.3200   -8.4530   24.5470 C.3    63  GLN63       0.1698
     61  C         -1.9140   -7.7270   23.3110 C.2    63  GLN63       0.2592
     62  O         -1.2700   -7.6340   22.2960 O.2    63  GLN63      -0.2718
     63  CB        -2.0660   -9.7690   24.7330 C.3    63  GLN63       0.0381
     64  CG        -1.4230  -10.6810   25.7730 C.3    63  GLN63       0.0905
     65  CD        -2.2700  -11.9350   26.0410 C.2    63  GLN63       0.2608
     66  OE1       -2.3380  -12.3950   27.1870 O.2    63  GLN63      -0.2717
     67  NE2       -2.8900  -12.4890   25.0060 N.am   63  GLN63      -0.0878
     68  N         -3.1630   -7.2580   23.3920 N.am   64  MET64      -0.1979
     69  CA        -3.8130   -6.6650   22.2350 C.3    64  MET64       0.1605
     70  C         -3.1300   -5.3790   21.8240 C.2    64  MET64       0.2287
     71  O         -3.0230   -5.1010   20.6230 O.2    64  MET64      -0.2864
     72  CB        -5.2760   -6.3370   22.5690 C.3    64  MET64       0.0413
     73  CG        -6.0110   -7.6230   22.8800 C.3    64  MET64       0.0598
     74  SD        -7.7840   -7.3480   23.0600 S.3    64  MET64      -0.1393
     75  CE        -7.9850   -6.3620   24.5680 C.3    64  MET64       0.0692
     76  N          0.3360   -6.0380   19.9170 N.3    67  ILE67      -0.1231
     77  CA         0.1300   -6.5570   18.5380 C.3    67  ILE67       0.1692
     78  C         -0.2810   -5.4440   17.5960 C.2    67  ILE67       0.2591
     79  O          0.2130   -5.3400   16.4760 O.2    67  ILE67      -0.2718
     80  CB        -0.9420   -7.6960   18.5230 C.3    67  ILE67       0.0266
     81  CG1       -0.3550   -8.9320   19.1880 C.3    67  ILE67       0.0019
     82  CG2       -1.3980   -8.0030   17.0940 C.3    67  ILE67       0.0020
     83  CD1       -1.4240   -9.9760   19.5740 C.3    67  ILE67       0.0001
     84  N         -1.2390   -4.6230   18.0260 N.am   68  GLN68      -0.1979
     85  CA        -1.6710   -3.5150   17.1970 C.3    68  GLN68       0.1601
     86  C         -0.5690   -2.4430   16.9590 C.2    68  GLN68       0.2287
     87  O         -0.4260   -1.9460   15.8390 O.2    68  GLN68      -0.2864
     88  CB        -2.8870   -2.8760   17.8680 C.3    68  GLN68       0.0394
     89  CG        -4.1350   -3.7520   17.6870 C.3    68  GLN68       0.0908
     90  CD        -5.2290   -3.2380   18.5820 C.2    68  GLN68       0.2608
     91  OE1       -5.2020   -3.4090   19.8090 O.2    68  GLN68      -0.2717
     92  NE2       -6.1180   -2.5020   17.9970 N.am   68  GLN68      -0.0878
     93  N        -13.3850   -2.7210    7.9980 N.3   215  GLU215     -0.1231
     94  CA       -13.7980   -2.1150    9.2890 C.3   215  GLU215      0.1699
     95  C        -12.7600   -2.2270   10.4380 C.2   215  GLU215      0.2592
     96  O        -12.5540   -1.2830   11.2430 O.2   215  GLU215     -0.2718
     97  CB       -15.1520   -2.7370    9.7360 C.3   215  GLU215      0.0402
     98  CG       -15.7540   -2.1230   10.9840 C.3   215  GLU215      0.1161
     99  CD       -16.1660   -0.6750   10.7920 C.2   215  GLU215      0.3649
    100  OE1      -16.5240   -0.3050    9.6480 O.co2 215  GLU215     -0.2457
    101  OE2      -16.1250    0.0880   11.7850 O.co2 215  GLU215     -0.2457
    102  N        -12.1300   -3.3830   10.5660 N.am  216  MET216     -0.1979
    103  CA       -11.2180   -3.5460   11.6810 C.3   216  MET216      0.1605
    104  C         -9.9020   -2.7420   11.5260 C.2   216  MET216      0.2287
    105  O         -9.3430   -2.2770   12.5350 O.2   216  MET216     -0.2864
    106  CB       -10.9520   -5.0130   12.0060 C.3   216  MET216      0.0413
    107  CG       -10.2300   -5.1890   13.3630 C.3   216  MET216      0.0598
    108  SD       -10.2360   -6.9440   13.7680 S.3   216  MET216     -0.1393
    109  CE        -9.2650   -7.5710   12.3860 C.3   216  MET216      0.0692
    110  N        -10.7380    1.0180   12.4350 N.3   219  GLU219     -0.1231
    111  CA       -10.7450    1.1680   13.8380 C.3   219  GLU219      0.1699
    112  C         -9.3200    1.2450   14.3640 C.2   219  GLU219      0.2592
    113  O         -8.9950    2.1430   15.1490 O.2   219  GLU219     -0.2718
    114  CB       -11.4080   -0.0390   14.4840 C.3   219  GLU219      0.0402
    115  CG       -11.4340    0.1150   15.9860 C.3   219  GLU219      0.1161
    116  CD       -11.7900   -1.1750   16.7140 C.2   219  GLU219      0.3649
    117  OE1      -13.0230   -1.3970   16.8860 O.co2 219  GLU219     -0.2457
    118  OE2      -10.8530   -1.9530   17.1030 O.co2 219  GLU219     -0.2457
    119  N         -8.4730    0.3080   13.9490 N.am  220  ILE220     -0.1980
    120  CA        -7.0690    0.3730   14.3690 C.3   220  ILE220      0.1595
    121  C         -6.4260    1.6880   13.9460 C.2   220  ILE220      0.2287
    122  O         -5.7460    2.3000   14.7260 O.2   220  ILE220     -0.2864
    123  CB        -6.2460   -0.8530   13.8600 C.3   220  ILE220      0.0276
    124  CG1       -6.7980   -2.1060   14.5570 C.3   220  ILE220      0.0022
    125  CG2       -4.7410   -0.7260   14.1830 C.3   220  ILE220      0.0022
    126  CD1       -6.3650   -3.4320   13.9120 C.3   220  ILE220      0.0001
    127  N         -7.9420    4.5990   16.1640 N.3   223  VAL223     -0.1231
    128  CA        -7.8890    4.4460   17.6250 C.3   223  VAL223      0.1692
    129  C         -6.4400    4.2460   18.0790 C.2   223  VAL223      0.2591
    130  O         -6.0000    4.9190   19.0210 O.2   223  VAL223     -0.2718
    131  CB        -8.8070    3.3070   18.1620 C.3   223  VAL223      0.0266
    132  CG1       -8.6950    3.1730   19.6790 C.3   223  VAL223      0.0020
    133  CG2      -10.2580    3.6050   17.8250 C.3   223  VAL223      0.0020
    134  N         -5.6960    3.3870   17.3730 N.am  224  GLN224     -0.1979
    135  CA        -4.3780    2.9990   17.8620 C.3   224  GLN224      0.1601
    136  C         -3.2940    3.7770   17.2370 C.2   224  GLN224      0.2287
    137  O         -2.4190    4.3130   17.9500 O.2   224  GLN224     -0.2864
    138  CB        -4.0710    1.4840   17.6800 C.3   224  GLN224      0.0394
    139  CG        -5.1310    0.5960   18.3000 C.3   224  GLN224      0.0908
    140  CD        -5.3460    0.8230   19.7730 C.2   224  GLN224      0.2608
    141  OE1       -4.5410    1.4640   20.4760 O.2   224  GLN224     -0.2717
    142  NE2       -6.4550    0.2810   20.2650 N.am  224  GLN224     -0.0878
@<TRIPOS>BOND
     1    93    94    1
     2    94    97    1
     3    94    95    1
     4   100    99   ar
     5     1     2    1
     6    97    98    1
     7    15    13    1
     8    95   102   am
     9    95    96    2
    10    13    14    1
    11    13    10    1
    12   102   103    1
    13    99    98    1
    14    99   101   ar
    15     9    10    1
    16     9     3   am
    17     2     5    1
    18     2     3    1
    19     5     6    1
    20    10    11    1
    21   104   103    1
    22   104   105    2
    23   103   106    1
    24     3     4    2
    25    11    12    2
    26   106   107    1
    27   109   108    1
    28    31    30    1
    29   110   111    1
    30    30    29    1
    31     6     8    1
    32     6     7    1
    33    29    28    1
    34   107   108    1
    35   111   112    1
    36   111   114    1
    37   123   125    1
    38   123   120    1
    39   123   124    1
    40   126   124    1
    41   121   120    1
    42   121   122    2
    43   119   112   am
    44   119   120    1
    45   112   113    2
    46    28    27    1
    47   114   115    1
    48    27    24    1
    49    16    17    1
    50    23    24    1
    51    23    18   am
    52    87    86    2
    53   115   116    1
    54    24    25    1
    55    22    20    1
    56    20    17    1
    57    20    21    1
    58    17    18    1
    59   127   128    1
    60    25    26    2
    61    79    78    2
    62    18    19    2
    63   116   117   ar
    64   116   118   ar
    65    86    85    1
    66    82    80    1
    67    85    88    1
    68    85    84    1
    69   136   135    1
    70   136   137    2
    71   134   135    1
    72   134   129   am
    73    78    84   am
    74    78    77    1
    75   128   129    1
    76   128   131    1
    77   138   135    1
    78   138   139    1
    79    89    88    1
    80    89    90    1
    81   133   131    1
    82    92    90   am
    83   129   130    2
    84   131   132    1
    85   139   140    1
    86    80    77    1
    87    80    81    1
    88    77    76    1
    89    90    91    2
    90    81    83    1
    91   140   142   am
    92   140   141    2
    93    32    33    1
    94    40    39    1
    95    38    39    1
    96    38    37    1
    97    71    70    2
    98    36    33    1
    99    36    37    1
   100    33    34    1
   101    34    35    2
   102    70    69    1
   103    69    72    1
   104    69    68    1
   105    62    61    2
   106    51    50   ar
   107    51    49   ar
   108    72    73    1
   109    50    48   ar
   110    49    47   ar
   111    73    74    1
   112    74    75    1
   113    48    46   ar
   114    47    46   ar
   115    61    68   am
   116    61    60    1
   117    46    45    1
   118    45    42    1
   119    60    63    1
   120    60    59    1
   121    63    64    1
   122    67    65   am
   123    42    41    1
   124    42    43    1
   125    64    65    1
   126    55    54    2
   127    65    66    2
   128    43    44    2
   129    57    56    1
   130    54    53    1
   131    53    56    1
   132    53    52    1
   133    58    56    1
