@<TRIPOS>MOLECULE
tmp/4okxA00.pdb
 117 109 0 0 0
SMALL
GASTEIGER

@<TRIPOS>ATOM
      1  N         30.8300    9.4270    9.7220 N.3    42  LEU42      -0.1231
      2  CA        31.1180    9.2730   11.1500 C.3    42  LEU42       0.1693
      3  C         31.6520   10.6340   11.7350 C.2    42  LEU42       0.2591
      4  O         31.2060   11.1040   12.7790 O.2    42  LEU42      -0.2718
      5  CB        32.1230    8.1570   11.3600 C.3    42  LEU42       0.0284
      6  CG        32.7340    8.0050   12.7570 C.3    42  LEU42       0.0019
      7  CD1       31.6490    7.7630   13.7760 C.3    42  LEU42       0.0001
      8  CD2       33.7310    6.8520   12.8030 C.3    42  LEU42       0.0001
      9  N         32.5640   11.2590   11.0140 N.am   43  VAL43      -0.1980
     10  CA        33.1640   12.5380   11.5040 C.3    43  VAL43       0.1595
     11  C         32.0600   13.5260   11.8140 C.2    43  VAL43       0.2287
     12  O         32.0450   14.1440   12.8690 O.2    43  VAL43      -0.2864
     13  CB        34.1730   13.1240   10.5170 C.3    43  VAL43       0.0276
     14  CG1       34.5570   14.5740   10.8720 C.3    43  VAL43       0.0022
     15  CG2       35.4360   12.2340   10.4050 C.3    43  VAL43       0.0022
     16  N         29.8090   12.5070   14.9210 N.3    46  VAL46      -0.1231
     17  CA        30.5070   12.7950   16.1780 C.3    46  VAL46       0.1692
     18  C         30.3160   14.2690   16.6170 C.2    46  VAL46       0.2591
     19  O         29.8240   14.5650   17.7300 O.2    46  VAL46      -0.2718
     20  CB        32.0160   12.3560   16.0640 C.3    46  VAL46       0.0266
     21  CG1       32.9550   13.0660   17.0390 C.3    46  VAL46       0.0020
     22  CG2       32.1320   10.8760   16.2380 C.3    46  VAL46       0.0020
     23  N         30.6230   15.1770   15.7120 N.am   47  LYS47      -0.1980
     24  CA        30.4220   16.6260   15.9800 C.3    47  LYS47       0.1596
     25  C         28.9890   16.9980   16.2810 C.2    47  LYS47       0.2287
     26  O         28.7270   17.7560   17.1980 O.2    47  LYS47      -0.2864
     27  CB        30.8480   17.4280   14.7820 C.3    47  LYS47       0.0298
     28  CG        32.3350   17.3050   14.3740 C.3    47  LYS47       0.0038
     29  CD        32.3830   17.8830   12.9440 C.3    47  LYS47       0.0206
     30  CE        33.5870   18.7280   12.5950 C.3    47  LYS47       0.1093
     31  NZ        34.7670   17.8300   12.4000 N.3    47  LYS47      -0.1314
     32  N         28.0030   15.4010   19.8830 N.3    50  LYS50      -0.1245
     33  CA        28.6480   16.1270   21.0100 C.3    50  LYS50       0.1561
     34  C         27.9640   17.4640   21.3070 C.2    50  LYS50       0.2260
     35  O         28.0210   17.9360   22.4150 O.2    50  LYS50      -0.2867
     36  CB        30.1090   16.3450   20.7070 C.3    50  LYS50       0.0271
     37  CG        31.0640   15.1900   20.9540 C.3    50  LYS50       0.0035
     38  CD        32.4560   15.7280   20.5600 C.3    50  LYS50       0.0206
     39  CE        33.5790   14.7470   20.7640 C.3    50  LYS50       0.1093
     40  NZ        34.7810   15.2090   20.0200 N.3    50  LYS50      -0.1314
     41  N         24.0190   15.3670   25.8050 N.3    55  PHE55      -0.1241
     42  CA        24.8280   14.1980   25.4130 C.3    55  PHE55       0.1605
     43  C         26.0610   14.0680   26.2890 C.2    55  PHE55       0.2264
     44  O         26.4790   12.9490   26.6510 O.2    55  PHE55      -0.2867
     45  CB        25.2260   14.2800   23.9380 C.3    55  PHE55       0.0534
     46  CG        25.9770   13.0690   23.4180 C.ar   55  PHE55      -0.0203
     47  CD1       25.3070   11.8580   23.1610 C.ar   55  PHE55      -0.0042
     48  CD2       27.3010   13.1470   23.1180 C.ar   55  PHE55      -0.0042
     49  CE1       26.0000   10.7700   22.6610 C.ar   55  PHE55      -0.0003
     50  CE2       28.0010   12.0920   22.6050 C.ar   55  PHE55      -0.0003
     51  CZ        27.3460   10.8770   22.3940 C.ar   55  PHE55      -0.0000
     52  N         31.9990    9.3090   29.1590 N.3    60  VAL60      -0.1245
     53  CA        32.6750    9.4620   27.8940 C.3    60  VAL60       0.1561
     54  C         32.7280    8.1610   27.1340 C.2    60  VAL60       0.2260
     55  O         32.6820    8.1630   25.9050 O.2    60  VAL60      -0.2867
     56  CB        34.1040   10.0040   28.1170 C.3    60  VAL60       0.0252
     57  CG1       35.0060    9.8040   26.9260 C.3    60  VAL60       0.0019
     58  CG2       34.0220   11.4770   28.4460 C.3    60  VAL60       0.0019
     59  N         29.2710    7.6810   25.5760 N.3    63  GLN63      -0.1231
     60  CA        29.2080    8.5180   24.3930 C.3    63  GLN63       0.1698
     61  C         29.8080    7.7990   23.1870 C.2    63  GLN63       0.2592
     62  O         29.1820    7.6970   22.1430 O.2    63  GLN63      -0.2718
     63  CB        29.9680    9.8350   24.6070 C.3    63  GLN63       0.0381
     64  CG        29.4270   10.7310   25.7270 C.3    63  GLN63       0.0905
     65  CD        30.3170   11.9960   25.9980 C.2    63  GLN63       0.2608
     66  OE1       30.3200   12.5470   27.1100 O.2    63  GLN63      -0.2717
     67  NE2       30.9520   12.4910   24.9820 N.am   63  GLN63      -0.0878
     68  N         31.0290    7.3040   23.3270 N.am   64  MET64      -0.1979
     69  CA        31.7140    6.6450   22.2280 C.3    64  MET64       0.1605
     70  C         31.0130    5.3770   21.7640 C.2    64  MET64       0.2287
     71  O         30.9510    5.1230   20.5690 O.2    64  MET64      -0.2864
     72  CB        33.1690    6.3040   22.5840 C.3    64  MET64       0.0413
     73  CG        34.0110    7.5550   22.7760 C.3    64  MET64       0.0598
     74  SD        35.7980    7.2590   23.0500 S.3    64  MET64      -0.1393
     75  CE        35.8380    6.1240   24.4380 C.3    64  MET64       0.0692
     76  N         27.5560    6.1150   19.9300 N.3    67  ILE67      -0.1231
     77  CA        27.8150    6.6100   18.5570 C.3    67  ILE67       0.1692
     78  C         28.2350    5.4650   17.6630 C.2    67  ILE67       0.2591
     79  O         27.7360    5.3130   16.5400 O.2    67  ILE67      -0.2718
     80  CB        28.8810    7.7300   18.5420 C.3    67  ILE67       0.0266
     81  CG1       28.3460    8.9650   19.1810 C.3    67  ILE67       0.0019
     82  CG2       29.3900    8.0430   17.1660 C.3    67  ILE67       0.0020
     83  CD1       29.4660    9.9990   19.4710 C.3    67  ILE67       0.0001
     84  N         29.1780    4.6360   18.1240 N.am   68  GLN68      -0.1979
     85  CA        29.6000    3.5280   17.2850 C.3    68  GLN68       0.1601
     86  C         28.5010    2.4880   17.0230 C.2    68  GLN68       0.2287
     87  O         28.3590    2.0210   15.8960 O.2    68  GLN68      -0.2864
     88  CB        30.8660    2.8760   17.8430 C.3    68  GLN68       0.0394
     89  CG        32.0200    3.8550   17.9370 C.3    68  GLN68       0.0908
     90  CD        33.1220    3.2840   18.7860 C.2    68  GLN68       0.2608
     91  OE1       33.0900    3.3510   20.0160 O.2    68  GLN68      -0.2717
     92  NE2       34.0420    2.6440   18.1400 N.am   68  GLN68      -0.0878
     93  N         39.8700    3.4890   10.6250 N.3   216  MET216     -0.1245
     94  CA        39.0610    3.6340   11.7840 C.3   216  MET216      0.1570
     95  C         37.8040    2.8280   11.6220 C.2   216  MET216      0.2261
     96  O         37.3110    2.2410   12.5890 O.2   216  MET216     -0.2867
     97  CB        38.7710    5.0760   12.1000 C.3   216  MET216      0.0387
     98  CG        38.4700    5.3220   13.5750 C.3   216  MET216      0.0595
     99  SD        38.5280    7.0970   13.8440 S.3   216  MET216     -0.1393
    100  CE        37.5450    7.6730   12.4460 C.3   216  MET216      0.0692
    101  N         38.6640   -0.8950   12.5410 N.3   219  GLU219     -0.1231
    102  CA        38.6380   -1.0260   13.9700 C.3   219  GLU219      0.1699
    103  C         37.2240   -1.0780   14.5030 C.2   219  GLU219      0.2592
    104  O         36.9050   -1.9280   15.3200 O.2   219  GLU219     -0.2718
    105  CB        39.3740    0.1380   14.6380 C.3   219  GLU219      0.0402
    106  CG        39.0210    0.2940   16.1140 C.3   219  GLU219      0.1161
    107  CD        39.6910    1.4910   16.7770 C.2   219  GLU219      0.3649
    108  OE1       40.9280    1.4260   16.9680 O.co2 219  GLU219     -0.2457
    109  OE2       38.9870    2.4700   17.1210 O.co2 219  GLU219     -0.2457
    110  N         36.3710   -0.1660   14.0540 N.am  220  ILE220     -0.1980
    111  CA        35.0200   -0.1990   14.4630 C.3   220  ILE220      0.1595
    112  C         34.3800   -1.5030   14.0190 C.2   220  ILE220      0.2287
    113  O         33.6680   -2.1570   14.7960 O.2   220  ILE220     -0.2864
    114  CB        34.2190    1.0120   13.9250 C.3   220  ILE220      0.0276
    115  CG1       34.7530    2.3430   14.5330 C.3   220  ILE220      0.0022
    116  CG2       32.7430    0.8260   14.2040 C.3   220  ILE220      0.0022
    117  CD1       34.1970    3.5980   13.8810 C.3   220  ILE220      0.0001
@<TRIPOS>BOND
     1     1     2    1
     2    15    13    1
     3    13    14    1
     4    13    10    1
     5    93    94    1
     6     9    10    1
     7     9     3   am
     8     2     5    1
     9     2     3    1
    10     5     6    1
    11    10    11    1
    12    95    94    1
    13    95    96    2
    14     3     4    2
    15    94    97    1
    16    11    12    2
    17    97    98    1
    18    31    30    1
    19   100    99    1
    20   101   102    1
    21    30    29    1
    22     6     8    1
    23     6     7    1
    24    29    28    1
    25    98    99    1
    26   117   115    1
    27   114   116    1
    28   114   111    1
    29   114   115    1
    30   102   103    1
    31   102   105    1
    32   112   111    1
    33   112   113    2
    34   110   111    1
    35   110   103   am
    36    28    27    1
    37   103   104    2
    38   105   106    1
    39    27    24    1
    40    16    17    1
    41    23    24    1
    42    23    18   am
    43    87    86    2
    44    24    25    1
    45    20    17    1
    46    20    22    1
    47    20    21    1
    48   106   107    1
    49    17    18    1
    50    25    26    2
    51    79    78    2
    52    18    19    2
    53   107   108   ar
    54   107   109   ar
    55    86    85    1
    56    82    80    1
    57    85    88    1
    58    85    84    1
    59    78    84   am
    60    78    77    1
    61    88    89    1
    62    89    90    1
    63    92    90   am
    64    80    77    1
    65    80    81    1
    66    77    76    1
    67    90    91    2
    68    81    83    1
    69    32    33    1
    70    40    39    1
    71    38    39    1
    72    38    37    1
    73    71    70    2
    74    36    37    1
    75    36    33    1
    76    33    34    1
    77    34    35    2
    78    70    69    1
    79    62    61    2
    80    69    72    1
    81    69    68    1
    82    51    50   ar
    83    51    49   ar
    84    72    73    1
    85    50    48   ar
    86    49    47   ar
    87    73    74    1
    88    74    75    1
    89    48    46   ar
    90    47    46   ar
    91    61    68   am
    92    61    60    1
    93    46    45    1
    94    45    42    1
    95    60    63    1
    96    60    59    1
    97    63    64    1
    98    67    65   am
    99    42    41    1
   100    42    43    1
   101    64    65    1
   102    55    54    2
   103    65    66    2
   104    43    44    2
   105    57    56    1
   106    54    53    1
   107    53    56    1
   108    53    52    1
   109    56    58    1
