@<TRIPOS>MOLECULE
tmp/4okzB00.pdb
 234 222 0 0 0
SMALL
GASTEIGER

@<TRIPOS>ATOM
      1  N       -114.8230  119.5450   34.7340 N.3    52  PHE52      -0.1241
      2  CA      -113.8740  118.4800   35.0660 C.3    52  PHE52       0.1605
      3  C       -113.2990  118.6630   36.4780 C.2    52  PHE52       0.2264
      4  O       -113.3760  117.7570   37.3120 O.2    52  PHE52      -0.2867
      5  CB      -112.7620  118.4460   34.0100 C.3    52  PHE52       0.0534
      6  CG      -111.7130  117.3900   34.2320 C.ar   52  PHE52      -0.0203
      7  CD1     -111.9770  116.2290   34.9530 C.ar   52  PHE52      -0.0042
      8  CD2     -110.4560  117.5470   33.6660 C.ar   52  PHE52      -0.0042
      9  CE1     -111.0030  115.2700   35.1280 C.ar   52  PHE52      -0.0003
     10  CE2     -109.4800  116.5880   33.8360 C.ar   52  PHE52      -0.0003
     11  CZ      -109.7550  115.4420   34.5630 C.ar   52  PHE52      -0.0000
     12  N       -105.4830  123.0730   34.9780 N.3    72  ILE72      -0.1245
     13  CA      -105.7040  122.0800   33.9190 C.3    72  ILE72       0.1561
     14  C       -105.7070  122.7420   32.5370 C.2    72  ILE72       0.2260
     15  O       -105.1010  122.2230   31.5990 O.2    72  ILE72      -0.2867
     16  CB      -106.9870  121.2490   34.1620 C.3    72  ILE72       0.0252
     17  CG1     -106.7760  120.3290   35.3740 C.3    72  ILE72       0.0019
     18  CG2     -107.3490  120.4230   32.9320 C.3    72  ILE72       0.0019
     19  CD1     -108.0470  119.7620   35.9700 C.3    72  ILE72       0.0001
     20  N       -102.1890  123.5390   31.6870 N.3    75  LEU75      -0.1231
     21  CA      -101.5120  122.3100   31.2650 C.3    75  LEU75       0.1693
     22  C       -101.8220  121.9190   29.8120 C.2    75  LEU75       0.2592
     23  O       -100.9400  121.4270   29.1110 O.2    75  LEU75      -0.2718
     24  CB      -101.8540  121.1510   32.2080 C.3    75  LEU75       0.0284
     25  CG      -101.2090  121.2050   33.5980 C.3    75  LEU75       0.0019
     26  CD1     -101.8950  120.2470   34.5580 C.3    75  LEU75       0.0001
     27  CD2      -99.7170  120.8990   33.5140 C.3    75  LEU75       0.0001
     28  N       -103.0620  122.1180   29.3630 N.am   76  PHE76      -0.1976
     29  CA      -103.3820  121.9320   27.9380 C.3    76  PHE76       0.1639
     30  C       -102.7010  122.9910   27.0720 C.2    76  PHE76       0.2290
     31  O       -102.3210  122.7160   25.9340 O.2    76  PHE76      -0.2864
     32  CB      -104.8940  121.9230   27.6880 C.3    76  PHE76       0.0560
     33  CG      -105.5530  120.6170   28.0350 C.ar   76  PHE76      -0.0200
     34  CD1     -106.4360  120.5280   29.1050 C.ar   76  PHE76      -0.0042
     35  CD2     -105.2740  119.4680   27.3030 C.ar   76  PHE76      -0.0042
     36  CE1     -107.0440  119.3250   29.4260 C.ar   76  PHE76      -0.0003
     37  CE2     -105.8750  118.2630   27.6200 C.ar   76  PHE76      -0.0003
     38  CZ      -106.7610  118.1890   28.6830 C.ar   76  PHE76      -0.0000
     39  N        -99.3950  121.1850   26.9040 N.3    79  ASP79      -0.1239
     40  CA       -99.4380  119.8650   26.2920 C.3    79  ASP79       0.1674
     41  C        -99.9000  119.9140   24.8350 C.2    79  ASP79       0.2266
     42  O        -99.3210  119.2340   23.9840 O.2    79  ASP79      -0.2867
     43  CB      -100.3120  118.9180   27.1110 C.3    79  ASP79       0.1410
     44  CG       -99.8990  117.4730   26.9550 C.2    79  ASP79       0.3668
     45  OD1      -98.7720  117.1080   27.3500 O.co2  79  ASP79      -0.2456
     46  OD2     -100.7160  116.6930   26.4490 O.co2  79  ASP79      -0.2456
     47  N        -97.8660  118.7010   21.6190 N.3    84  GLU84      -0.1245
     48  CA       -98.5730  117.8630   20.6540 C.3    84  GLU84       0.1567
     49  C        -98.9900  118.5870   19.3790 C.2    84  GLU84       0.2260
     50  O        -99.1200  117.9540   18.3310 O.2    84  GLU84      -0.2867
     51  CB       -99.8030  117.2230   21.3080 C.3    84  GLU84       0.0388
     52  CG       -99.4850  116.2790   22.4670 C.3    84  GLU84       0.1160
     53  CD      -100.6080  115.2800   22.7420 C.2    84  GLU84       0.3649
     54  OE1     -100.8200  114.4080   21.8700 O.co2  84  GLU84      -0.2457
     55  OE2     -101.2920  115.3560   23.8020 O.co2  84  GLU84      -0.2457
     56  N        -93.6890  115.6940   35.0730 N.3   149  TYR149     -0.1241
     57  CA       -94.5050  115.8310   33.8660 C.3   149  TYR149      0.1605
     58  C        -93.6360  116.3500   32.7120 C.2   149  TYR149      0.2264
     59  O        -93.6000  115.7480   31.6330 O.2   149  TYR149     -0.2867
     60  CB       -95.7130  116.7590   34.1260 C.3   149  TYR149      0.0534
     61  CG       -96.3230  117.3300   32.8670 C.ar  149  TYR149     -0.0201
     62  CD1      -96.8870  116.4940   31.9100 C.ar  149  TYR149     -0.0009
     63  CD2      -96.3260  118.7050   32.6210 C.ar  149  TYR149     -0.0009
     64  CE1      -97.4300  117.0010   30.7450 C.ar  149  TYR149      0.0417
     65  CE2      -96.8700  119.2200   31.4550 C.ar  149  TYR149      0.0417
     66  CZ       -97.4190  118.3550   30.5170 C.ar  149  TYR149      0.1957
     67  OH       -97.9610  118.8250   29.3450 O.3   149  TYR149     -0.2866
     68  N        -91.4210  111.9240   25.4490 N.3   156  GLU156     -0.1245
     69  CA       -92.4250  111.7850   24.3860 C.3   156  GLU156      0.1567
     70  C        -92.0030  112.5450   23.1220 C.2   156  GLU156      0.2260
     71  O        -92.1840  112.0540   22.0040 O.2   156  GLU156     -0.2867
     72  CB       -93.7990  112.2870   24.8640 C.3   156  GLU156      0.0388
     73  CG       -94.9360  112.0500   23.8780 C.3   156  GLU156      0.1160
     74  CD       -96.2310  112.7360   24.2750 C.2   156  GLU156      0.3649
     75  OE1      -96.2480  113.9860   24.3810 O.co2 156  GLU156     -0.2457
     76  OE2      -97.2430  112.0240   24.4650 O.co2 156  GLU156     -0.2457
     77  N        -96.1270  107.3620   30.4780 N.3   175  ARG175     -0.1245
     78  CA       -97.5360  107.7380   30.5890 C.3   175  ARG175      0.1563
     79  C        -97.9800  107.9440   32.0370 C.2   175  ARG175      0.2260
     80  O        -98.9170  108.6980   32.2930 O.2   175  ARG175     -0.2867
     81  CB       -98.4070  106.6860   29.8880 C.3   175  ARG175      0.0307
     82  CG       -99.8740  107.0500   29.7180 C.3   175  ARG175      0.0489
     83  CD      -100.0560  108.3690   28.9780 C.3   175  ARG175      0.2205
     84  NE      -101.4390  108.5800   28.5630 N.pl3 175  ARG175     -0.0865
     85  CZ      -102.0080  109.7700   28.3570 C.cat 175  ARG175      0.5346
     86  NH1     -103.2830  109.8300   27.9950 N.pl3 175  ARG175      0.1354
     87  NH2     -101.3210  110.9010   28.5140 N.pl3 175  ARG175      0.1354
     88  N        -96.7340  111.6540   31.8970 N.3   178  ASP178     -0.1225
     89  CA       -96.9510  112.6150   30.8030 C.3   178  ASP178      0.1805
     90  C        -98.4030  113.0910   30.6670 C.2   178  ASP178      0.2598
     91  O        -98.6860  114.0190   29.9110 O.2   178  ASP178     -0.2718
     92  CB       -96.2930  112.1630   29.4760 C.3   178  ASP178      0.1424
     93  CG       -97.1350  111.2040   28.6450 C.2   178  ASP178      0.3668
     94  OD1      -96.5150  110.4970   27.8230 O.co2 178  ASP178     -0.2456
     95  OD2      -98.3770  111.1650   28.7520 O.co2 178  ASP178     -0.2456
     96  N        -99.2980  112.4810   31.4410 N.am  179  GLY179     -0.1942
     97  CA      -100.6710  112.9670   31.5880 C.3   179  GLY179      0.2014
     98  C       -100.8540  113.9830   32.7110 C.2   179  GLY179      0.2639
     99  O       -101.9700  114.4100   32.9710 O.2   179  GLY179     -0.2714
    100  N        -99.7580  114.3540   33.3790 N.am  180  ALA180     -0.1963
    101  CA       -99.7520  115.3440   34.4730 C.3   180  ALA180      0.1728
    102  C       -100.6370  114.9940   35.6780 C.2   180  ALA180      0.2616
    103  O       -100.9770  115.8670   36.4820 O.2   180  ALA180     -0.2715
    104  CB      -100.0930  116.7330   33.9460 C.3   180  ALA180      0.0334
    105  N       -100.9790  113.7160   35.8220 N.am  181  THR181     -0.1951
    106  CA      -101.8230  113.2750   36.9230 C.3   181  THR181      0.1897
    107  C       -101.1620  113.5270   38.2760 C.2   181  THR181      0.2313
    108  O       -101.8400  113.8840   39.2330 O.2   181  THR181     -0.2863
    109  CB      -102.1720  111.7830   36.7960 C.3   181  THR181      0.1794
    110  OG1     -100.9800  111.0460   36.5150 O.3   181  THR181     -0.2208
    111  CG2     -103.1750  111.5690   35.6700 C.3   181  THR181      0.0378
    112  N       -101.6900  117.0870   39.8430 N.3   184  VAL184     -0.1245
    113  CA      -103.0050  117.3430   40.4400 C.3   184  VAL184      0.1561
    114  C       -103.0450  116.9520   41.9190 C.2   184  VAL184      0.2260
    115  O       -103.7770  117.5580   42.7080 O.2   184  VAL184     -0.2867
    116  CB      -104.1150  116.5780   39.6810 C.3   184  VAL184      0.0252
    117  CG1     -105.4590  116.6900   40.3930 C.3   184  VAL184      0.0019
    118  CG2     -104.2230  117.0940   38.2550 C.3   184  VAL184      0.0019
    119  N       -106.5000  106.6120   34.9940 N.3   217  ILE217     -0.1231
    120  CA      -106.8630  107.8840   34.3750 C.3   217  ILE217      0.1692
    121  C       -106.2650  108.0210   32.9700 C.2   217  ILE217      0.2592
    122  O       -106.9620  108.4280   32.0390 O.2   217  ILE217     -0.2718
    123  CB      -106.4730  109.0750   35.2810 C.3   217  ILE217      0.0266
    124  CG1     -107.3650  109.0860   36.5310 C.3   217  ILE217      0.0019
    125  CG2     -106.6040  110.4030   34.5490 C.3   217  ILE217      0.0020
    126  CD1     -106.8510  109.9580   37.6540 C.3   217  ILE217      0.0001
    127  N       -104.9920  107.6680   32.8090 N.am  218  THR218     -0.1953
    128  CA      -104.3490  107.8010   31.5040 C.3   218  THR218      0.1897
    129  C       -104.8210  106.7350   30.5170 C.2   218  THR218      0.2313
    130  O       -104.9890  107.0270   29.3400 O.2   218  THR218     -0.2863
    131  CB      -102.8110  107.7870   31.6000 C.3   218  THR218      0.1794
    132  OG1     -102.3670  106.6280   32.3110 O.3   218  THR218     -0.2208
    133  CG2     -102.3100  109.0380   32.3000 C.3   218  THR218      0.0378
    134  N       -108.2300  107.7380   29.4280 N.3   221  ASN221     -0.1225
    135  CA      -108.0650  108.7720   28.4190 C.3   221  ASN221      0.1785
    136  C       -107.6090  108.1870   27.0790 C.2   221  ASN221      0.2597
    137  O       -108.1190  108.5790   26.0330 O.2   221  ASN221     -0.2718
    138  CB      -107.1040  109.8690   28.8770 C.3   221  ASN221      0.1169
    139  CG      -106.7740  110.8420   27.7610 C.2   221  ASN221      0.2627
    140  OD1     -105.8180  110.6310   27.0240 O.2   221  ASN221     -0.2716
    141  ND2     -107.5830  111.8860   27.6070 N.am  221  ASN221     -0.0877
    142  N       -106.6620  107.2540   27.1040 N.am  222  ASP222     -0.1974
    143  CA      -106.2180  106.6000   25.8670 C.3   222  ASP222      0.1709
    144  C       -107.4140  105.9710   25.1450 C.2   222  ASP222      0.2293
    145  O       -107.5260  106.0610   23.9220 O.2   222  ASP222     -0.2864
    146  CB      -105.1530  105.5320   26.1470 C.3   222  ASP222      0.1436
    147  CG      -103.7850  106.1220   26.4990 C.2   222  ASP222      0.3671
    148  OD1     -102.8670  105.3180   26.7670 O.co2 222  ASP222     -0.2456
    149  OD2     -103.6090  107.3640   26.4920 O.co2 222  ASP222     -0.2456
    150  N       -109.9960  109.0660   24.2440 N.3   225  SER225     -0.1217
    151  CA      -109.3830  110.0340   23.3170 C.3   225  SER225      0.1889
    152  C       -108.8180  109.3850   22.0420 C.2   225  SER225      0.2288
    153  O       -108.3580  110.0890   21.1420 O.2   225  SER225     -0.2866
    154  CB      -108.3080  110.8980   24.0290 C.3   225  SER225      0.2089
    155  OG      -107.0850  110.2130   24.3010 O.3   225  SER225     -0.2183
    156  N       -110.3890  110.9570   18.7450 N.3   228  LYS228     -0.1231
    157  CA      -109.8820  112.2720   18.3500 C.3   228  LYS228      0.1693
    158  C       -108.3920  112.2330   17.9960 C.2   228  LYS228      0.2591
    159  O       -107.9530  112.9680   17.1150 O.2   228  LYS228     -0.2718
    160  CB      -110.1890  113.3420   19.4090 C.3   228  LYS228      0.0285
    161  CG      -109.3220  113.3330   20.6640 C.3   228  LYS228      0.0035
    162  CD      -108.1430  114.2920   20.5640 C.3   228  LYS228      0.0206
    163  CE      -107.4230  114.4340   21.8950 C.3   228  LYS228      0.1093
    164  NZ      -106.1950  115.2720   21.7860 N.3   228  LYS228     -0.1314
    165  N       -107.6250  111.3700   18.6600 N.am  229  GLU229     -0.1979
    166  CA      -106.1890  111.2550   18.3870 C.3   229  GLU229      0.1602
    167  C       -105.8840  110.5710   17.0590 C.2   229  GLU229      0.2287
    168  O       -105.1100  111.0970   16.2590 O.2   229  GLU229     -0.2864
    169  CB      -105.4790  110.5360   19.5350 C.3   229  GLU229      0.0415
    170  CG      -105.4650  111.3990   20.7800 C.3   229  GLU229      0.1163
    171  CD      -104.8690  110.7380   21.9980 C.2   229  GLU229      0.3649
    172  OE1     -104.6910  111.4790   22.9660 O.co2 229  GLU229     -0.2457
    173  OE2     -104.5740  109.5210   22.0100 O.co2 229  GLU229     -0.2457
    174  N        -99.4630  109.2790   20.4950 N.3   237  LEU237     -0.1245
    175  CA       -99.1650  108.0660   21.2270 C.3   237  LEU237      0.1561
    176  C       -100.3220  107.7360   22.1410 C.2   237  LEU237      0.2260
    177  O       -100.9730  108.6280   22.6680 O.2   237  LEU237     -0.2867
    178  CB       -97.9180  108.2460   22.0840 C.3   237  LEU237      0.0270
    179  CG       -96.5800  107.7460   21.5700 C.3   237  LEU237      0.0019
    180  CD1      -95.5470  107.9470   22.6650 C.3   237  LEU237      0.0001
    181  CD2      -96.6320  106.2850   21.1600 C.3   237  LEU237      0.0001
    182  N       -111.0040  111.7030   41.5620 N.3   294  PHE294     -0.1241
    183  CA      -110.1730  112.0650   40.4140 C.3   294  PHE294      0.1605
    184  C       -110.3920  111.0600   39.2750 C.2   294  PHE294      0.2264
    185  O       -110.6550  111.4560   38.1360 O.2   294  PHE294     -0.2867
    186  CB      -108.7030  112.1360   40.8720 C.3   294  PHE294      0.0534
    187  CG      -107.7310  112.6930   39.8530 C.ar  294  PHE294     -0.0203
    188  CD1     -108.1470  113.3710   38.7050 C.ar  294  PHE294     -0.0042
    189  CD2     -106.3630  112.5630   40.0820 C.ar  294  PHE294     -0.0042
    190  CE1     -107.2170  113.8710   37.8040 C.ar  294  PHE294     -0.0003
    191  CE2     -105.4320  113.0610   39.1840 C.ar  294  PHE294     -0.0003
    192  CZ      -105.8590  113.7190   38.0460 C.ar  294  PHE294     -0.0000
    193  N       -112.5480  112.1420   35.8360 N.3   298  ALA298     -0.1245
    194  CA      -111.9250  112.0100   34.5180 C.3   298  ALA298      0.1562
    195  C       -112.7510  111.0890   33.6250 C.2   298  ALA298      0.2260
    196  O       -112.8650  111.3220   32.4200 O.2   298  ALA298     -0.2867
    197  CB      -110.4990  111.4910   34.6470 C.3   298  ALA298      0.0290
    198  N       -115.9220  113.0880   32.5830 N.3   301  TRP301     -0.1241
    199  CA      -115.4830  114.1380   31.6740 C.3   301  TRP301      0.1605
    200  C       -115.0500  113.5560   30.3190 C.2   301  TRP301      0.2264
    201  O       -115.3120  114.1450   29.2680 O.2   301  TRP301     -0.2867
    202  CB      -114.3460  114.9300   32.3240 C.3   301  TRP301      0.0550
    203  CG      -113.8970  116.1140   31.5330 C.ar  301  TRP301      0.0003
    204  CD1     -114.6330  117.2180   31.2130 C.ar  301  TRP301      0.0946
    205  CD2     -112.5980  116.3180   30.9720 C.ar  301  TRP301      0.0152
    206  NE1     -113.8670  118.1010   30.4830 N.ar  301  TRP301     -0.2442
    207  CE2     -112.6160  117.5670   30.3170 C.ar  301  TRP301      0.0810
    208  CE3     -111.4180  115.5640   30.9590 C.ar  301  TRP301      0.0012
    209  CZ2     -111.4990  118.0790   29.6530 C.ar  301  TRP301      0.0191
    210  CZ3     -110.3090  116.0750   30.3020 C.ar  301  TRP301      0.0001
    211  CH2     -110.3600  117.3200   29.6550 C.ar  301  TRP301      0.0015
    212  N       -114.1720  117.8200   23.5840 N.3   307  ARG307     -0.1231
    213  CA      -112.7910  117.4430   23.2890 C.3   307  ARG307      0.1694
    214  C       -112.7140  116.0070   22.7580 C.2   307  ARG307      0.2592
    215  O       -111.9590  115.7200   21.8240 O.2   307  ARG307     -0.2718
    216  CB      -111.9150  117.5880   24.5430 C.3   307  ARG307      0.0321
    217  CG      -110.4250  117.5470   24.2530 C.3   307  ARG307      0.0489
    218  CD      -109.5620  117.7500   25.4910 C.3   307  ARG307      0.2205
    219  NE      -108.1570  117.5220   25.1520 N.pl3 307  ARG307     -0.0865
    220  CZ      -107.3290  118.4210   24.6180 C.cat 307  ARG307      0.5346
    221  NH1     -106.0840  118.0560   24.3320 N.pl3 307  ARG307      0.1354
    222  NH2     -107.7140  119.6720   24.3650 N.pl3 307  ARG307      0.1354
    223  N       -113.5170  115.1200   23.3430 N.am  308  TYR308     -0.1976
    224  CA      -113.4900  113.6910   23.0200 C.3   308  TYR308      0.1639
    225  C       -114.7010  113.2090   22.2130 C.2   308  TYR308      0.2290
    226  O       -114.5630  112.3320   21.3700 O.2   308  TYR308     -0.2864
    227  CB      -113.3630  112.8870   24.3130 C.3   308  TYR308      0.0560
    228  CG      -112.2280  113.3830   25.1750 C.ar  308  TYR308     -0.0198
    229  CD1     -112.4680  113.9640   26.4160 C.ar  308  TYR308     -0.0009
    230  CD2     -110.9120  113.3130   24.7260 C.ar  308  TYR308     -0.0009
    231  CE1     -111.4290  114.4370   27.1940 C.ar  308  TYR308      0.0417
    232  CE2     -109.8650  113.7820   25.4990 C.ar  308  TYR308      0.0417
    233  CZ      -110.1300  114.3450   26.7330 C.ar  308  TYR308      0.1957
    234  OH      -109.0940  114.8170   27.5100 O.3   308  TYR308     -0.2866
@<TRIPOS>BOND
     1   168   167    2
     2   167   166    1
     3   159   158    2
     4   158   157    1
     5   158   165   am
     6    50    49    2
     7   157   156    1
     8   157   160    1
     9   166   165    1
    10   166   169    1
    11    49    48    1
    12   160   161    1
    13   169   170    1
    14   174   175    1
    15   162   161    1
    16   162   163    1
    17    48    51    1
    18    48    47    1
    19   170   171    1
    20   153   152    2
    21   181   179    1
    22   175   178    1
    23   175   176    1
    24    51    52    1
    25   226   225    2
    26   179   178    1
    27   179   180    1
    28   164   163    1
    29   215   214    2
    30    54    53   ar
    31   171   173   ar
    32   171   172   ar
    33    71    70    2
    34   152   151    1
    35   176   177    2
    36   225   224    1
    37    52    53    1
    38    53    55   ar
    39   214   213    1
    40   214   223   am
    41   224   223    1
    42   224   227    1
    43    70    69    1
    44   213   212    1
    45   213   216    1
    46   151   154    1
    47   151   150    1
    48    73    74    1
    49    73    72    1
    50   145   144    2
    51    42    41    2
    52   154   155    1
    53   217   216    1
    54   217   218    1
    55    74    75   ar
    56    74    76   ar
    57   227   228    1
    58   221   220    1
    59   222   220    1
    60    69    72    1
    61    69    68    1
    62   220   219    2
    63   230   228   ar
    64   230   232   ar
    65    41    40    1
    66   144   143    1
    67   219   218    1
    68   228   229   ar
    69   232   233   ar
    70   143   146    1
    71   143   142    1
    72    31    30    2
    73   137   136    2
    74   146   147    1
    75    40    39    1
    76    40    43    1
    77   229   231   ar
    78    46    44   ar
    79   149   147   ar
    80   147   148   ar
    81   233   231   ar
    82   233   234    1
    83    44    43    1
    84    44    45   ar
    85   140   139    2
    86    30    29    1
    87   136   142   am
    88   136   135    1
    89    35    37   ar
    90    35    33   ar
    91   141   139   am
    92    37    38   ar
    93    32    29    1
    94    32    33    1
    95   139   138    1
    96    94    93   ar
    97    29    28    1
    98    86    85    1
    99    33    34   ar
   100    85    87    1
   101    85    84    2
   102   135   138    1
   103   135   134    1
   104    84    83    1
   105    93    95   ar
   106    93    92    1
   107    38    36   ar
   108    83    82    1
   109    34    36   ar
   110    23    22    2
   111   201   200    2
   112   130   129    2
   113    67    66    1
   114    28    22   am
   115    92    89    1
   116   209   211   ar
   117   209   207   ar
   118   211   210   ar
   119    82    81    1
   120    22    21    1
   121    81    78    1
   122    91    90    2
   123   210   208   ar
   124   207   206   ar
   125   207   205   ar
   126   200   199    1
   127    77    78    1
   128   206   204   ar
   129    66    64   ar
   130    66    65   ar
   131   129   128    1
   132    78    79    1
   133    90    89    1
   134    90    96   am
   135    64    62   ar
   136    89    88    1
   137   208   205   ar
   138   205   203   ar
   139   204   203   ar
   140    21    20    1
   141    21    24    1
   142    96    97    1
   143    65    63   ar
   144   128   131    1
   145   128   127    1
   146   203   202    1
   147    97    98    1
   148    15    14    2
   149   131   133    1
   150   131   132    1
   151    59    58    2
   152   199   202    1
   153   199   198    1
   154    62    61   ar
   155    79    80    2
   156   122   121    2
   157    24    25    1
   158   196   195    2
   159    14    13    1
   160    63    61   ar
   161    98    99    2
   162    98   100   am
   163    58    57    1
   164   127   121   am
   165    61    60    1
   166    18    16    1
   167   121   120    1
   168   100   101    1
   169    27    25    1
   170    25    26    1
   171   195   194    1
   172     8    10   ar
   173     8     6   ar
   174    10    11   ar
   175    57    60    1
   176    57    56    1
   177    13    16    1
   178    13    12    1
   179   104   101    1
   180     5     6    1
   181     5     2    1
   182    16    17    1
   183     6     7   ar
   184   120   119    1
   185   120   123    1
   186   101   102    1
   187   194   197    1
   188   194   193    1
   189   125   123    1
   190    11     9   ar
   191     1     2    1
   192     7     9   ar
   193     2     3    1
   194   123   124    1
   195    17    19    1
   196   111   109    1
   197   102   105   am
   198   102   103    2
   199   105   106    1
   200     3     4    2
   201   110   109    1
   202   124   126    1
   203   109   106    1
   204   106   107    1
   205   190   192   ar
   206   190   188   ar
   207   192   191   ar
   208   185   184    2
   209   118   116    1
   210   107   108    2
   211   188   187   ar
   212   191   189   ar
   213   184   183    1
   214   116   117    1
   215   116   113    1
   216   112   113    1
   217   187   189   ar
   218   187   186    1
   219   183   186    1
   220   183   182    1
   221   113   114    1
   222   114   115    2
