@<TRIPOS>MOLECULE
tmp/4oldB00.pdb
 94 90 0 0 0
SMALL
GASTEIGER

@<TRIPOS>ATOM
      1  N         76.9070    1.0580   29.5430 N.3    61  SER61      -0.1217
      2  CA        75.5860    1.5340   29.1640 C.3    61  SER61       0.1889
      3  C         74.6820    0.5070   28.4920 C.2    61  SER61       0.2288
      4  O         73.4780    0.8380   28.2680 O.2    61  SER61      -0.2866
      5  CB        75.7050    2.6880   28.1750 C.3    61  SER61       0.2089
      6  OG        76.2860    3.7410   28.9450 O.3    61  SER61      -0.2183
      7  N         75.3510   14.4030   30.6920 N.3   116  LEU116     -0.1231
      8  CA        75.8680   13.0910   30.4650 C.3   116  LEU116      0.1693
      9  C         76.1140   12.3350   31.7200 C.2   116  LEU116      0.2591
     10  O         75.7280   11.1700   31.8640 O.2   116  LEU116     -0.2718
     11  CB        77.1420   13.2160   29.5790 C.3   116  LEU116      0.0284
     12  CG        77.7870   11.8650   29.2640 C.3   116  LEU116      0.0019
     13  CD1       76.8860   10.8600   28.4980 C.3   116  LEU116      0.0001
     14  CD2       79.0590   12.2300   28.4260 C.3   116  LEU116      0.0001
     15  N         76.8570   12.9100   32.7040 N.am  117  GLN117     -0.1979
     16  CA        77.1040   12.2530   33.9790 C.3   117  GLN117      0.1601
     17  C         76.5330   13.0850   35.1050 C.2   117  GLN117      0.2287
     18  O         76.4740   14.3140   34.9860 O.2   117  GLN117     -0.2864
     19  CB        78.6050   12.1430   34.2970 C.3   117  GLN117      0.0394
     20  CG        79.4050   11.2610   33.3030 C.3   117  GLN117      0.0908
     21  CD        78.9240    9.8560   33.1380 C.2   117  GLN117      0.2608
     22  OE1       78.1060    9.3150   33.9020 O.2   117  GLN117     -0.2717
     23  NE2       79.4410    9.2080   32.0660 N.am  117  GLN117     -0.0878
     24  N         71.9980   12.3970   25.0320 N.3   147  TYR147     -0.1241
     25  CA        72.2780   11.1590   25.7860 C.3   147  TYR147      0.1605
     26  C         72.8120   11.4580   27.1400 C.2   147  TYR147      0.2264
     27  O         73.7440   12.2320   27.2810 O.2   147  TYR147     -0.2867
     28  CB        73.2310   10.3290   24.9590 C.3   147  TYR147      0.0534
     29  CG        73.5920    9.0010   25.5220 C.ar  147  TYR147     -0.0201
     30  CD1       74.7080    8.7950   26.3030 C.ar  147  TYR147     -0.0009
     31  CD2       72.7090    7.8820   25.2900 C.ar  147  TYR147     -0.0009
     32  CE1       75.0400    7.5090   26.8330 C.ar  147  TYR147      0.0417
     33  CE2       73.0180    6.6540   25.8090 C.ar  147  TYR147      0.0417
     34  CZ        74.1750    6.4830   26.5250 C.ar  147  TYR147      0.1957
     35  OH        74.5510    5.2450   26.9440 O.3   147  TYR147     -0.2866
     36  N         73.3070    9.8250   31.3640 N.3   149  ASN149     -0.1240
     37  CA        73.0840    8.8940   32.4880 C.3   149  ASN149      0.1653
     38  C         72.2040    9.5620   33.5330 C.2   149  ASN149      0.2266
     39  O         71.4530    8.8140   34.2010 O.2   149  ASN149     -0.2867
     40  CB        74.4630    8.5600   33.1180 C.3   149  ASN149      0.1155
     41  CG        75.2970    7.7130   32.2780 C.2   149  ASN149      0.2627
     42  OD1       74.8020    6.9350   31.4830 O.2   149  ASN149     -0.2716
     43  ND2       76.5530    7.7350   32.5620 N.am  149  ASN149     -0.0877
     44  N         87.9490   -1.8950   37.9300 N.3   207  HIS207     -0.1226
     45  CA        86.5140   -2.0770   37.8980 C.3   207  HIS207      0.1752
     46  C         85.8270   -0.7550   38.0190 C.2   207  HIS207      0.2596
     47  O         86.3770    0.2830   38.5420 O.2   207  HIS207     -0.2718
     48  CB        86.1710   -2.9340   39.0880 C.3   207  HIS207      0.0759
     49  CG        86.4060   -4.4150   38.8520 C.ar  207  HIS207      0.0818
     50  ND1       86.7050   -5.2970   39.8710 N.ar  207  HIS207     -0.2268
     51  CD2       86.4430   -5.1380   37.6750 C.ar  207  HIS207      0.1154
     52  CE1       86.8930   -6.5440   39.3330 C.ar  207  HIS207      0.1986
     53  NE2       86.6680   -6.4510   38.0110 N.ar  207  HIS207     -0.2212
     54  N         84.5240   -0.7540   37.6240 N.am  208  VAL208     -0.1966
     55  CA        83.7650    0.5070   37.6040 C.3   208  VAL208      0.1727
     56  C         83.7150    1.0920   39.0690 C.2   208  VAL208      0.2616
     57  O         83.5390    0.3420   40.0210 O.2   208  VAL208     -0.2715
     58  CB        82.3690    0.1750   37.0500 C.3   208  VAL208      0.0290
     59  CG1       81.6120   -0.8380   37.8820 C.3   208  VAL208      0.0023
     60  CG2       81.5470    1.4920   36.8650 C.3   208  VAL208      0.0023
     61  N         83.9080    2.4080   39.1670 N.am  209  SER209     -0.1950
     62  CA        83.8820    3.1220   40.4830 C.3   209  SER209      0.1924
     63  C         82.3890    3.3480   40.8330 C.2   209  SER209      0.2314
     64  O         81.6140    3.5900   39.8630 O.2   209  SER209     -0.2863
     65  CB        84.4940    4.4970   40.2320 C.3   209  SER209      0.2116
     66  OG        85.8800    4.4280   39.9230 O.3   209  SER209     -0.2180
     67  N         74.4730    2.2630   34.2750 N.3   218  TYR218     -0.1298
     68  CA        75.6390    1.6110   33.6910 C.3   218  TYR218      0.1290
     69  C         76.1150    0.4730   34.5990 C.3   218  TYR218      0.2013
     70  O         77.2740    0.0740   34.3630 O.3   218  TYR218     -0.2188
     71  CB        76.7840    2.6400   33.3490 C.3   218  TYR218      0.0480
     72  CG        77.2010    3.4620   34.5560 C.ar  218  TYR218     -0.0204
     73  CD1       78.0970    3.0100   35.4530 C.ar  218  TYR218     -0.0009
     74  CD2       76.7170    4.7860   34.6980 C.ar  218  TYR218     -0.0009
     75  CE1       78.5120    3.8450   36.5400 C.ar  218  TYR218      0.0417
     76  CE2       77.1080    5.6350   35.7580 C.ar  218  TYR218      0.0417
     77  CZ        77.9650    5.1020   36.6750 C.ar  218  TYR218      0.1957
     78  OH        78.3560    5.9090   37.7370 O.3   218  TYR218     -0.2866
     79  N         80.0050    1.2880   27.6120 N.3   315  ALA315     -0.1231
     80  CA        81.3540    1.3090   28.1480 C.3   315  ALA315      0.1694
     81  C         81.3740    1.6170   29.6150 C.2   315  ALA315      0.2593
     82  O         80.5060    2.2410   30.1820 O.2   315  ALA315     -0.2718
     83  CB        82.1880    2.3460   27.3910 C.3   315  ALA315      0.0304
     84  N         82.4300    1.1130   30.1960 N.am  316  THR316     -0.1939
     85  CA        82.9390    1.6450   31.5260 C.3   316  THR316      0.2028
     86  C         84.4100    1.9700   31.2420 C.2   316  THR316      0.2642
     87  O         84.9220    1.8820   30.1520 O.2   316  THR316     -0.2714
     88  CB        82.7970    0.6880   32.6800 C.3   316  THR316      0.1808
     89  OG1       83.5950   -0.5090   32.3720 O.3   316  THR316     -0.2208
     90  CG2       81.3250    0.2490   32.8840 C.3   316  THR316      0.0379
     91  N         85.1090    2.4660   32.2920 N.am  317  GLY317     -0.1954
     92  CA        86.5270    2.8170   32.0710 C.3   317  GLY317      0.1869
     93  C         87.3380    1.6180   31.5510 C.2   317  GLY317      0.2309
     94  O         88.2490    1.8690   30.7520 O.2   317  GLY317     -0.2863
@<TRIPOS>BOND
     1    28    29    1
     2    28    25    1
     3    24    25    1
     4    31    29   ar
     5    31    33   ar
     6    29    30   ar
     7    25    26    1
     8    33    34   ar
     9    30    32   ar
    10    34    32   ar
    11    34    35    1
    12    26    27    2
    13    83    80    1
    14    79    80    1
    15    80    81    1
    16     5     6    1
    17     5     2    1
    18     4     3    2
    19    14    12    1
    20     3     2    1
    21    13    12    1
    22     2     1    1
    23    12    11    1
    24    11     8    1
    25    81    82    2
    26    81    84   am
    27    87    86    2
    28    84    85    1
    29     8     7    1
    30     8     9    1
    31    94    93    2
    32    86    85    1
    33    86    91   am
    34    36    37    1
    35    42    41    2
    36    85    88    1
    37    93    92    1
    38     9    10    2
    39     9    15   am
    40    23    21   am
    41    92    91    1
    42    41    43   am
    43    41    40    1
    44    89    88    1
    45    37    40    1
    46    37    38    1
    47    88    90    1
    48    15    16    1
    49    21    20    1
    50    21    22    2
    51    20    19    1
    52    71    68    1
    53    71    72    1
    54    38    39    2
    55    68    67    1
    56    68    69    1
    57    16    19    1
    58    16    17    1
    59    70    69    1
    60    72    74   ar
    61    72    73   ar
    62    74    76   ar
    63    18    17    2
    64    73    75   ar
    65    76    77   ar
    66    75    77   ar
    67    77    78    1
    68    60    58    1
    69    58    55    1
    70    58    59    1
    71    55    54    1
    72    55    56    1
    73    54    46   am
    74    51    53   ar
    75    51    49   ar
    76    45    44    1
    77    45    46    1
    78    45    48    1
    79    53    52   ar
    80    46    47    2
    81    49    48    1
    82    49    50   ar
    83    56    61   am
    84    56    57    2
    85    61    62    1
    86    52    50   ar
    87    64    63    2
    88    66    65    1
    89    65    62    1
    90    62    63    1
