@<TRIPOS>MOLECULE
tmp/4olgA00.pdb
 148 139 0 0 0
SMALL
GASTEIGER

@<TRIPOS>ATOM
      1  N         26.8280    1.5630   16.2470 N.3    61  SER61      -0.1217
      2  CA        28.1700    2.1270   16.4690 C.3    61  SER61       0.1889
      3  C         29.0760    1.1760   17.2930 C.2    61  SER61       0.2288
      4  O         30.3050    1.4470   17.4020 O.2    61  SER61      -0.2866
      5  CB        28.1060    3.5040   17.2280 C.3    61  SER61       0.2089
      6  OG        27.6220    4.5560   16.2830 O.3    61  SER61      -0.2183
      7  N         29.3780   14.4280   12.3960 N.3   116  LEU116     -0.1231
      8  CA        28.8630   13.1970   12.9080 C.3   116  LEU116      0.1693
      9  C         28.4800   12.1580   11.8360 C.2   116  LEU116      0.2588
     10  O         28.7890   10.9540   11.9810 O.2   116  LEU116     -0.2718
     11  CB        27.6400   13.5420   13.8100 C.3   116  LEU116      0.0284
     12  CG        26.8750   12.3300   14.4020 C.3   116  LEU116      0.0019
     13  CD1       27.7150   11.5440   15.3880 C.3   116  LEU116      0.0001
     14  CD2       25.5700   12.7390   15.1190 C.3   116  LEU116      0.0001
     15  N         27.7700   12.6170   10.7870 N.am  117  GLN117     -0.2033
     16  CA        27.3050   11.7570    9.6900 C.3   117  GLN117      0.1287
     17  C         27.9090   12.2140    8.3960 C.3   117  GLN117      0.2036
     18  O         28.1250   13.4740    8.1190 O.3   117  GLN117     -0.2185
     19  CB        25.7410   11.9680    9.5560 C.3   117  GLN117      0.0340
     20  CG        24.8930   11.6120   10.7910 C.3   117  GLN117      0.0904
     21  CD        24.0020   12.7360   11.3740 C.2   117  GLN117      0.2608
     22  OE1       24.3610   13.9240   11.3810 O.2   117  GLN117     -0.2717
     23  NE2       22.8540   12.3490   11.9100 N.am  117  GLN117     -0.0878
     24  N         32.5340   13.2540   18.4980 N.3   147  TYR147     -0.1241
     25  CA        32.2260   11.8960   17.9810 C.3   147  TYR147      0.1605
     26  C         31.7070   11.9800   16.5640 C.2   147  TYR147      0.2264
     27  O         30.7850   12.8050   16.2160 O.2   147  TYR147     -0.2867
     28  CB        31.1450   11.2520   18.8750 C.3   147  TYR147      0.0534
     29  CG        30.8650    9.8020   18.5490 C.ar  147  TYR147     -0.0201
     30  CD1       29.9190    9.4710   17.5970 C.ar  147  TYR147     -0.0009
     31  CD2       31.5600    8.7790   19.1980 C.ar  147  TYR147     -0.0009
     32  CE1       29.6280    8.1380   17.3220 C.ar  147  TYR147      0.0417
     33  CE2       31.2750    7.4150   18.9210 C.ar  147  TYR147      0.0417
     34  CZ        30.2810    7.1280   18.0570 C.ar  147  TYR147      0.1957
     35  OH        29.9640    5.8560   17.7950 O.3   147  TYR147     -0.2866
     36  N         30.9960    9.5850   12.8310 N.3   149  ASN149     -0.1240
     37  CA        31.1310    8.4600   11.9310 C.3   149  ASN149      0.1653
     38  C         32.0510    8.7830   10.7560 C.2   149  ASN149      0.2266
     39  O         32.7130    7.8730   10.2530 O.2   149  ASN149     -0.2867
     40  CB        29.7440    8.1300   11.2680 C.3   149  ASN149      0.1155
     41  CG        28.7350    7.5980   12.2040 C.2   149  ASN149      0.2627
     42  OD1       29.0180    7.0950   13.2780 O.2   149  ASN149     -0.2716
     43  ND2       27.4350    7.7290   11.7800 N.am  149  ASN149     -0.0877
     44  N         29.2230    1.6830   11.3960 N.3   218  TYR218     -0.1241
     45  CA        28.0130    1.2070   12.0630 C.3   218  TYR218      0.1605
     46  C         27.3400    0.0040   11.4380 C.2   218  TYR218      0.2264
     47  O         26.1890   -0.2660   11.7040 O.2   218  TYR218     -0.2867
     48  CB        26.9880    2.3130   12.1450 C.3   218  TYR218      0.0534
     49  CG        26.5970    2.9360   10.8200 C.ar  218  TYR218     -0.0201
     50  CD1       25.6610    2.3510    9.9950 C.ar  218  TYR218     -0.0009
     51  CD2       27.1500    4.1330   10.4220 C.ar  218  TYR218     -0.0009
     52  CE1       25.2970    2.9330    8.8060 C.ar  218  TYR218      0.0417
     53  CE2       26.8050    4.7180    9.2390 C.ar  218  TYR218      0.0417
     54  CZ        25.8750    4.1250    8.4270 C.ar  218  TYR218      0.1957
     55  OH        25.5350    4.7330    7.2630 O.3   218  TYR218     -0.2866
     56  N         24.4470    9.4890   27.3610 N.3   285  ASP285     -0.1239
     57  CA        23.5470   10.4330   26.6850 C.3   285  ASP285      0.1674
     58  C         24.2920   11.2430   25.5930 C.2   285  ASP285      0.2266
     59  O         23.7740   11.4300   24.4660 O.2   285  ASP285     -0.2867
     60  CB        22.9120   11.3700   27.7610 C.3   285  ASP285      0.1410
     61  CG        21.5370   11.9370   27.3470 C.2   285  ASP285      0.3668
     62  OD1       20.5230   11.5930   28.0190 O.co2 285  ASP285     -0.2456
     63  OD2       21.4720   12.7220   26.3560 O.co2 285  ASP285     -0.2456
     64  N         22.2330   14.4300   23.8660 N.3   286  ILE286     -0.1231
     65  CA        22.9310   15.4940   23.1370 C.3   286  ILE286      0.1692
     66  C         23.3120   15.0610   21.6960 C.2   286  ILE286      0.2592
     67  O         24.0620   14.0790   21.5060 O.2   286  ILE286     -0.2718
     68  CB        24.1810   15.9750   23.8950 C.3   286  ILE286      0.0266
     69  CG1       23.7270   16.7500   25.1490 C.3   286  ILE286      0.0019
     70  CG2       25.0790   16.8020   23.0070 C.3   286  ILE286      0.0020
     71  CD1       24.8360   17.0440   26.1200 C.3   286  ILE286      0.0001
     72  N         22.7710   15.7710   20.6970 N.am  287  ALA287     -0.1966
     73  CA        23.0270   15.5350   19.2400 C.3   287  ALA287      0.1728
     74  C         24.5030   15.8380   18.8100 C.2   287  ALA287      0.2616
     75  O         25.0240   15.2220   17.8410 O.2   287  ALA287     -0.2715
     76  CB        22.0450   16.3470   18.3950 C.3   287  ALA287      0.0334
     77  N         25.1500   16.7840   19.5260 N.am  288  LEU288     -0.1963
     78  CA        26.5990   17.0830   19.3640 C.3   288  LEU288      0.1728
     79  C         27.1440   17.6610   20.7350 C.2   288  LEU288      0.2616
     80  O         26.5960   18.6720   21.2250 O.2   288  LEU288     -0.2715
     81  CB        26.8500   18.0710   18.2020 C.3   288  LEU288      0.0311
     82  CG        26.6270   17.5300   16.7900 C.3   288  LEU288      0.0022
     83  CD1       26.7780   18.6680   15.8080 C.3   288  LEU288      0.0001
     84  CD2       27.6090   16.4420   16.4400 C.3   288  LEU288      0.0001
     85  N         28.1420   16.9850   21.3590 N.am  289  ALA289     -0.1977
     86  CA        28.9850   17.5220   22.4170 C.3   289  ALA289      0.1597
     87  C         30.4460   17.5970   21.9620 C.2   289  ALA289      0.2287
     88  O         31.1880   16.6000   21.9590 O.2   289  ALA289     -0.2864
     89  CB        28.8390   16.8740   23.7950 C.3   289  ALA289      0.0319
     90  N         31.2660    0.4570   24.9050 N.3   310  LYS310     -0.1231
     91  CA        30.8110    1.1580   23.7200 C.3   310  LYS310      0.1693
     92  C         29.3160    0.9940   23.5450 C.2   310  LYS310      0.2593
     93  O         28.7770   -0.1070   23.6880 O.2   310  LYS310     -0.2718
     94  CB        31.5090    0.6390   22.4240 C.3   310  LYS310      0.0285
     95  CG        31.1850    1.4090   21.0840 C.3   310  LYS310      0.0035
     96  CD        31.7430    2.8830   21.2040 C.3   310  LYS310      0.0206
     97  CE        31.3820    3.6420   19.9370 C.3   310  LYS310      0.1093
     98  NZ        30.0600    4.3380   20.2230 N.3   310  LYS310     -0.1314
     99  N         28.6790    2.1230   23.3060 N.am  311  THR311     -0.1939
    100  CA        27.2360    2.1110   22.9450 C.3   311  THR311      0.2028
    101  C         27.0210    2.0420   21.4250 C.2   311  THR311      0.2643
    102  O         27.8800    2.3640   20.6100 O.2   311  THR311     -0.2714
    103  CB        26.5270    3.3610   23.4830 C.3   311  THR311      0.1808
    104  OG1       27.1240    4.5590   22.9160 O.3   311  THR311     -0.2208
    105  CG2       26.5430    3.3570   25.0120 C.3   311  THR311      0.0379
    106  N         25.8100    1.6390   21.0200 N.am  312  GLY312     -0.1939
    107  CA        25.5390    1.6400   19.5780 C.3   312  GLY312      0.2014
    108  C         24.0650    1.6330   19.2710 C.2   312  GLY312      0.2639
    109  O         23.3090    1.0900   20.0500 O.2   312  GLY312     -0.2714
    110  N         23.6740    2.3250   18.2180 N.am  313  ALA313     -0.1963
    111  CA        22.2700    2.3310   17.7770 C.3   313  ALA313      0.1728
    112  C         22.1780    2.3580   16.2920 C.2   313  ALA313      0.2616
    113  O         23.0690    2.7840   15.5690 O.2   313  ALA313     -0.2715
    114  CB        21.4670    3.4770   18.4260 C.3   313  ALA313      0.0334
    115  N         21.0970    1.7680   15.8040 N.am  314  THR314     -0.1951
    116  CA        20.6440    2.0940   14.4390 C.3   314  THR314      0.1897
    117  C         19.1510    2.5200   14.6300 C.2   314  THR314      0.2313
    118  O         18.6300    2.6780   15.7530 O.2   314  THR314     -0.2863
    119  CB        20.7610    0.8550   13.4820 C.3   314  THR314      0.1794
    120  OG1       19.9260   -0.2040   14.0150 O.3   314  THR314     -0.2208
    121  CG2       22.2180    0.3380   13.3200 C.3   314  THR314      0.0378
    122  N         15.8270    1.0410   19.6240 N.3   338  ASN338     -0.1240
    123  CA        16.8630    2.0150   20.0530 C.3   338  ASN338      0.1653
    124  C         16.2980    2.7960   21.2530 C.2   338  ASN338      0.2266
    125  O         15.5430    3.7490   21.0730 O.2   338  ASN338     -0.2867
    126  CB        17.1510    2.9590   18.9080 C.3   338  ASN338      0.1155
    127  CG        18.1520    4.0450   19.2530 C.2   338  ASN338      0.2627
    128  OD1       18.7180    4.0480   20.3340 O.2   338  ASN338     -0.2716
    129  ND2       18.3420    5.0040   18.3300 N.am  338  ASN338     -0.0877
    130  N         20.4350    5.5740   25.9070 N.3   341  ASN341     -0.1240
    131  CA        21.7120    5.0370   26.3740 C.3   341  ASN341      0.1653
    132  C         21.8380    4.9400   27.9110 C.2   341  ASN341      0.2266
    133  O         22.4330    3.9580   28.4350 O.2   341  ASN341     -0.2867
    134  CB        22.8460    5.9360   25.8870 C.3   341  ASN341      0.1155
    135  CG        23.2500    5.6520   24.4620 C.2   341  ASN341      0.2627
    136  OD1       23.0330    4.5410   23.9360 O.2   341  ASN341     -0.2716
    137  ND2       23.9200    6.6550   23.8290 N.am  341  ASN341     -0.0877
    138  N         20.6750    1.7440   29.2740 N.3   344  ARG344     -0.1245
    139  CA        21.6440    0.6450   29.0070 C.3   344  ARG344      0.1563
    140  C         22.7590    0.6010   30.0280 C.2   344  ARG344      0.2260
    141  O         23.0520   -0.4520   30.6070 O.2   344  ARG344     -0.2867
    142  CB        22.2430    0.7130   27.5330 C.3   344  ARG344      0.0307
    143  CG        21.1890    1.0030   26.5550 C.3   344  ARG344      0.0489
    144  CD        21.8260    1.0840   25.1490 C.3   344  ARG344      0.2205
    145  NE        20.9550    1.8150   24.2390 N.pl3 344  ARG344     -0.0865
    146  CZ        21.3050    2.0720   22.9910 C.cat 344  ARG344      0.5346
    147  NH1       22.4740    1.6780   22.5190 N.pl3 344  ARG344      0.1354
    148  NH2       20.4850    2.6620   22.2320 N.pl3 344  ARG344      0.1354
@<TRIPOS>BOND
     1    55    54    1
     2    18    17    1
     3    17    16    1
     4    54    52   ar
     5    54    53   ar
     6    52    50   ar
     7    53    51   ar
     8    19    16    1
     9    19    20    1
    10    16    15    1
    11    50    49   ar
    12    39    38    2
    13    51    49   ar
    14    38    37    1
    15    15     9   am
    16    20    21    1
    17    49    48    1
    18    40    37    1
    19    40    41    1
    20    21    22    2
    21    21    23   am
    22    44    45    1
    23    46    47    2
    24    46    45    1
    25    43    41   am
    26     9    10    2
    27     9     8    1
    28    37    36    1
    29    45    48    1
    30    41    42    2
    31     7     8    1
    32     8    11    1
    33   121   119    1
    34   119   120    1
    35   119   116    1
    36    11    12    1
    37    12    14    1
    38    12    13    1
    39   116   117    1
    40   116   115    1
    41   117   118    2
    42   113   112    2
    43   115   112   am
    44    83    82    1
    45    27    26    2
    46     1     2    1
    47     6     5    1
    48   112   111    1
    49    84    82    1
    50     2     5    1
    51     2     3    1
    52    26    25    1
    53    82    81    1
    54     3     4    2
    55    32    30   ar
    56    32    34   ar
    57    30    29   ar
    58   111   110    1
    59   111   114    1
    60    35    34    1
    61    75    74    2
    62    25    24    1
    63    25    28    1
    64    34    33   ar
    65    81    78    1
    66   110   108   am
    67   129   127   am
    68    76    73    1
    69    29    28    1
    70    29    31   ar
    71    74    73    1
    72    74    77   am
    73   126   127    1
    74   126   123    1
    75    33    31   ar
    76    73    72    1
    77   127   128    2
    78   108   107    1
    79   108   109    2
    80    78    77    1
    81    78    79    1
    82   107   106    1
    83   122   123    1
    84    97    98    1
    85    97    96    1
    86   123   124    1
    87   102   101    2
    88    72    66   am
    89    79    80    2
    90    79    85   am
    91   106   101   am
    92   125   124    2
    93    95    96    1
    94    95    94    1
    95    85    86    1
    96   101   100    1
    97    67    66    2
    98    66    65    1
    99    88    87    2
   100    87    86    1
   101   148   146    1
   102    86    89    1
   103    94    91    1
   104   147   146    1
   105   104   103    1
   106   100    99    1
   107   100   103    1
   108   146   145    2
   109    70    68    1
   110    65    64    1
   111    65    68    1
   112    99    92   am
   113   103   105    1
   114    92    93    2
   115    92    91    1
   116    91    90    1
   117   137   135   am
   118    68    69    1
   119   136   135    2
   120   145   144    1
   121   135   134    1
   122    59    58    2
   123    69    71    1
   124   144   143    1
   125    58    57    1
   126   134   131    1
   127   130   131    1
   128    63    61   ar
   129   131   132    1
   130   143   142    1
   131    57    56    1
   132    57    60    1
   133    61    60    1
   134    61    62   ar
   135   142   139    1
   136   132   133    2
   137   139   138    1
   138   139   140    1
   139   140   141    2
