@<TRIPOS>MOLECULE
tmp/4olhA00.pdb
 219 212 0 0 0
SMALL
GASTEIGER

@<TRIPOS>ATOM
      1  N         37.5200  -22.5750   -4.6740 N.3     9  HIS9       -0.1241
      2  CA        37.8950  -21.4350   -5.4680 C.3     9  HIS9        0.1621
      3  C         37.0980  -21.3370   -6.7800 C.2     9  HIS9        0.2264
      4  O         37.2020  -20.3310   -7.4610 O.2     9  HIS9       -0.2867
      5  CB        39.3740  -21.5660   -5.7720 C.3     9  HIS9        0.0745
      6  CG        39.6930  -22.7320   -6.6530 C.ar    9  HIS9        0.0817
      7  ND1       39.8900  -24.0080   -6.1620 N.ar    9  HIS9       -0.2268
      8  CD2       39.7670  -22.8300   -7.9990 C.ar    9  HIS9        0.1154
      9  CE1       40.0920  -24.8370   -7.1700 C.ar    9  HIS9        0.1986
     10  NE2       40.0260  -24.1460   -8.2950 N.ar    9  HIS9       -0.2212
     11  N         34.3470  -20.4630   -9.2260 N.3    11  ILE11      -0.1245
     12  CA        33.2520  -19.5170   -9.1880 C.3    11  ILE11       0.1561
     13  C         31.9860  -20.2660   -9.5920 C.2    11  ILE11       0.2260
     14  O         32.0320  -21.0640  -10.5620 O.2    11  ILE11      -0.2867
     15  CB        33.4250  -18.3550  -10.2080 C.3    11  ILE11       0.0252
     16  CG1       34.7930  -17.6400  -10.1040 C.3    11  ILE11       0.0019
     17  CG2       32.2640  -17.3650  -10.0970 C.3    11  ILE11       0.0019
     18  CD1       35.1280  -17.0810   -8.7420 C.3    11  ILE11       0.0001
     19  N         31.6400  -12.8600  -13.3070 N.3    24  TYR24      -0.1227
     20  CA        32.3190  -14.1110  -13.6660 C.3    24  TYR24       0.1736
     21  C         33.2870  -13.8010  -14.7920 C.2    24  TYR24       0.2595
     22  O         34.4530  -14.0620  -14.6680 O.2    24  TYR24      -0.2718
     23  CB        31.3200  -15.1550  -14.1440 C.3    24  TYR24       0.0548
     24  CG        31.8600  -16.5330  -14.4330 C.ar   24  TYR24      -0.0200
     25  CD1       32.4190  -16.8480  -15.6640 C.ar   24  TYR24      -0.0009
     26  CD2       31.7550  -17.5360  -13.5030 C.ar   24  TYR24      -0.0009
     27  CE1       32.8740  -18.1260  -15.9510 C.ar   24  TYR24       0.0417
     28  CE2       32.2190  -18.8240  -13.7730 C.ar   24  TYR24       0.0417
     29  CZ        32.7740  -19.1160  -15.0030 C.ar   24  TYR24       0.1957
     30  OH        33.2240  -20.3920  -15.2590 O.3    24  TYR24      -0.2866
     31  N         32.7700  -13.2180  -15.8680 N.am   25  GLU25      -0.1979
     32  CA        33.5470  -12.8490  -17.0630 C.3    25  GLU25       0.1602
     33  C         34.8060  -12.0340  -16.7110 C.2    25  GLU25       0.2287
     34  O         35.9050  -12.3350  -17.1760 O.2    25  GLU25      -0.2864
     35  CB        32.6300  -12.0400  -17.9900 C.3    25  GLU25       0.0415
     36  CG        32.4320  -12.5110  -19.4160 C.3    25  GLU25       0.1163
     37  CD        32.2170  -13.9990  -19.5910 C.2    25  GLU25       0.3649
     38  OE1       31.0770  -14.4170  -19.9220 O.co2  25  GLU25      -0.2457
     39  OE2       33.2270  -14.7340  -19.4830 O.co2  25  GLU25      -0.2457
     40  N         36.4310  -12.2470  -13.9940 N.3    27  ALA27      -0.1231
     41  CA        37.3660  -13.1320  -13.3330 C.3    27  ALA27       0.1694
     42  C         38.1200  -14.0570  -14.3130 C.2    27  ALA27       0.2592
     43  O         39.1110  -14.6970  -13.9120 O.2    27  ALA27      -0.2718
     44  CB        36.6340  -13.9680  -12.2930 C.3    27  ALA27       0.0304
     45  N         37.6610  -14.1540  -15.5670 N.am   28  VAL28      -0.1966
     46  CA        38.3480  -15.0320  -16.5280 C.3    28  VAL28       0.1712
     47  C         39.6220  -14.3580  -17.0340 C.2    28  VAL28       0.2458
     48  O         39.5660  -13.3330  -17.6660 O.2    28  VAL28      -0.2730
     49  CB        37.4610  -15.4760  -17.7030 C.3    28  VAL28       0.0289
     50  CG1       38.1870  -16.4670  -18.6300 C.3    28  VAL28       0.0023
     51  CG2       36.1710  -16.1250  -17.1790 C.3    28  VAL28       0.0023
     52  N         40.7910  -14.9480  -16.7590 N.am   29  PRO29      -0.2727
     53  CA        41.9820  -14.2630  -17.2720 C.3    29  PRO29       0.1402
     54  C         41.9430  -14.0960  -18.7540 C.2    29  PRO29       0.2269
     55  O         41.3450  -14.9100  -19.4740 O.2    29  PRO29      -0.2865
     56  CB        43.1170  -15.2090  -16.9040 C.3    29  PRO29       0.0296
     57  CG        42.5750  -15.9980  -15.7310 C.3    29  PRO29       0.0237
     58  CD        41.1310  -16.1920  -16.0460 C.3    29  PRO29       0.0939
     59  N         42.6420  -17.0380  -20.9160 N.3    32  GLU32      -0.1231
     60  CA        41.6820  -18.1330  -20.8710 C.3    32  GLU32       0.1699
     61  C         40.3890  -17.8460  -21.5790 C.2    32  GLU32       0.2592
     62  O         39.6110  -18.7470  -21.8030 O.2    32  GLU32      -0.2718
     63  CB        41.4000  -18.5000  -19.4080 C.3    32  GLU32       0.0402
     64  CG        42.7160  -18.6700  -18.6490 C.3    32  GLU32       0.1161
     65  CD        43.6600  -19.6310  -19.3340 C.2    32  GLU32       0.3649
     66  OE1       43.2150  -20.7990  -19.5560 O.co2  32  GLU32      -0.2457
     67  OE2       44.8120  -19.2080  -19.6500 O.co2  32  GLU32      -0.2457
     68  N         40.1720  -16.6080  -21.9610 N.am   33  LYS33      -0.1966
     69  CA        38.9240  -16.2190  -22.5790 C.3    33  LYS33       0.1728
     70  C         38.6140  -16.8300  -23.9350 C.2    33  LYS33       0.2616
     71  O         39.4730  -17.3930  -24.6320 O.2    33  LYS33      -0.2715
     72  CB        38.8450  -14.6880  -22.7000 C.3    33  LYS33       0.0311
     73  CG        38.7190  -13.9080  -21.3840 C.3    33  LYS33       0.0038
     74  CD        38.3300  -12.4460  -21.6980 C.3    33  LYS33       0.0206
     75  CE        38.7540  -11.4400  -20.6230 C.3    33  LYS33       0.1093
     76  NZ        38.0800  -11.6950  -19.2960 N.3    33  LYS33      -0.1314
     77  N         37.3320  -16.7240  -24.2670 N.am   34  SER34      -0.1950
     78  CA        36.8090  -16.9090  -25.6240 C.3    34  SER34       0.1924
     79  C         37.0980  -15.6390  -26.4180 C.2    34  SER34       0.2314
     80  O         36.6480  -14.5800  -26.0360 O.2    34  SER34      -0.2863
     81  CB        35.2700  -17.1400  -25.5720 C.3    34  SER34       0.2116
     82  OG        34.6500  -17.0090  -26.8370 O.3    34  SER34      -0.2180
     83  N         49.9500  -18.2070  -19.3440 N.3   179  GLY179     -0.1225
     84  CA        48.8360  -17.9680  -18.4960 C.3   179  GLY179      0.1811
     85  C         49.2440  -17.5180  -17.1140 C.2   179  GLY179      0.2280
     86  O         48.3760  -17.2060  -16.3290 O.2   179  GLY179     -0.2866
     87  N         50.7030  -19.4860  -14.9080 N.3   181  SER181     -0.1217
     88  CA        49.9280  -20.6430  -14.5250 C.3   181  SER181      0.1889
     89  C         50.7370  -21.8500  -14.0590 C.2   181  SER181      0.2288
     90  O         50.2270  -22.6190  -13.2780 O.2   181  SER181     -0.2866
     91  CB        49.1260  -21.0790  -15.7420 C.3   181  SER181      0.2089
     92  OG        48.5910  -22.3770  -15.5640 O.3   181  SER181     -0.2183
     93  N         49.0290  -12.2490  -18.7710 N.3   207  ASN207     -0.1240
     94  CA        47.9210  -11.8200  -17.9330 C.3   207  ASN207      0.1653
     95  C         48.4280  -10.7920  -16.9400 C.2   207  ASN207      0.2266
     96  O         49.6010  -10.8090  -16.5730 O.2   207  ASN207     -0.2867
     97  CB        47.3330  -12.9520  -17.1110 C.3   207  ASN207      0.1155
     98  CG        46.4670  -13.9090  -17.9160 C.2   207  ASN207      0.2627
     99  OD1       45.5700  -13.5140  -18.6510 O.2   207  ASN207     -0.2716
    100  ND2       46.7140  -15.1910  -17.7340 N.am  207  ASN207     -0.0877
    101  N         45.2520  -11.4180  -12.4100 N.3   211  MET211     -0.1230
    102  CA        44.5870  -12.5910  -12.9680 C.3   211  MET211      0.1702
    103  C         45.4970  -13.8200  -12.9980 C.2   211  MET211      0.2592
    104  O         45.1610  -14.7880  -13.6430 O.2   211  MET211     -0.2718
    105  CB        44.0910  -12.3010  -14.3830 C.3   211  MET211      0.0401
    106  CG        43.0290  -11.1980  -14.5350 C.3   211  MET211      0.0596
    107  SD        43.0310  -10.7670  -16.2910 S.3   211  MET211     -0.1393
    108  CE        41.3960  -10.0630  -16.5520 C.3   211  MET211      0.0692
    109  N         46.6630  -13.7700  -12.3370 N.am  212  ALA212     -0.1966
    110  CA        47.5460  -14.9190  -12.2450 C.3   212  ALA212      0.1728
    111  C         46.8680  -16.0600  -11.5350 C.2   212  ALA212      0.2616
    112  O         46.1340  -15.8310  -10.6260 O.2   212  ALA212     -0.2715
    113  CB        48.8140  -14.5740  -11.4800 C.3   212  ALA212      0.0334
    114  N         47.1890  -17.2930  -11.9170 N.am  213  ARG213     -0.1963
    115  CA        46.5880  -18.4910  -11.3140 C.3   213  ARG213      0.1729
    116  C         46.7370  -18.5230   -9.7810 C.2   213  ARG213      0.2616
    117  O         47.7860  -18.1780   -9.2350 O.2   213  ARG213     -0.2715
    118  CB        47.1920  -19.7340  -11.9550 C.3   213  ARG213      0.0348
    119  CG        46.5150  -20.9980  -11.5810 C.3   213  ARG213      0.0492
    120  CD        46.9140  -22.1170  -12.5220 C.3   213  ARG213      0.2205
    121  NE        46.3860  -23.4050  -12.0770 N.pl3 213  ARG213     -0.0865
    122  CZ        46.6500  -24.5800  -12.6380 C.cat 213  ARG213      0.5346
    123  NH1       47.4020  -24.6610  -13.6970 N.pl3 213  ARG213      0.1354
    124  NH2       46.1400  -25.6850  -12.1380 N.pl3 213  ARG213      0.1354
    125  N         45.6650  -18.9150   -9.1030 N.am  214  ASN214     -0.1958
    126  CA        45.5610  -18.8420   -7.6500 C.3   214  ASN214      0.1819
    127  C         44.9880  -20.0650   -6.9690 C.2   214  ASN214      0.2621
    128  O         44.7520  -20.0140   -5.8100 O.2   214  ASN214     -0.2715
    129  CB        44.7240  -17.6130   -7.2690 C.3   214  ASN214      0.1195
    130  CG        45.0550  -17.0630   -5.8740 C.2   214  ASN214      0.2630
    131  OD1       46.2010  -16.9940   -5.4320 O.2   214  ASN214     -0.2716
    132  ND2       44.0260  -16.6700   -5.1820 N.am  214  ASN214     -0.0877
    133  N         44.7930  -21.1810   -7.6510 N.am  215  ASP215     -0.1971
    134  CA        44.4290  -22.4370   -6.9600 C.3   215  ASP215      0.1709
    135  C         45.6960  -23.1060   -6.4620 C.2   215  ASP215      0.2293
    136  O         46.7000  -23.0460   -7.1260 O.2   215  ASP215     -0.2864
    137  CB        43.6490  -23.4350   -7.8650 C.3   215  ASP215      0.1436
    138  CG        44.3810  -23.7610   -9.1520 C.2   215  ASP215      0.3671
    139  OD1       44.7830  -22.7610   -9.8020 O.co2 215  ASP215     -0.2456
    140  OD2       44.5400  -24.9640   -9.5440 O.co2 215  ASP215     -0.2456
    141  N         35.9220  -23.3660  -29.0950 N.3   483  HIS483     -0.1241
    142  CA        36.4230  -24.1970  -28.0120 C.3   483  HIS483      0.1621
    143  C         36.7590  -25.6050  -28.5160 C.2   483  HIS483      0.2264
    144  O         36.0230  -26.1920  -29.3340 O.2   483  HIS483     -0.2867
    145  CB        35.3450  -24.3070  -26.9190 C.3   483  HIS483      0.0745
    146  CG        35.0090  -22.9980  -26.2610 C.ar  483  HIS483      0.0817
    147  ND1       35.8770  -22.3460  -25.4090 N.ar  483  HIS483     -0.2268
    148  CD2       33.9040  -22.2180  -26.3370 C.ar  483  HIS483      0.1154
    149  CE1       35.3290  -21.2260  -24.9890 C.ar  483  HIS483      0.1986
    150  NE2       34.1240  -21.1300  -25.5230 N.ar  483  HIS483     -0.2212
    151  N         45.2970  -27.7260  -15.1840 N.3   493  LYS493     -0.1245
    152  CA        44.7550  -26.5880  -15.9260 C.3   493  LYS493      0.1561
    153  C         43.6690  -27.0270  -16.9230 C.2   493  LYS493      0.2260
    154  O         42.5850  -26.4320  -17.0080 O.2   493  LYS493     -0.2867
    155  CB        45.8890  -25.8080  -16.6130 C.3   493  LYS493      0.0271
    156  CG        45.4310  -24.7600  -17.6130 C.3   493  LYS493      0.0035
    157  CD        46.6260  -24.0040  -18.1800 C.3   493  LYS493      0.0206
    158  CE        47.3700  -24.8220  -19.2270 C.3   493  LYS493      0.1093
    159  NZ        48.5740  -24.1030  -19.7070 N.3   493  LYS493     -0.1314
    160  N         40.7570  -27.8440  -15.0330 N.3   496  TRP496     -0.1227
    161  CA        39.9300  -26.6990  -14.6540 C.3   496  TRP496      0.1737
    162  C         39.1780  -26.1500  -15.8460 C.2   496  TRP496      0.2595
    163  O         38.0500  -25.7000  -15.7340 O.2   496  TRP496     -0.2718
    164  CB        40.7520  -25.6340  -13.9580 C.3   496  TRP496      0.0564
    165  CG        41.2820  -26.0950  -12.6510 C.ar  496  TRP496      0.0003
    166  CD1       42.5790  -26.1600  -12.2690 C.ar  496  TRP496      0.0946
    167  CD2       40.5080  -26.5310  -11.5530 C.ar  496  TRP496      0.0152
    168  NE1       42.6650  -26.5990  -10.9890 N.ar  496  TRP496     -0.2442
    169  CE2       41.4040  -26.8580  -10.5250 C.ar  496  TRP496      0.0810
    170  CE3       39.1220  -26.6890  -11.3380 C.ar  496  TRP496      0.0012
    171  CZ2       40.9790  -27.3300   -9.2830 C.ar  496  TRP496      0.0191
    172  CZ3       38.6890  -27.1690  -10.1190 C.ar  496  TRP496      0.0001
    173  CH2       39.6270  -27.4860   -9.0980 C.ar  496  TRP496      0.0015
    174  N         39.7710  -26.2580  -17.0070 N.am  497  ARG497     -0.1980
    175  CA        39.1020  -25.8680  -18.2370 C.3   497  ARG497      0.1597
    176  C         37.8840  -26.7710  -18.5600 C.2   497  ARG497      0.2287
    177  O         36.7920  -26.2990  -18.9040 O.2   497  ARG497     -0.2864
    178  CB        40.1360  -25.8620  -19.3590 C.3   497  ARG497      0.0334
    179  CG        39.6770  -25.3330  -20.7240 C.3   497  ARG497      0.0492
    180  CD        40.8690  -24.6730  -21.4230 C.3   497  ARG497      0.2205
    181  NE        40.3160  -23.6460  -22.2290 N.pl3 497  ARG497     -0.0865
    182  CZ        40.4260  -22.3460  -22.0610 C.cat 497  ARG497      0.5346
    183  NH1       41.1970  -21.7800  -21.1620 N.pl3 497  ARG497      0.1354
    184  NH2       39.7720  -21.6000  -22.8800 N.pl3 497  ARG497      0.1354
    185  N         35.0480  -25.6860  -16.4000 N.3   500  ALA500     -0.1231
    186  CA        34.5260  -24.4380  -16.8890 C.3   500  ALA500      0.1694
    187  C         33.7330  -24.6610  -18.1460 C.2   500  ALA500      0.2591
    188  O         32.6970  -24.0210  -18.3300 O.2   500  ALA500     -0.2718
    189  CB        35.6440  -23.4290  -17.1670 C.3   500  ALA500      0.0304
    190  N         34.2260  -25.4990  -19.0540 N.am  501  MET501     -0.1979
    191  CA        33.4380  -25.7280  -20.2500 C.3   501  MET501      0.1605
    192  C         32.0680  -26.3250  -19.9010 C.2   501  MET501      0.2287
    193  O         31.0880  -25.9770  -20.5280 O.2   501  MET501     -0.2864
    194  CB        34.1840  -26.5560  -21.2580 C.3   501  MET501      0.0413
    195  CG        35.3060  -25.7760  -21.9060 C.3   501  MET501      0.0598
    196  SD        35.9510  -26.6680  -23.3180 S.3   501  MET501     -0.1393
    197  CE        36.9050  -27.9240  -22.5150 C.3   501  MET501      0.0692
    198  N         29.7280  -23.4290  -18.5230 N.3   504  ARG504     -0.1231
    199  CA        29.3840  -22.5300  -19.6110 C.3   504  ARG504      0.1694
    200  C         28.3890  -23.1690  -20.5800 C.2   504  ARG504      0.2592
    201  O         27.3130  -22.6410  -20.7520 O.2   504  ARG504     -0.2718
    202  CB        30.6380  -22.0130  -20.3160 C.3   504  ARG504      0.0321
    203  CG        30.4260  -21.3240  -21.6760 C.3   504  ARG504      0.0489
    204  CD        30.3910  -19.8310  -21.6170 C.3   504  ARG504      0.2205
    205  NE        31.6050  -19.2570  -21.0440 N.pl3 504  ARG504     -0.0865
    206  CZ        31.7330  -17.9950  -20.6550 C.cat 504  ARG504      0.5346
    207  NH1       30.7410  -17.1340  -20.7930 N.pl3 504  ARG504      0.1354
    208  NH2       32.8650  -17.5950  -20.1000 N.pl3 504  ARG504      0.1354
    209  N         28.7350  -24.2850  -21.1980 N.am  505  PHE505     -0.1976
    210  CA        27.8210  -24.9590  -22.1290 C.3   505  PHE505      0.1639
    211  C         26.5290  -25.5020  -21.4930 C.2   505  PHE505      0.2290
    212  O         25.5040  -25.5300  -22.1510 O.2   505  PHE505     -0.2864
    213  CB        28.5470  -26.0870  -22.8850 C.3   505  PHE505      0.0560
    214  CG        29.5100  -25.5900  -23.9310 C.ar  505  PHE505     -0.0200
    215  CD1       29.0510  -24.9790  -25.0630 C.ar  505  PHE505     -0.0042
    216  CD2       30.8760  -25.7240  -23.7710 C.ar  505  PHE505     -0.0042
    217  CE1       29.9250  -24.5090  -26.0330 C.ar  505  PHE505     -0.0003
    218  CE2       31.7560  -25.2480  -24.7280 C.ar  505  PHE505     -0.0003
    219  CZ        31.2770  -24.6350  -25.8660 C.ar  505  PHE505     -0.0000
@<TRIPOS>BOND
     1   144   143    2
     2   141   142    1
     3   143   142    1
     4   142   145    1
     5   145   146    1
     6    82    81    1
     7    79    80    2
     8    79    78    1
     9   148   146   ar
    10   148   150   ar
    11   146   147   ar
    12   217   219   ar
    13   217   215   ar
    14   219   218   ar
    15    78    81    1
    16    78    77    1
    17   150   149   ar
    18   147   149   ar
    19   215   214   ar
    20   218   216   ar
    21    71    70    2
    22    77    70   am
    23    70    69    1
    24   214   216   ar
    25   214   213    1
    26   196   197    1
    27   196   195    1
    28   213   210    1
    29   184   182    1
    30    72    69    1
    31    72    73    1
    32    69    68    1
    33   181   182    2
    34   181   180    1
    35   212   211    2
    36   210   211    1
    37   210   209    1
    38   182   183    1
    39    68    61   am
    40   195   194    1
    41    62    61    2
    42    74    73    1
    43    74    75    1
    44   203   204    1
    45   203   202    1
    46   204   205    1
    47    61    60    1
    48   180   179    1
    49   194   191    1
    50   209   200   am
    51   205   206    2
    52    59    60    1
    53    60    63    1
    54   207   206    1
    55   201   200    2
    56   179   178    1
    57   206   208    1
    58    75    76    1
    59   200   199    1
    60   193   192    2
    61   202   199    1
    62   191   192    1
    63   191   190    1
    64    38    37   ar
    65   159   158    1
    66    67    65   ar
    67   199   198    1
    68    37    39   ar
    69    37    36    1
    70    66    65   ar
    71    55    54    2
    72    36    35    1
    73    63    64    1
    74   178   175    1
    75    83    84    1
    76    65    64    1
    77   158   157    1
    78   190   187   am
    79   177   176    2
    80    93    94    1
    81    54    53    1
    82    99    98    2
    83    50    49    1
    84   176   175    1
    85    84    85    1
    86   188   187    2
    87   175   174    1
    88   157   156    1
    89   187   186    1
    90    35    32    1
    91    94    97    1
    92    94    95    1
    93    98   100   am
    94    98    97    1
    95    49    51    1
    96    49    46    1
    97    48    47    2
    98   156   155    1
    99    53    56    1
   100    53    52    1
   101    34    33    2
   102   189   186    1
   103    85    86    2
   104    32    33    1
   105    32    31    1
   106    47    52   am
   107    47    46    1
   108   154   153    2
   109   174   162   am
   110    95    96    2
   111   153   152    1
   112    56    57    1
   113   186   185    1
   114    52    58    1
   115   155   152    1
   116   108   107    1
   117    46    45    1
   118   107   106    1
   119    58    57    1
   120    27    25   ar
   121    27    29   ar
   122   152   151    1
   123    31    21   am
   124   162   163    2
   125   162   161    1
   126    91    92    1
   127    91    88    1
   128    25    24   ar
   129    45    42   am
   130    30    29    1
   131   160   161    1
   132    29    28   ar
   133    87    88    1
   134    21    22    2
   135    21    20    1
   136   161   164    1
   137   106   105    1
   138    88    89    1
   139    24    23    1
   140    24    26   ar
   141   105   102    1
   142    42    43    2
   143    42    41    1
   144    23    20    1
   145    89    90    2
   146    40    41    1
   147   164   165    1
   148    28    26   ar
   149   123   122    1
   150    20    19    1
   151   104   103    2
   152    41    44    1
   153   103   102    1
   154   103   109   am
   155   102   101    1
   156   165   166   ar
   157   165   167   ar
   158   122   124    1
   159   122   121    2
   160   120   121    1
   161   120   119    1
   162   109   110    1
   163   166   168   ar
   164   110   111    1
   165   110   113    1
   166   118   119    1
   167   118   115    1
   168   114   111   am
   169   114   115    1
   170   167   170   ar
   171   167   169   ar
   172   111   112    2
   173   170   172   ar
   174   115   116    1
   175   168   169   ar
   176    14    13    2
   177   169   171   ar
   178    15    16    1
   179    15    17    1
   180    15    12    1
   181   172   173   ar
   182    16    18    1
   183   139   138   ar
   184   116   117    2
   185   116   125   am
   186    13    12    1
   187   140   138   ar
   188   171   173   ar
   189    11    12    1
   190   138   137    1
   191   125   126    1
   192    10     8   ar
   193    10     9   ar
   194     8     6   ar
   195   137   134    1
   196   133   127   am
   197   133   134    1
   198   126   129    1
   199   126   127    1
   200     4     3    2
   201   129   130    1
   202     9     7   ar
   203   136   135    2
   204   127   128    2
   205   134   135    1
   206     3     2    1
   207     6     7   ar
   208     6     5    1
   209   130   131    2
   210   130   132   am
   211     5     2    1
   212     2     1    1
