@<TRIPOS>MOLECULE
tmp/4oliA00.pdb
 146 141 0 0 0
SMALL
GASTEIGER

@<TRIPOS>ATOM
      1  N        -23.8750   24.5840   44.4550 N.3    17  LEU17      -0.1231
      2  CA       -25.3200   24.7100   44.6590 C.3    17  LEU17       0.1693
      3  C        -25.8580   23.5850   45.5750 C.2    17  LEU17       0.2593
      4  O        -26.7720   23.8080   46.3500 O.2    17  LEU17      -0.2718
      5  CB       -26.0550   24.7580   43.3000 C.3    17  LEU17       0.0284
      6  CG       -25.7230   25.9420   42.3490 C.3    17  LEU17       0.0019
      7  CD1      -26.3190   25.7260   40.9730 C.3    17  LEU17       0.0001
      8  CD2      -26.1450   27.2680   42.9320 C.3    17  LEU17       0.0001
      9  N        -25.2500   22.4140   45.5260 N.am   18  GLY18      -0.1942
     10  CA       -25.6480   21.2910   46.3570 C.3    18  GLY18       0.2014
     11  C        -25.1210   19.9830   45.8220 C.2    18  GLY18       0.2639
     12  O        -24.2350   19.9640   44.9600 O.2    18  GLY18      -0.2714
     13  N        -25.6940   18.8830   46.3100 N.am   19  GLN19      -0.1963
     14  CA       -25.2900   17.5380   45.9370 C.3    19  GLN19       0.1733
     15  C        -26.4610   16.6720   45.5210 C.2    19  GLN19       0.2616
     16  O        -27.5620   16.7890   46.0900 O.2    19  GLN19      -0.2715
     17  CB       -24.6200   16.8420   47.1160 C.3    19  GLN19       0.0408
     18  CG       -23.5650   17.6360   47.8610 C.3    19  GLN19       0.0908
     19  CD       -22.8920   16.7820   48.9100 C.2    19  GLN19       0.2608
     20  OE1      -21.7710   17.0830   49.3460 O.2    19  GLN19      -0.2717
     21  NE2      -23.5330   15.6680   49.3030 N.am   19  GLN19      -0.0878
     22  N        -26.1830   15.7950   44.5450 N.am   20  GLY20      -0.1955
     23  CA       -27.0780   14.7620   44.0300 C.3    20  GLY20       0.1869
     24  C        -26.4130   13.4310   44.3250 C.2    20  GLY20       0.2309
     25  O        -25.3470   13.4190   44.9620 O.2    20  GLY20      -0.2863
     26  N        -23.2190   19.6630   42.3520 N.3    25  VAL25      -0.1245
     27  CA       -23.7280   20.6370   41.3740 C.3    25  VAL25       0.1561
     28  C        -23.1780   22.0190   41.6560 C.2    25  VAL25       0.2260
     29  O        -23.1500   22.4570   42.8180 O.2    25  VAL25      -0.2867
     30  CB       -25.2800   20.5880   41.1750 C.3    25  VAL25       0.0252
     31  CG1      -25.7220   21.4330   39.9920 C.3    25  VAL25       0.0019
     32  CG2      -25.7680   19.1500   40.9910 C.3    25  VAL25       0.0019
     33  N        -24.8640   25.1720   34.5950 N.3    37  VAL37      -0.1245
     34  CA       -24.6290   24.4430   35.8390 C.3    37  VAL37       0.1561
     35  C        -23.7040   23.3290   35.4610 C.2    37  VAL37       0.2260
     36  O        -23.8110   22.8160   34.3530 O.2    37  VAL37      -0.2867
     37  CB       -25.8510   23.9120   36.6670 C.3    37  VAL37       0.0252
     38  CG1      -26.6450   25.0380   37.2990 C.3    37  VAL37       0.0019
     39  CG2      -26.7510   23.0030   35.8470 C.3    37  VAL37       0.0019
     40  N        -22.6470   19.6030   36.7090 N.3    39  LYS39      -0.1245
     41  CA       -22.8910   18.4540   37.5800 C.3    39  LYS39       0.1561
     42  C        -21.5720   17.6870   37.5320 C.2    39  LYS39       0.2260
     43  O        -21.1800   17.1810   36.4680 O.2    39  LYS39      -0.2867
     44  CB       -24.0620   17.6030   37.0400 C.3    39  LYS39       0.0271
     45  CG       -24.7950   16.7600   38.0880 C.3    39  LYS39       0.0035
     46  CD       -26.1650   16.2350   37.5690 C.3    39  LYS39       0.0206
     47  CE       -27.2820   16.2220   38.6190 C.3    39  LYS39       0.1093
     48  NZ       -27.1630   15.1070   39.6640 N.3    39  LYS39      -0.1314
     49  N        -25.1960   21.6330   31.8910 N.3    84  THR84      -0.1203
     50  CA       -26.6380   21.7230   31.8370 C.3    84  THR84       0.1994
     51  C        -27.0660   23.1940   31.8800 C.2    84  THR84       0.2618
     52  O        -26.2760   24.0930   32.2100 O.2    84  THR84      -0.2717
     53  CB       -27.1900   20.8280   32.9800 C.3    84  THR84       0.1784
     54  OG1      -26.9940   19.4820   32.5850 O.3    84  THR84      -0.2211
     55  CG2      -28.6830   21.0490   33.3100 C.3    84  THR84       0.0376
     56  N        -28.3230   23.4140   31.4930 N.am   85  GLU85      -0.1965
     57  CA       -29.0280   24.6740   31.5290 C.3    85  GLU85       0.1733
     58  C        -29.1960   25.1100   33.0050 C.2    85  GLU85       0.2616
     59  O        -29.6200   24.3110   33.8550 O.2    85  GLU85      -0.2715
     60  CB       -30.4060   24.4710   30.8670 C.3    85  GLU85       0.0429
     61  CG       -31.0690   25.7570   30.4140 C.3    85  GLU85       0.1163
     62  CD       -32.5260   25.6480   30.0280 C.2    85  GLU85       0.3649
     63  OE1      -32.9350   24.6060   29.4650 O.co2  85  GLU85      -0.2457
     64  OE2      -33.2480   26.6490   30.2270 O.co2  85  GLU85      -0.2457
     65  N        -28.8240   26.3590   33.3040 N.am   86  TYR86      -0.1960
     66  CA       -28.9760   26.9730   34.6360 C.3    86  TYR86       0.1771
     67  C        -30.3950   27.5760   34.6530 C.2    86  TYR86       0.2619
     68  O        -30.7340   28.3560   33.7560 O.2    86  TYR86      -0.2715
     69  CB       -27.8970   28.0440   34.8930 C.3    86  TYR86       0.0574
     70  CG       -28.0840   28.7940   36.1920 C.ar   86  TYR86      -0.0198
     71  CD1      -27.2850   28.5230   37.3040 C.ar   86  TYR86      -0.0009
     72  CD2      -29.0240   29.8120   36.2990 C.ar   86  TYR86      -0.0009
     73  CE1      -27.4570   29.2120   38.5020 C.ar   86  TYR86       0.0417
     74  CE2      -29.1810   30.5310   37.4760 C.ar   86  TYR86       0.0417
     75  CZ       -28.4150   30.2100   38.5830 C.ar   86  TYR86       0.1957
     76  OH       -28.6220   30.9290   39.7290 O.3    86  TYR86      -0.2866
     77  N        -31.2220   27.1930   35.6490 N.am   87  VAL87      -0.1963
     78  CA       -32.5960   27.6670   35.7770 C.3    87  VAL87       0.1727
     79  C        -32.7050   28.5500   37.0120 C.2    87  VAL87       0.2616
     80  O        -32.2870   28.1710   38.0980 O.2    87  VAL87      -0.2715
     81  CB       -33.6100   26.5090   35.7280 C.3    87  VAL87       0.0290
     82  CG1      -34.9780   26.9740   36.1770 C.3    87  VAL87       0.0023
     83  CG2      -33.6930   25.8740   34.3330 C.3    87  VAL87       0.0023
     84  N        -33.2010   29.7680   36.8080 N.am   88  GLU88      -0.1963
     85  CA       -33.2760   30.8850   37.7410 C.3    88  GLU88       0.1733
     86  C        -33.6390   30.5660   39.1930 C.2    88  GLU88       0.2616
     87  O        -32.8880   30.9430   40.1100 O.2    88  GLU88      -0.2715
     88  CB       -34.1310   32.0090   37.1390 C.3    88  GLU88       0.0429
     89  CG       -34.0570   33.3510   37.8480 C.3    88  GLU88       0.1163
     90  CD       -32.7810   34.1600   37.7230 C.2    88  GLU88       0.3649
     91  OE1      -32.0230   33.9450   36.7500 O.co2  88  GLU88      -0.2457
     92  OE2      -32.5700   35.0560   38.5710 O.co2  88  GLU88      -0.2457
     93  N        -34.7680   29.8830   39.3980 N.am   89  HIS89      -0.1959
     94  CA       -35.3000   29.5940   40.7320 C.3    89  HIS89       0.1787
     95  C        -34.9700   28.2420   41.3000 C.2    89  HIS89       0.2621
     96  O        -35.1980   28.0050   42.4880 O.2    89  HIS89      -0.2715
     97  CB       -36.7480   30.0320   40.8540 C.3    89  HIS89       0.0785
     98  CG       -36.9350   31.4100   40.2870 C.ar   89  HIS89       0.0821
     99  ND1      -36.5580   32.5560   41.0070 N.ar   89  HIS89      -0.2267
    100  CD2      -37.3570   31.7870   39.0590 C.ar   89  HIS89       0.1154
    101  CE1      -36.8230   33.5720   40.2050 C.ar   89  HIS89       0.1986
    102  NE2      -37.2920   33.1550   39.0170 N.ar   89  HIS89      -0.2212
    103  N        -34.2920   27.4380   40.4850 N.am   90  GLY90      -0.1940
    104  CA       -33.7270   26.1500   40.8660 C.3    90  GLY90       0.1998
    105  C        -34.7000   25.0740   41.2810 C.2    90  GLY90       0.2480
    106  O        -35.8860   25.1420   40.9210 O.2    90  GLY90      -0.2729
    107  N        -34.2110   24.0610   42.0590 N.am   91  PRO91      -0.2726
    108  CA       -35.0910   22.9330   42.4600 C.3    91  PRO91       0.1402
    109  C        -36.4500   23.3150   43.0370 C.2    91  PRO91       0.2269
    110  O        -36.5490   24.1330   43.9480 O.2    91  PRO91      -0.2865
    111  CB       -34.2260   22.1430   43.4350 C.3    91  PRO91       0.0296
    112  CG       -32.8310   22.4610   43.0600 C.3    91  PRO91       0.0237
    113  CD       -32.8210   23.8570   42.5310 C.3    91  PRO91       0.0939
    114  N        -36.8880   17.7650   43.1210 N.3   135  ARG135     -0.1231
    115  CA       -35.5210   18.2880   43.0570 C.3   135  ARG135      0.1694
    116  C        -35.0470   18.3480   41.6230 C.2   135  ARG135      0.2592
    117  O        -34.2820   19.2370   41.2830 O.2   135  ARG135     -0.2718
    118  CB       -34.5590   17.4540   43.9110 C.3   135  ARG135      0.0321
    119  CG       -33.0810   17.9130   43.9130 C.3   135  ARG135      0.0489
    120  CD       -32.7400   19.1560   44.7500 C.3   135  ARG135      0.2205
    121  NE       -33.4540   19.2200   46.0270 N.pl3 135  ARG135     -0.0865
    122  CZ       -33.0450   18.6160   47.1330 C.cat 135  ARG135      0.5346
    123  NH1      -31.9170   17.9120   47.1350 N.pl3 135  ARG135      0.1354
    124  NH2      -33.7650   18.7000   48.2440 N.pl3 135  ARG135      0.1354
    125  N        -35.4820   17.4070   40.7800 N.am  136  ASN136     -0.1974
    126  CA       -35.0820   17.3600   39.3730 C.3   136  ASN136      0.1688
    127  C        -35.9780   18.1820   38.4550 C.2   136  ASN136      0.2292
    128  O        -35.8890   18.0440   37.2390 O.2   136  ASN136     -0.2864
    129  CB       -34.9010   15.9200   38.8840 C.3   136  ASN136      0.1181
    130  CG       -33.5870   15.3350   39.3150 C.2   136  ASN136      0.2629
    131  OD1      -32.5560   16.0140   39.4080 O.2   136  ASN136     -0.2716
    132  ND2      -33.5710   14.0530   39.5340 N.am  136  ASN136     -0.0877
    133  N        -36.9380   22.1620   37.7240 N.3   138  LEU138     -0.1245
    134  CA       -36.4120   23.5070   37.9500 C.3   138  LEU138      0.1561
    135  C        -37.3960   24.5870   37.5740 C.2   138  LEU138      0.2260
    136  O        -37.9960   24.5140   36.5130 O.2   138  LEU138     -0.2867
    137  CB       -35.0770   23.7150   37.1980 C.3   138  LEU138      0.0270
    138  CG       -34.0510   22.5930   37.2420 C.3   138  LEU138      0.0019
    139  CD1      -33.1780   22.6650   36.0660 C.3   138  LEU138      0.0001
    140  CD2      -33.3160   22.5100   38.6370 C.3   138  LEU138      0.0001
    141  N        -35.1690   18.5760   34.7300 N.3   155  SER155     -0.1217
    142  CA       -33.7170   18.4220   34.6640 C.3   155  SER155      0.1889
    143  C        -33.3010   16.9930   34.4240 C.2   155  SER155      0.2288
    144  O        -34.1330   16.1010   34.4300 O.2   155  SER155     -0.2866
    145  CB       -33.0900   18.9300   35.9600 C.3   155  SER155      0.2089
    146  OG       -31.7570   19.3840   35.7810 O.3   155  SER155     -0.2183
@<TRIPOS>BOND
     1    63    62   ar
     2    62    64   ar
     3    62    61    1
     4    61    60    1
     5    60    57    1
     6    56    57    1
     7    56    51   am
     8    57    58    1
     9    50    51    1
    10    50    49    1
    11    50    53    1
    12    51    52    2
    13    54    53    1
    14    53    55    1
    15    58    65   am
    16    58    59    2
    17    65    66    1
    18    68    67    2
    19    83    81    1
    20    36    35    2
    21   143   144    2
    22   143   142    1
    23    33    34    1
    24    66    67    1
    25    66    69    1
    26    67    77   am
    27   142   141    1
    28   142   145    1
    29    69    70    1
    30    35    34    1
    31    77    78    1
    32    81    78    1
    33    81    82    1
    34    78    79    1
    35   146   145    1
    36    34    37    1
    37    39    37    1
    38   139   138    1
    39    70    72   ar
    40    70    71   ar
    41    72    74   ar
    42    43    42    2
    43   136   135    2
    44    37    38    1
    45    40    41    1
    46    91    90   ar
    47    84    79   am
    48    84    85    1
    49    79    80    2
    50    44    41    1
    51    44    45    1
    52    88    85    1
    53    88    89    1
    54   137   138    1
    55   137   134    1
    56   128   127    2
    57   138   140    1
    58    71    73   ar
    59    74    75   ar
    60    42    41    1
    61    46    45    1
    62    46    47    1
    63   135   134    1
    64    90    89    1
    65    90    92   ar
    66   133   134    1
    67    85    86    1
    68   127   126    1
    69    73    75   ar
    70    75    76    1
    71    47    48    1
    72   129   130    1
    73   129   126    1
    74   102   100   ar
    75   102   101   ar
    76   100    98   ar
    77    86    93   am
    78    86    87    2
    79   130   131    2
    80   130   132   am
    81   126   125    1
    82    93    94    1
    83    31    30    1
    84   101    99   ar
    85    98    97    1
    86    98    99   ar
    87   103   104    1
    88   103    95   am
    89    94    97    1
    90    94    95    1
    91   125   116   am
    92   104   105    1
    93   106   105    2
    94     7     6    1
    95    32    30    1
    96    30    27    1
    97   105   107   am
    98   117   116    2
    99    95    96    2
   100    27    28    1
   101    27    26    1
   102   116   115    1
   103    28    29    2
   104   107   108    1
   105   107   113    1
   106     6     8    1
   107     6     5    1
   108   108   109    1
   109   108   111    1
   110   113   112    1
   111   109   110    2
   112   115   114    1
   113   115   118    1
   114   112   111    1
   115     5     2    1
   116   118   119    1
   117   119   120    1
   118    23    24    1
   119    23    22    1
   120    24    25    2
   121     1     2    1
   122    22    15   am
   123     2     3    1
   124   120   121    1
   125    12    11    2
   126    15    14    1
   127    15    16    2
   128     9     3   am
   129     9    10    1
   130     3     4    2
   131    11    13   am
   132    11    10    1
   133    14    13    1
   134    14    17    1
   135   121   122    2
   136    17    18    1
   137   122   123    1
   138   122   124    1
   139    18    19    1
   140    19    21   am
   141    19    20    2
