@<TRIPOS>MOLECULE
tmp/4oliA01.pdb
 186 177 0 0 0
SMALL
GASTEIGER

@<TRIPOS>ATOM
      1  N        -22.4470   16.1700   22.8360 N.3     4  HIS4       -0.1241
      2  CA       -21.4640   17.1080   22.3100 C.3     4  HIS4        0.1621
      3  C        -20.2160   17.1360   23.2080 C.2     4  HIS4        0.2264
      4  O        -20.3150   16.9220   24.4110 O.2     4  HIS4       -0.2867
      5  CB       -22.1350   18.4860   22.1690 C.3     4  HIS4        0.0745
      6  CG       -21.2160   19.6550   22.0290 C.ar    4  HIS4        0.0817
      7  ND1      -20.6910   20.0140   20.8040 N.ar    4  HIS4       -0.2268
      8  CD2      -20.8230   20.5600   22.9580 C.ar    4  HIS4        0.1154
      9  CE1      -19.9680   21.1010   21.0310 C.ar    4  HIS4        0.1986
     10  NE2      -20.0170   21.4680   22.3120 N.ar    4  HIS4       -0.2212
     11  N        -24.4330   27.6160   19.8860 N.3   277  ARG277     -0.1245
     12  CA       -23.3000   27.1120   19.1090 C.3   277  ARG277      0.1563
     13  C        -23.5850   27.1740   17.6080 C.2   277  ARG277      0.2260
     14  O        -24.6930   27.5230   17.2080 O.2   277  ARG277     -0.2867
     15  CB       -22.8290   25.7030   19.5790 C.3   277  ARG277      0.0307
     16  CG       -23.8570   24.5760   19.5580 C.3   277  ARG277      0.0489
     17  CD       -23.1790   23.2250   19.7750 C.3   277  ARG277      0.2205
     18  NE       -24.1380   22.1200   19.8950 N.pl3 277  ARG277     -0.0865
     19  CZ       -24.7700   21.7840   21.0230 C.cat 277  ARG277      0.5346
     20  NH1      -24.5610   22.4730   22.1440 N.pl3 277  ARG277      0.1354
     21  NH2      -25.6240   20.7680   21.0340 N.pl3 277  ARG277      0.1354
     22  N        -23.8230   25.1270   13.9670 N.3   279  LEU279     -0.1231
     23  CA       -24.2490   23.7600   13.6530 C.3   279  LEU279      0.1693
     24  C        -23.6910   23.1730   12.3880 C.2   279  LEU279      0.2593
     25  O        -23.7730   21.9560   12.2120 O.2   279  LEU279     -0.2718
     26  CB       -25.7890   23.5710   13.7390 C.3   279  LEU279      0.0284
     27  CG       -26.4780   23.9560   15.0350 C.3   279  LEU279      0.0019
     28  CD1      -27.9270   24.0750   14.8180 C.3   279  LEU279      0.0001
     29  CD2      -26.1870   22.9750   16.1430 C.3   279  LEU279      0.0001
     30  N        -23.1150   24.0160   11.5390 N.am  280  GLY280     -0.1942
     31  CA       -22.5040   23.5910   10.2880 C.3   280  GLY280      0.2014
     32  C        -22.6090   24.6090    9.1770 C.2   280  GLY280      0.2639
     33  O        -23.3930   25.5650    9.2640 O.2   280  GLY280     -0.2714
     34  N        -21.7980   24.4030    8.1170 N.am  281  GLU281     -0.1963
     35  CA       -21.7520   25.2600    6.9360 C.3   281  GLU281      0.1733
     36  C        -22.4410   24.5210    5.7950 C.2   281  GLU281      0.2616
     37  O        -22.0910   23.3740    5.5040 O.2   281  GLU281     -0.2715
     38  CB       -20.2910   25.6270    6.5940 C.3   281  GLU281      0.0429
     39  CG       -20.0940   26.3820    5.2840 C.3   281  GLU281      0.1163
     40  CD       -20.2290   27.8920    5.3100 C.2   281  GLU281      0.3649
     41  OE1      -19.3450   28.5730    4.7420 O.co2 281  GLU281     -0.2457
     42  OE2      -21.2370   28.3970    5.8530 O.co2 281  GLU281     -0.2457
     43  N        -23.4370   25.1670    5.1970 N.am  282  GLY282     -0.1955
     44  CA       -24.1770   24.6340    4.0590 C.3   282  GLY282      0.1869
     45  C        -23.9640   25.4460    2.7870 C.2   282  GLY282      0.2309
     46  O        -23.0810   26.3180    2.7300 O.2   282  GLY282     -0.2863
     47  N        -25.3470   27.5180    9.6900 N.3   287  VAL287     -0.1245
     48  CA       -26.5210   27.2120   10.5260 C.3   287  VAL287      0.1561
     49  C        -25.9650   27.2650   11.9540 C.2   287  VAL287      0.2260
     50  O        -24.8780   26.7430   12.1930 O.2   287  VAL287     -0.2867
     51  CB       -27.1540   25.8280   10.1960 C.3   287  VAL287      0.0252
     52  CG1      -28.3700   25.5410   11.0770 C.3   287  VAL287      0.0019
     53  CG2      -27.5240   25.7290    8.7110 C.3   287  VAL287      0.0019
     54  N        -32.7990   26.6090   15.0680 N.3   304  ALA304     -0.1245
     55  CA       -31.6140   26.5760   14.2030 C.3   304  ALA304      0.1562
     56  C        -31.7430   27.7870   13.2580 C.2   304  ALA304      0.2260
     57  O        -32.7750   27.9100   12.5860 O.2   304  ALA304     -0.2867
     58  CB       -31.6050   25.2770   13.3850 C.3   304  ALA304      0.0290
     59  N        -30.0530   29.8090    9.9620 N.3   306  LYS306     -0.1245
     60  CA       -29.1620   29.8580    8.7960 C.3   306  LYS306      0.1561
     61  C        -29.0480   31.3190    8.2930 C.2   306  LYS306      0.2260
     62  O        -30.0670   32.0120    8.2190 O.2   306  LYS306     -0.2867
     63  CB       -29.7250   28.9760    7.6700 C.3   306  LYS306      0.0271
     64  CG       -28.7230   28.7020    6.5400 C.3   306  LYS306      0.0035
     65  CD       -29.2570   27.7250    5.4860 C.3   306  LYS306      0.0206
     66  CE       -28.1900   26.9760    4.7140 C.3   306  LYS306      0.1093
     67  NZ       -27.4250   27.8710    3.8170 N.3   306  LYS306     -0.1314
     68  N        -36.7110   18.8820    6.8490 N.3   329  ILE329     -0.1245
     69  CA       -36.5310   19.9120    7.8720 C.3   329  ILE329      0.1561
     70  C        -37.6890   20.9350    7.7550 C.2   329  ILE329      0.2260
     71  O        -38.1110   21.2790    6.6260 O.2   329  ILE329     -0.2867
     72  CB       -35.0960   20.5350    7.9250 C.3   329  ILE329      0.0252
     73  CG1      -34.8620   21.2880    9.2620 C.3   329  ILE329      0.0019
     74  CG2      -34.8000   21.4050    6.6970 C.3   329  ILE329      0.0019
     75  CD1      -33.4400   21.6900    9.6280 C.3   329  ILE329      0.0001
     76  N        -35.3130   27.5240   11.5030 N.3   347  MET347     -0.1230
     77  CA       -35.7470   26.1390   11.3670 C.3   347  MET347      0.1702
     78  C        -35.9620   25.4870   12.7160 C.2   347  MET347      0.2595
     79  O        -35.8670   26.1240   13.7610 O.2   347  MET347     -0.2718
     80  CB       -34.6770   25.3240   10.6450 C.3   347  MET347      0.0401
     81  CG       -34.5390   25.6160    9.1770 C.3   347  MET347      0.0596
     82  SD       -32.8510   25.2180    8.6540 S.3   347  MET347     -0.1393
     83  CE       -31.9720   26.6360    9.2960 C.3   347  MET347      0.0692
     84  N        -36.2310   24.1900   12.6830 N.am  348  GLU348     -0.1920
     85  CA       -36.3860   23.3850   13.8790 C.3   348  GLU348      0.1949
     86  C        -35.0100   22.8460   14.1970 C.2   348  GLU348      0.2659
     87  O        -34.2660   22.4710   13.2720 O.2   348  GLU348     -0.2711
     88  CB       -37.3830   22.2120   13.6520 C.2   348  GLU348      0.0111
     89  CG       -37.1990   21.3910   12.3670 C.2   348  GLU348      0.0838
     90  CD       -37.9690   20.0790   12.2820 C.2   348  GLU348      0.3877
     91  OE1      -38.5370   19.6300   13.3060 O.co2 348  GLU348     -0.2406
     92  OE2      -38.0000   19.4940   11.1760 O.co2 348  GLU348     -0.2406
     93  N        -34.6680   22.7810   15.4910 N.am  349  TYR349     -0.1957
     94  CA       -33.4040   22.1930   15.8940 C.3   349  TYR349      0.1771
     95  C        -33.5970   20.6930   15.9670 C.2   349  TYR349      0.2619
     96  O        -34.5440   20.2060   16.5850 O.2   349  TYR349     -0.2715
     97  CB       -32.8960   22.7930   17.1890 C.3   349  TYR349      0.0574
     98  CG       -31.7560   22.0360   17.8290 C.ar  349  TYR349     -0.0198
     99  CD1      -30.5820   21.7600   17.1180 C.ar  349  TYR349     -0.0009
    100  CD2      -31.8270   21.6300   19.1580 C.ar  349  TYR349     -0.0009
    101  CE1      -29.5280   21.0610   17.7120 C.ar  349  TYR349      0.0417
    102  CE2      -30.7650   20.9770   19.7730 C.ar  349  TYR349      0.0417
    103  CZ       -29.6210   20.6870   19.0500 C.ar  349  TYR349      0.1957
    104  OH       -28.5830   20.0610   19.7010 O.3   349  TYR349     -0.2866
    105  N        -32.7350   19.9740   15.2530 N.am  350  VAL350     -0.1964
    106  CA       -32.7730   18.5320   15.0940 C.3   350  VAL350      0.1712
    107  C        -31.7430   17.9890   16.0740 C.2   350  VAL350      0.2458
    108  O        -30.5490   18.1440   15.8350 O.2   350  VAL350     -0.2730
    109  CB       -32.4840   18.1620   13.6050 C.3   350  VAL350      0.0289
    110  CG1      -32.5990   16.6680   13.3710 C.3   350  VAL350      0.0023
    111  CG2      -33.4080   18.9180   12.6540 C.3   350  VAL350      0.0023
    112  N        -32.1730   17.4250   17.2200 N.am  351  PRO351     -0.2716
    113  CA       -31.2030   16.9800   18.2300 C.3   351  PRO351      0.1536
    114  C        -29.9180   16.2510   17.8070 C.2   351  PRO351      0.2598
    115  O        -28.8450   16.7910   18.0710 O.2   351  PRO351     -0.2715
    116  CB       -32.0710   16.2330   19.2430 C.3   351  PRO351      0.0310
    117  CG       -33.3710   16.9230   19.1590 C.3   351  PRO351      0.0237
    118  CD       -33.5550   17.2210   17.7040 C.3   351  PRO351      0.0939
    119  N        -30.0040   15.0780   17.1430 N.am  352  LEU352     -0.1964
    120  CA       -28.7950   14.3140   16.7520 C.3   352  LEU352      0.1728
    121  C        -27.9570   14.7670   15.5260 C.2   352  LEU352      0.2617
    122  O        -26.8540   14.2470   15.3260 O.2   352  LEU352     -0.2715
    123  CB       -28.9940   12.7890   16.7810 C.3   352  LEU352      0.0311
    124  CG       -29.2350   12.1530   18.1490 C.3   352  LEU352      0.0022
    125  CD1      -29.4330   10.6490   18.0040 C.3   352  LEU352      0.0001
    126  CD2      -28.1130   12.4860   19.1480 C.3   352  LEU352      0.0001
    127  N        -28.4520   15.7500   14.7710 N.am  353  GLY353     -0.1940
    128  CA       -27.7340   16.3600   13.6500 C.3   353  GLY353      0.2014
    129  C        -27.4080   15.5120   12.4420 C.2   353  GLY353      0.2639
    130  O        -28.1010   14.5210   12.1750 O.2   353  GLY353     -0.2714
    131  N        -26.3580   15.9150   11.6720 N.am  354  SER354     -0.1949
    132  CA       -26.0470   15.1730   10.4330 C.3   354  SER354      0.1924
    133  C        -25.4530   13.7880   10.5890 C.2   354  SER354      0.2314
    134  O        -24.6620   13.5260   11.4950 O.2   354  SER354     -0.2863
    135  CB       -25.3620   16.0200    9.3550 C.3   354  SER354      0.2116
    136  OG       -23.9470   16.0580    9.4440 O.3   354  SER354     -0.2180
    137  N        -19.5550    7.0730   14.9140 N.3   361  ARG361     -0.1245
    138  CA       -19.8730    7.1640   16.3340 C.3   361  ARG361      0.1563
    139  C        -20.9400    6.0850   16.5520 C.2   361  ARG361      0.2260
    140  O        -22.1230    6.2900   16.2420 O.2   361  ARG361     -0.2867
    141  CB       -20.4070    8.5750   16.6490 C.3   361  ARG361      0.0307
    142  CG       -21.0770    8.7600   18.0070 C.3   361  ARG361      0.0489
    143  CD       -22.0830    9.8830   17.9400 C.3   361  ARG361      0.2205
    144  NE       -21.5250   11.0610   17.2710 N.pl3 361  ARG361     -0.0865
    145  CZ       -22.1350   12.2390   17.1710 C.cat 361  ARG361      0.5346
    146  NH1      -23.3320   12.4250   17.7180 N.pl3 361  ARG361      0.1354
    147  NH2      -21.5480   13.2450   16.5340 N.pl3 361  ARG361      0.1354
    148  N        -24.2780   14.6350    4.3130 N.3   396  ARG396     -0.1231
    149  CA       -23.9360   15.8530    5.0600 C.3   396  ARG396      0.1694
    150  C        -25.2230   16.6440    5.3050 C.2   396  ARG396      0.2592
    151  O        -25.3120   17.3830    6.2820 O.2   396  ARG396     -0.2718
    152  CB       -22.9630   16.7160    4.2220 C.3   396  ARG396      0.0321
    153  CG       -22.1500   17.7390    5.0170 C.3   396  ARG396      0.0489
    154  CD       -21.3460   18.6590    4.1160 C.3   396  ARG396      0.2205
    155  NE       -20.5120   17.9120    3.1710 N.pl3 396  ARG396     -0.0865
    156  CZ       -19.1810   17.8640    3.1930 C.cat 396  ARG396      0.5346
    157  NH1      -18.5220   17.1510    2.2870 N.pl3 396  ARG396      0.1354
    158  NH2      -18.4990   18.5420    4.1140 N.pl3 396  ARG396      0.1354
    159  N        -26.2080   16.4690    4.3960 N.am  397  ASN397     -0.1974
    160  CA       -27.4870   17.1670    4.3500 C.3   397  ASN397      0.1688
    161  C        -28.6620   16.3190    4.8130 C.2   397  ASN397      0.2292
    162  O        -29.8150   16.6090    4.4710 O.2   397  ASN397     -0.2864
    163  CB       -27.7040   17.7150    2.9310 C.3   397  ASN397      0.1181
    164  CG       -26.4790   18.3900    2.3660 C.2   397  ASN397      0.2629
    165  OD1      -25.7630   19.1520    3.0360 O.2   397  ASN397     -0.2716
    166  ND2      -26.2170   18.1180    1.1180 N.am  397  ASN397     -0.0877
    167  N        -30.1570   15.0190    8.4010 N.3   399  LEU399     -0.1245
    168  CA       -30.2210   15.2050    9.8620 C.3   399  LEU399      0.1561
    169  C        -31.0570   14.1240   10.5320 C.2   399  LEU399      0.2260
    170  O        -31.9150   13.5400    9.8770 O.2   399  LEU399     -0.2867
    171  CB       -30.9020   16.5470   10.1310 C.3   399  LEU399      0.0270
    172  CG       -30.4970   17.7140    9.2510 C.3   399  LEU399      0.0019
    173  CD1      -31.6450   18.6800    9.0550 C.3   399  LEU399      0.0001
    174  CD2      -29.2720   18.3840    9.8000 C.3   399  LEU399      0.0001
    175  N        -32.2370   18.3060    4.8590 N.3   407  GLY407     -0.1210
    176  CA       -31.9650   19.7370    4.7830 C.3   407  GLY407      0.1956
    177  C        -31.1930   20.2070    3.5570 C.2   407  GLY407      0.2611
    178  O        -31.0780   19.4880    2.5610 O.2   407  GLY407     -0.2717
    179  N        -30.6620   21.4440    3.6540 N.am  408  ASP408     -0.1973
    180  CA       -29.9130   22.2140    2.6540 C.3   408  ASP408      0.1709
    181  C        -30.6370   22.3120    1.3010 C.2   408  ASP408      0.2293
    182  O        -30.3580   21.5220    0.3940 O.2   408  ASP408     -0.2864
    183  CB       -28.4650   21.7130    2.5360 C.3   408  ASP408      0.1436
    184  CG       -27.4690   22.7230    2.0110 C.2   408  ASP408      0.3671
    185  OD1      -27.8610   23.5700    1.1700 O.co2 408  ASP408     -0.2456
    186  OD2      -26.2760   22.6150    2.3680 O.co2 408  ASP408     -0.2456
@<TRIPOS>BOND
     1   182   181    2
     2   166   164   am
     3   185   184   ar
     4   181   180    1
     5   184   186   ar
     6   184   183    1
     7   157   156    1
     8   164   163    1
     9   164   165    2
    10   183   180    1
    11   178   177    2
    12   180   179    1
    13    46    45    2
    14    45    44    1
    15   163   160    1
    16   155   156    2
    17   155   154    1
    18   156   158    1
    19   177   179   am
    20   177   176    1
    21    67    66    1
    22    44    43    1
    23   154   153    1
    24   152   153    1
    25   152   149    1
    26   148   149    1
    27   160   159    1
    28   160   161    1
    29   159   150   am
    30   162   161    2
    31    66    65    1
    32    41    40   ar
    33   176   175    1
    34   149   150    1
    35    43    36   am
    36    39    40    1
    37    39    38    1
    38   150   151    2
    39    40    42   ar
    40    65    64    1
    41    37    36    2
    42    36    35    1
    43    64    63    1
    44    38    35    1
    45    71    70    2
    46    74    72    1
    47    68    69    1
    48    35    34    1
    49    63    60    1
    50    70    69    1
    51    69    72    1
    52    72    73    1
    53    34    32   am
    54    62    61    2
    55    61    60    1
    56   167   168    1
    57    82    81    1
    58    82    83    1
    59    53    51    1
    60    60    59    1
    61   173   172    1
    62    32    33    2
    63    32    31    1
    64    81    80    1
    65   172   174    1
    66   172   171    1
    67    73    75    1
    68   135   136    1
    69   135   132    1
    70    47    48    1
    71   168   171    1
    72   168   169    1
    73   170   169    2
    74    51    48    1
    75    51    52    1
    76    31    30    1
    77   132   133    1
    78   132   131    1
    79    48    49    1
    80   133   134    2
    81    80    77    1
    82    92    90   ar
    83    77    76    1
    84    77    78    1
    85    30    24   am
    86   131   129   am
    87    49    50    2
    88   130   129    2
    89    25    24    2
    90    90    89    1
    91    90    91   ar
    92    89    88    2
    93    24    23    1
    94   129   128    1
    95    57    56    2
    96   111   109    1
    97    84    78   am
    98    84    85    1
    99    78    79    2
   100    56    55    1
   101    87    86    2
   102   110   109    1
   103    58    55    1
   104   109   106    1
   105   128   127    1
   106    88    85    1
   107    23    26    1
   108    23    22    1
   109    26    27    1
   110    85    86    1
   111    86    93   am
   112    55    54    1
   113   127   121   am
   114    28    27    1
   115   137   138    1
   116    27    29    1
   117   106   105    1
   118   106   107    1
   119   105    95   am
   120   122   121    2
   121    93    94    1
   122   121   120    1
   123   108   107    2
   124    94    95    1
   125    94    97    1
   126    95    96    2
   127   107   112   am
   128   140   139    2
   129   138   139    1
   130   138   141    1
   131   147   145    1
   132   141   142    1
   133   120   123    1
   134   120   119    1
   135   123   124    1
   136    99   101   ar
   137    99    98   ar
   138   119   114   am
   139   145   144    2
   140   145   146    1
   141    97    98    1
   142    14    13    2
   143   112   118    1
   144   112   113    1
   145   144   143    1
   146    13    12    1
   147   118   117    1
   148   101   103   ar
   149   114   115    2
   150   114   113    1
   151    98   100   ar
   152   143   142    1
   153   125   124    1
   154   124   126    1
   155   113   116    1
   156   103   104    1
   157   103   102   ar
   158    12    15    1
   159    12    11    1
   160   100   102   ar
   161   117   116    1
   162    16    15    1
   163    16    17    1
   164    17    18    1
   165    18    19    2
   166     7     9   ar
   167     7     6   ar
   168    19    21    1
   169    19    20    1
   170     9    10   ar
   171     6     5    1
   172     6     8   ar
   173     5     2    1
   174     2     1    1
   175     2     3    1
   176    10     8   ar
   177     3     4    2
