@<TRIPOS>MOLECULE
tmp/4olmA00.pdb
 126 118 0 0 0
SMALL
GASTEIGER

@<TRIPOS>ATOM
      1  N         -2.8360   -9.6020    8.8090 N.3    42  LEU42      -0.1231
      2  CA        -3.1120   -9.4690   10.2490 C.3    42  LEU42       0.1693
      3  C         -3.7300  -10.7080   10.8780 C.2    42  LEU42       0.2591
      4  O         -3.4690  -11.0140   12.0410 O.2    42  LEU42      -0.2718
      5  CB        -4.0610   -8.3040   10.5330 C.3    42  LEU42       0.0284
      6  CG        -4.6390   -8.2550   11.9640 C.3    42  LEU42       0.0019
      7  CD1       -3.5410   -8.1750   13.0200 C.3    42  LEU42       0.0001
      8  CD2       -5.5930   -7.0760   12.1180 C.3    42  LEU42       0.0001
      9  N         -4.6000  -11.3870   10.1350 N.am   43  VAL43      -0.1980
     10  CA        -5.3090  -12.5350   10.6770 C.3    43  VAL43       0.1595
     11  C         -4.2920  -13.6310   10.8990 C.2    43  VAL43       0.2287
     12  O         -4.3990  -14.3770   11.8550 O.2    43  VAL43      -0.2864
     13  CB        -6.4960  -12.9700    9.7750 C.3    43  VAL43       0.0276
     14  CG1       -6.8910  -14.4170   10.0420 C.3    43  VAL43       0.0022
     15  CG2       -7.6980  -12.0460    9.9920 C.3    43  VAL43       0.0022
     16  N         -2.1180  -12.7240   14.0560 N.3    46  VAL46      -0.1231
     17  CA        -2.7980  -13.0000   15.3490 C.3    46  VAL46       0.1692
     18  C         -2.5390  -14.4440   15.7920 C.2    46  VAL46       0.2591
     19  O         -2.1230  -14.7300   16.9260 O.2    46  VAL46      -0.2718
     20  CB        -4.3120  -12.7740   15.2200 C.3    46  VAL46       0.0266
     21  CG1       -5.0850  -13.5310   16.3030 C.3    46  VAL46       0.0020
     22  CG2       -4.6110  -11.2940   15.2830 C.3    46  VAL46       0.0020
     23  N         -2.8420  -15.3500   14.8730 N.am   47  LYS47      -0.1980
     24  CA        -2.6250  -16.7520   15.0820 C.3    47  LYS47       0.1596
     25  C         -1.1780  -16.9250   15.5160 C.2    47  LYS47       0.2287
     26  O         -0.9460  -17.2970   16.6610 O.2    47  LYS47      -0.2864
     27  CB        -2.9120  -17.5400   13.7980 C.3    47  LYS47       0.0298
     28  CG        -4.3750  -17.6060   13.3510 C.3    47  LYS47       0.0038
     29  CD        -4.4900  -18.4570   12.0800 C.3    47  LYS47       0.0206
     30  CE        -5.9010  -18.5640   11.5090 C.3    47  LYS47       0.1093
     31  NZ        -5.9030  -19.2100   10.1590 N.3    47  LYS47      -0.1314
     32  N         -0.3870  -15.5020   19.1750 N.3    50  LYS50      -0.1245
     33  CA        -0.8990  -16.3390   20.2620 C.3    50  LYS50       0.1561
     34  C          0.0460  -17.5200   20.6040 C.2    50  LYS50       0.2260
     35  O          0.3670  -17.7310   21.7730 O.2    50  LYS50      -0.2867
     36  CB        -2.3090  -16.8280   19.9090 C.3    50  LYS50       0.0271
     37  CG        -3.3710  -15.7270   19.9300 C.3    50  LYS50       0.0035
     38  CD        -4.6030  -16.0920   19.1080 C.3    50  LYS50       0.0206
     39  CE        -5.8950  -15.8010   19.8550 C.3    50  LYS50       0.1093
     40  NZ        -7.0920  -15.9360   18.9710 N.3    50  LYS50      -0.1314
     41  N          4.1100  -15.4840   25.0870 N.3    55  PHE55      -0.1241
     42  CA         3.2970  -14.3400   24.7350 C.3    55  PHE55       0.1605
     43  C          1.9640  -14.3550   25.4870 C.2    55  PHE55       0.2264
     44  O          1.3670  -13.3050   25.7160 O.2    55  PHE55      -0.2867
     45  CB         3.0650  -14.3210   23.2320 C.3    55  PHE55       0.0534
     46  CG         2.3460  -13.1040   22.7560 C.ar   55  PHE55      -0.0203
     47  CD1        2.9710  -11.8770   22.7530 C.ar   55  PHE55      -0.0042
     48  CD2        1.0360  -13.1860   22.3230 C.ar   55  PHE55      -0.0042
     49  CE1        2.3070  -10.7480   22.3080 C.ar   55  PHE55      -0.0003
     50  CE2        0.3630  -12.0650   21.8750 C.ar   55  PHE55      -0.0003
     51  CZ         1.0000  -10.8430   21.8650 C.ar   55  PHE55      -0.0000
     52  N         -4.0770   -9.5290   28.5030 N.3    60  VAL60      -0.1245
     53  CA        -4.6890   -9.6780   27.1860 C.3    60  VAL60       0.1561
     54  C         -4.7130   -8.3540   26.4050 C.2    60  VAL60       0.2260
     55  O         -4.6650   -8.3540   25.1780 O.2    60  VAL60      -0.2867
     56  CB        -6.1060  -10.2880   27.3160 C.3    60  VAL60       0.0252
     57  CG1       -6.6970  -10.6200   25.9520 C.3    60  VAL60       0.0019
     58  CG2       -6.0490  -11.5560   28.1680 C.3    60  VAL60       0.0019
     59  N         -1.1180   -7.8990   25.0800 N.3    63  GLN63      -0.1231
     60  CA        -1.1050   -8.8120   23.9470 C.3    63  GLN63       0.1698
     61  C         -1.7160   -8.1270   22.7240 C.2    63  GLN63       0.2592
     62  O         -1.2040   -8.2370   21.6100 O.2    63  GLN63      -0.2718
     63  CB        -1.9410  -10.0670   24.2350 C.3    63  GLN63       0.0381
     64  CG        -1.5090  -10.9180   25.4240 C.3    63  GLN63       0.0905
     65  CD        -2.2080  -12.2710   25.4980 C.2    63  GLN63       0.2608
     66  OE1       -2.3700  -12.8270   26.5840 O.2    63  GLN63      -0.2717
     67  NE2       -2.6000  -12.8210   24.3460 N.am   63  GLN63      -0.0878
     68  N         -2.8220   -7.4210   22.9390 N.am   64  MET64      -0.1979
     69  CA        -3.6190   -6.9010   21.8350 C.3    64  MET64       0.1605
     70  C         -3.0250   -5.6520   21.2040 C.2    64  MET64       0.2287
     71  O         -2.8850   -5.5410   19.9740 O.2    64  MET64      -0.2864
     72  CB        -5.0370   -6.6140   22.3210 C.3    64  MET64       0.0413
     73  CG        -5.9210   -7.8420   22.3190 C.3    64  MET64       0.0598
     74  SD        -7.5780   -7.2890   22.6520 S.3    64  MET64      -0.1393
     75  CE        -7.5900   -7.2150   24.4330 C.3    64  MET64       0.0692
     76  N          0.3100   -6.1000   19.1860 N.3    67  ILE67      -0.1231
     77  CA         0.0310   -6.5420   17.8350 C.3    67  ILE67       0.1692
     78  C         -0.4310   -5.3830   16.9400 C.2    67  ILE67       0.2591
     79  O          0.0530   -5.2270   15.8160 O.2    67  ILE67      -0.2718
     80  CB        -1.0190   -7.6530   17.8300 C.3    67  ILE67       0.0266
     81  CG1       -0.4500   -8.9190   18.4650 C.3    67  ILE67       0.0019
     82  CG2       -1.4230   -7.9610   16.4000 C.3    67  ILE67       0.0020
     83  CD1       -1.4770   -9.9420   18.8950 C.3    67  ILE67       0.0001
     84  N         -1.3760   -4.5790   17.4240 N.am   68  GLN68      -0.1979
     85  CA        -1.9100   -3.4910   16.6040 C.3    68  GLN68       0.1601
     86  C         -0.8110   -2.4750   16.3760 C.2    68  GLN68       0.2287
     87  O         -0.6740   -1.9050   15.2960 O.2    68  GLN68      -0.2864
     88  CB        -3.1530   -2.8720   17.2450 C.3    68  GLN68       0.0394
     89  CG        -4.2710   -3.8950   17.3810 C.3    68  GLN68       0.0908
     90  CD        -5.3830   -3.4430   18.3020 C.2    68  GLN68       0.2608
     91  OE1       -5.3010   -3.5800   19.5350 O.2    68  GLN68      -0.2717
     92  NE2       -6.4480   -2.9180   17.7110 N.am   68  GLN68      -0.0878
     93  N        -14.0380   -3.1450    7.5520 N.3   215  GLU215     -0.1231
     94  CA       -14.6950   -2.6770    8.7680 C.3   215  GLU215      0.1699
     95  C        -13.7930   -2.7450    9.9970 C.2   215  GLU215      0.2592
     96  O        -14.0380   -2.0610   10.9910 O.2   215  GLU215     -0.2718
     97  CB       -15.9790   -3.4580    9.0080 C.3   215  GLU215      0.0402
     98  CG       -16.9620   -3.2820    7.8620 C.3   215  GLU215      0.1161
     99  CD       -16.8700   -4.4490    6.8960 C.2   215  GLU215      0.3649
    100  OE1      -16.0120   -5.3450    7.0650 O.co2 215  GLU215     -0.2457
    101  OE2      -17.6880   -4.4760    5.9540 O.co2 215  GLU215     -0.2457
    102  N        -12.7550   -3.5720    9.9320 N.am  216  MET216     -0.1979
    103  CA       -11.8530   -3.7410   11.0740 C.3   216  MET216      0.1605
    104  C        -10.6080   -2.8650   11.0100 C.2   216  MET216      0.2287
    105  O        -10.1410   -2.3870   12.0500 O.2   216  MET216     -0.2864
    106  CB       -11.4200   -5.2080   11.2140 C.3   216  MET216      0.0413
    107  CG       -10.6000   -5.4930   12.4770 C.3   216  MET216      0.0598
    108  SD       -10.2850   -7.2430   12.8500 S.3   216  MET216     -0.1393
    109  CE        -9.3450   -7.7560   11.4060 C.3   216  MET216      0.0692
    110  N        -10.7930    0.6990   12.3480 N.3   219  GLU219     -0.1231
    111  CA       -10.7060    0.8280   13.7950 C.3   219  GLU219      0.1699
    112  C         -9.2650    1.1300   14.1360 C.2   219  GLU219      0.2592
    113  O         -8.9440    2.2180   14.6250 O.2   219  GLU219     -0.2718
    114  CB       -11.1560   -0.4460   14.5280 C.3   219  GLU219      0.0402
    115  CG       -10.8300   -0.4140   16.0210 C.3   219  GLU219      0.1161
    116  CD       -10.9530   -1.7590   16.7050 C.2   219  GLU219      0.3649
    117  OE1      -12.0670   -2.0690   17.1880 O.co2 219  GLU219     -0.2457
    118  OE2       -9.9330   -2.4870   16.7840 O.co2 219  GLU219     -0.2457
    119  N         -8.4000    0.1640   13.8240 N.am  220  ILE220     -0.1980
    120  CA        -6.9830    0.2170   14.1680 C.3   220  ILE220      0.1595
    121  C         -6.3420    1.5220   13.6880 C.2   220  ILE220      0.2287
    122  O         -5.6060    2.1920   14.4190 O.2   220  ILE220     -0.2864
    123  CB        -6.2350   -0.9610   13.5340 C.3   220  ILE220      0.0276
    124  CG1       -6.7450   -2.2870   14.1040 C.3   220  ILE220      0.0022
    125  CG2       -4.7260   -0.8300   13.7670 C.3   220  ILE220      0.0022
    126  CD1       -6.5600   -3.4490   13.1590 C.3   220  ILE220      0.0001
@<TRIPOS>BOND
     1   101    99   ar
     2    99   100   ar
     3    99    98    1
     4    93    94    1
     5    98    97    1
     6    94    97    1
     7    94    95    1
     8     1     2    1
     9    13    15    1
    10    13    14    1
    11    13    10    1
    12   102    95   am
    13   102   103    1
    14    95    96    2
    15     9    10    1
    16     9     3   am
    17    31    30    1
    18     2     5    1
    19     2     3    1
    20     5     6    1
    21    10    11    1
    22     3     4    2
    23    11    12    2
    24   104   103    1
    25   104   105    2
    26   103   106    1
    27   106   107    1
    28   109   108    1
    29    30    29    1
    30     6     8    1
    31     6     7    1
    32    29    28    1
    33   110   111    1
    34   107   108    1
    35   126   124    1
    36    28    27    1
    37   123   125    1
    38   123   124    1
    39   123   120    1
    40   121   120    1
    41   121   122    2
    42   111   112    1
    43   111   114    1
    44    27    24    1
    45   119   112   am
    46   119   120    1
    47    16    17    1
    48   112   113    2
    49   114   115    1
    50    23    24    1
    51    23    18   am
    52    24    25    1
    53    20    22    1
    54    20    17    1
    55    20    21    1
    56    87    86    2
    57    17    18    1
    58    25    26    2
    59    18    19    2
    60    79    78    2
    61   115   116    1
    62    86    85    1
    63    82    80    1
    64    85    88    1
    65    85    84    1
    66   116   118   ar
    67   116   117   ar
    68    78    84   am
    69    78    77    1
    70    88    89    1
    71    89    90    1
    72    92    90   am
    73    80    77    1
    74    80    81    1
    75    77    76    1
    76    90    91    2
    77    81    83    1
    78    40    39    1
    79    38    39    1
    80    38    37    1
    81    32    33    1
    82    36    37    1
    83    36    33    1
    84    71    70    2
    85    33    34    1
    86    34    35    2
    87    70    69    1
    88    62    61    2
    89    69    72    1
    90    69    68    1
    91    51    50   ar
    92    51    49   ar
    93    50    48   ar
    94    49    47   ar
    95    73    72    1
    96    73    74    1
    97    48    46   ar
    98    74    75    1
    99    61    68   am
   100    61    60    1
   101    47    46   ar
   102    46    45    1
   103    45    42    1
   104    60    63    1
   105    60    59    1
   106    63    64    1
   107    67    65   am
   108    42    41    1
   109    42    43    1
   110    55    54    2
   111    64    65    1
   112    43    44    2
   113    65    66    2
   114    57    56    1
   115    54    53    1
   116    53    56    1
   117    53    52    1
   118    56    58    1
