@<TRIPOS>MOLECULE
tmp/4olmA01.pdb
 217 202 0 0 0
SMALL
GASTEIGER

@<TRIPOS>ATOM
      1  N         -5.0920    0.0940   -3.8300 N.3    31  LEU31      -0.1245
      2  CA        -5.2220    0.3010   -2.3870 C.3    31  LEU31       0.1561
      3  C         -6.4540   -0.2790   -1.7220 C.2    31  LEU31       0.2260
      4  O         -6.5930   -0.1700   -0.5040 O.2    31  LEU31      -0.2867
      5  CB        -5.0490    1.7780   -2.0480 C.3    31  LEU31       0.0270
      6  CG        -3.5340    2.0210   -2.0920 C.3    31  LEU31       0.0019
      7  CD1       -3.2120    3.3300   -2.7590 C.3    31  LEU31       0.0001
      8  CD2       -2.9150    1.9360   -0.7040 C.3    31  LEU31       0.0001
      9  N         -4.5300   -3.7030   -0.9110 N.3    34  LEU34      -0.1231
     10  CA        -3.5550   -3.7180    0.1820 C.3    34  LEU34       0.1693
     11  C         -4.2150   -3.6140    1.5530 C.2    34  LEU34       0.2592
     12  O         -3.5980   -4.0070    2.5490 O.2    34  LEU34      -0.2718
     13  CB        -2.4660   -2.6600   -0.0070 C.3    34  LEU34       0.0284
     14  CG        -1.4020   -3.0510   -1.0520 C.3    34  LEU34       0.0019
     15  CD1       -0.7600   -1.8200   -1.6570 C.3    34  LEU34       0.0001
     16  CD2       -0.3510   -3.9790   -0.4650 C.3    34  LEU34       0.0001
     17  N         -5.4510   -3.0970    1.6240 N.am   35  ASN35      -0.1974
     18  CA        -6.1910   -3.0560    2.9100 C.3    35  ASN35       0.1688
     19  C         -6.7960   -4.3950    3.1880 C.2    35  ASN35       0.2292
     20  O         -6.9950   -4.7540    4.3390 O.2    35  ASN35      -0.2864
     21  CB        -7.2830   -1.9940    2.9320 C.3    35  ASN35       0.1181
     22  CG        -6.7670   -0.6180    2.5680 C.2    35  ASN35       0.2629
     23  OD1       -5.5620   -0.4080    2.4130 O.2    35  ASN35      -0.2716
     24  ND2       -7.6820    0.3250    2.4060 N.am   35  ASN35      -0.0877
     25  N         -5.4190   -7.3230    2.0180 N.3    37  LEU37      -0.1231
     26  CA        -4.1960   -8.1040    2.3190 C.3    37  LEU37       0.1693
     27  C         -3.6760   -7.8250    3.7180 C.2    37  LEU37       0.2592
     28  O         -3.2510   -8.7490    4.4270 O.2    37  LEU37      -0.2718
     29  CB        -3.0880   -7.8040    1.3040 C.3    37  LEU37       0.0284
     30  CG        -1.7280   -8.5300    1.4060 C.3    37  LEU37       0.0019
     31  CD1       -1.8300  -10.0600    1.3480 C.3    37  LEU37       0.0001
     32  CD2       -0.8100   -8.0090    0.2990 C.3    37  LEU37       0.0001
     33  N         -3.6990   -6.5540    4.1100 N.am   38  GLY38      -0.1957
     34  CA        -3.3330   -6.1730    5.4710 C.3    38  GLY38       0.1869
     35  C         -4.1660   -6.8880    6.5180 C.2    38  GLY38       0.2309
     36  O         -3.6270   -7.3530    7.5350 O.2    38  GLY38      -0.2863
     37  N         -3.2300  -10.5860    6.1690 N.3    41  GLN41      -0.1245
     38  CA        -1.9520  -10.8090    6.8600 C.3    41  GLN41       0.1566
     39  C         -2.1490  -10.6490    8.3730 C.2    41  GLN41       0.2260
     40  O         -1.7200  -11.5120    9.1430 O.2    41  GLN41      -0.2867
     41  CB        -0.7970   -9.9430    6.2910 C.3    41  GLN41       0.0367
     42  CG        -0.3210  -10.4450    4.9130 C.3    41  GLN41       0.0905
     43  CD         0.9810   -9.8430    4.3670 C.2    41  GLN41       0.2608
     44  OE1        1.3050  -10.0370    3.1830 O.2    41  GLN41      -0.2717
     45  NE2        1.7020   -9.0800    5.2000 N.am   41  GLN41      -0.0878
     46  N         -1.3760   -4.5790   17.4240 N.3    68  GLN68      -0.1245
     47  CA        -1.9100   -3.4910   16.6040 C.3    68  GLN68       0.1566
     48  C         -0.8110   -2.4750   16.3760 C.2    68  GLN68       0.2260
     49  O         -0.6740   -1.9050   15.2960 O.2    68  GLN68      -0.2867
     50  CB        -3.1530   -2.8720   17.2450 C.3    68  GLN68       0.0367
     51  CG        -4.2710   -3.8950   17.3810 C.3    68  GLN68       0.0905
     52  CD        -5.3830   -3.4430   18.3020 C.2    68  GLN68       0.2608
     53  OE1       -5.3010   -3.5800   19.5350 O.2    68  GLN68      -0.2717
     54  NE2       -6.4480   -2.9180   17.7110 N.am   68  GLN68      -0.0878
     55  N          1.9720   -4.2310   13.9350 N.3    71  LEU71      -0.1231
     56  CA         1.4090   -4.9710   12.7740 C.3    71  LEU71       0.1693
     57  C          2.0140   -4.5180   11.4730 C.2    71  LEU71       0.2591
     58  O          2.4870   -5.3240   10.7040 O.2    71  LEU71      -0.2718
     59  CB        -0.1340   -4.8270   12.6780 C.3    71  LEU71       0.0284
     60  CG        -0.7710   -5.0050   11.2710 C.3    71  LEU71       0.0019
     61  CD1       -0.8190   -6.4520   10.8670 C.3    71  LEU71       0.0001
     62  CD2       -2.1610   -4.4090   11.1690 C.3    71  LEU71       0.0001
     63  N          1.9610   -3.2270   11.2090 N.am   72  MET72      -0.1979
     64  CA         2.5230   -2.6980    9.9530 C.3    72  MET72       0.1605
     65  C          3.9960   -3.0920    9.7680 C.2    72  MET72       0.2287
     66  O          4.3330   -3.6830    8.7440 O.2    72  MET72      -0.2864
     67  CB         2.3830   -1.1590    9.8820 C.3    72  MET72       0.0413
     68  CG         2.7110   -0.5530    8.5210 C.3    72  MET72       0.0598
     69  SD         1.6090   -0.9760    7.1630 S.3    72  MET72      -0.1393
     70  CE         0.6680    0.5460    7.0860 C.3    72  MET72       0.0692
     71  N          4.7300   -6.5720    8.7240 N.3    75  MET75      -0.1230
     72  CA         4.2450   -6.9600    7.3930 C.3    75  MET75       0.1702
     73  C          5.2590   -6.6110    6.3230 C.2    75  MET75       0.2592
     74  O          5.6410   -7.4460    5.5030 O.2    75  MET75      -0.2718
     75  CB         2.9060   -6.2710    7.0870 C.3    75  MET75       0.0401
     76  CG         1.8010   -6.5920    8.0780 C.3    75  MET75       0.0596
     77  SD         0.1690   -6.3900    7.3670 S.3    75  MET75      -0.1393
     78  CE         0.3180   -4.7830    6.6100 C.3    75  MET75       0.0692
     79  N          5.6450   -5.3540    6.3230 N.am   76  VAL76      -0.1980
     80  CA         6.8620   -4.8800    5.6800 C.3    76  VAL76       0.1595
     81  C          8.0550   -5.8300    5.7800 C.2    76  VAL76       0.2287
     82  O          8.7270   -6.1130    4.7750 O.2    76  VAL76      -0.2864
     83  CB         7.3340   -3.5900    6.3790 C.3    76  VAL76       0.0276
     84  CG1        8.8140   -3.3120    6.1000 C.3    76  VAL76       0.0022
     85  CG2        6.4480   -2.4130    5.9730 C.3    76  VAL76       0.0022
     86  N          7.5730   -8.8730    3.8970 N.3    79  MET79      -0.1245
     87  CA         7.6130   -8.4480    2.5230 C.3    79  MET79       0.1570
     88  C          9.0810   -8.1720    2.1710 C.2    79  MET79       0.2261
     89  O          9.5440   -8.4930    1.0700 O.2    79  MET79      -0.2867
     90  CB         6.7590   -7.1980    2.3660 C.3    79  MET79       0.0387
     91  CG         6.0690   -7.1660    1.0440 C.3    79  MET79       0.0595
     92  SD         7.0100   -6.2640   -0.1580 S.3    79  MET79      -0.1393
     93  CE         6.8040   -4.6020    0.4750 C.3    79  MET79       0.0692
     94  N          9.7470  -11.7610    1.5310 N.3    82  ARG82      -0.1245
     95  CA         9.0610  -12.2850    0.3500 C.3    82  ARG82       0.1563
     96  C          9.6110  -11.6390   -0.9620 C.2    82  ARG82       0.2260
     97  O          9.9330  -12.3350   -1.9290 O.2    82  ARG82      -0.2867
     98  CB         7.5490  -12.0390    0.4800 C.3    82  ARG82       0.0307
     99  CG         6.6990  -12.9930    1.3650 C.3    82  ARG82       0.0489
    100  CD         5.1540  -12.6760    1.2380 C.3    82  ARG82       0.2205
    101  NE         4.8650  -11.2660    1.5220 N.pl3  82  ARG82      -0.0865
    102  CZ         4.5970  -10.8620    2.7190 C.cat  82  ARG82       0.5346
    103  NH1        4.5570  -11.7260    3.6490 N.pl3  82  ARG82       0.1354
    104  NH2        4.4190   -9.5990    3.0040 N.pl3  82  ARG82       0.1354
    105  N          4.4410   -8.3060   -1.9230 N.3    94  PHE94      -0.1241
    106  CA         3.3580   -8.1960   -0.9450 C.3    94  PHE94       0.1605
    107  C          2.5730   -9.5110   -0.9740 C.2    94  PHE94       0.2264
    108  O          2.1060  -10.0350    0.0670 O.2    94  PHE94      -0.2867
    109  CB         2.3840   -7.1400   -1.4090 C.3    94  PHE94       0.0534
    110  CG         2.9130   -5.7340   -1.4230 C.ar   94  PHE94      -0.0203
    111  CD1        3.2640   -5.1150   -2.6150 C.ar   94  PHE94      -0.0042
    112  CD2        2.9270   -4.9980   -0.2780 C.ar   94  PHE94      -0.0042
    113  CE1        3.6790   -3.7920   -2.6310 C.ar   94  PHE94      -0.0003
    114  CE2        3.3240   -3.6720   -0.2970 C.ar   94  PHE94      -0.0003
    115  CZ         3.7040   -3.0680   -1.4730 C.ar   94  PHE94      -0.0000
    116  N          2.3380    5.6760   -3.3390 N.3   110  MET110     -0.1245
    117  CA         3.0850    5.2520   -2.1630 C.3   110  MET110      0.1570
    118  C          4.5560    5.1380   -2.5070 C.2   110  MET110      0.2261
    119  O          5.2760    4.3860   -1.8430 O.2   110  MET110     -0.2867
    120  CB         2.5850    3.8710   -1.6900 C.3   110  MET110      0.0387
    121  CG         1.6550    3.8940   -0.4840 C.3   110  MET110      0.0595
    122  SD         0.9760    2.2760   -0.0300 S.3   110  MET110     -0.1393
    123  CE         2.1240    1.7280    1.2280 C.3   110  MET110      0.0692
    124  N         11.0830    0.3490    1.0940 N.3   117  MET117     -0.1245
    125  CA        10.8310   -1.0920    1.2800 C.3   117  MET117      0.1570
    126  C         11.6330   -2.0190    0.3540 C.2   117  MET117      0.2261
    127  O         11.8560   -3.1780    0.7180 O.2   117  MET117     -0.2867
    128  CB         9.3470   -1.4150    1.1090 C.3   117  MET117      0.0387
    129  CG         8.4650   -0.8960    2.2320 C.3   117  MET117      0.0595
    130  SD         6.8370   -1.6690    2.2600 S.3   117  MET117     -0.1393
    131  CE         6.0300   -0.7690    0.9330 C.3   117  MET117      0.0692
    132  N          4.1570    4.9010    6.3560 N.3   195  LEU195     -0.1231
    133  CA         3.0550    4.1850    5.8030 C.3   195  LEU195      0.1693
    134  C          1.9010    4.5390    6.6960 C.2   195  LEU195      0.2592
    135  O          0.8680    5.0150    6.2340 O.2   195  LEU195     -0.2718
    136  CB         3.3440    2.6790    5.8270 C.3   195  LEU195      0.0284
    137  CG         4.5640    2.1070    5.0660 C.3   195  LEU195      0.0019
    138  CD1        4.9760    0.7900    5.6760 C.3   195  LEU195      0.0001
    139  CD2        4.2950    1.8930    3.5910 C.3   195  LEU195      0.0001
    140  N          2.0860    4.3450    7.9970 N.am  196  HIS196     -0.1976
    141  CA         1.0700    4.7120    8.9740 C.3   196  HIS196      0.1656
    142  C          0.5260    6.1160    8.7140 C.2   196  HIS196      0.2291
    143  O         -0.6480    6.3900    8.9640 O.2   196  HIS196     -0.2864
    144  CB         1.6350    4.6230   10.3930 C.3   196  HIS196      0.0771
    145  CG         1.7060    3.2270   10.9290 C.ar  196  HIS196      0.0820
    146  ND1        2.8420    2.7110   11.5150 N.ar  196  HIS196     -0.2267
    147  CD2        0.7810    2.2380   10.9670 C.ar  196  HIS196      0.1154
    148  CE1        2.6140    1.4650   11.8910 C.ar  196  HIS196      0.1986
    149  NE2        1.3710    1.1540   11.5700 N.ar  196  HIS196     -0.2212
    150  N          0.3870    7.5700    5.7490 N.3   198  PHE198     -0.1227
    151  CA        -0.2870    7.5510    4.4690 C.3   198  PHE198      0.1736
    152  C         -1.6430    6.8890    4.6220 C.2   198  PHE198      0.2596
    153  O         -2.6570    7.3240    4.0390 O.2   198  PHE198     -0.2718
    154  CB         0.5610    6.7670    3.4670 C.3   198  PHE198      0.0547
    155  CG        -0.1190    6.5360    2.1560 C.ar  198  PHE198     -0.0202
    156  CD1       -0.4920    5.2660    1.7740 C.ar  198  PHE198     -0.0042
    157  CD2       -0.4060    7.6020    1.3220 C.ar  198  PHE198     -0.0042
    158  CE1       -1.1300    5.0550    0.5720 C.ar  198  PHE198     -0.0003
    159  CE2       -1.0390    7.4100    0.1150 C.ar  198  PHE198     -0.0003
    160  CZ        -1.4040    6.1300   -0.2640 C.ar  198  PHE198     -0.0000
    161  N         -1.6210    5.8170    5.4100 N.am  199  THR199     -0.1953
    162  CA        -2.7910    5.0470    5.7450 C.3   199  THR199      0.1897
    163  C         -3.7750    5.9360    6.4480 C.2   199  THR199      0.2313
    164  O         -4.9030    6.0990    6.0090 O.2   199  THR199     -0.2863
    165  CB        -2.4220    3.9240    6.7180 C.3   199  THR199      0.1794
    166  OG1       -1.1380    3.3880    6.3700 O.3   199  THR199     -0.2208
    167  CG2       -3.4890    2.8530    6.6900 C.3   199  THR199      0.0378
    168  N         -5.0840    8.3540    4.3240 N.3   202  LEU202     -0.1245
    169  CA        -5.8720    7.7010    3.3010 C.3   202  LEU202      0.1561
    170  C         -7.2350    7.3300    3.8510 C.2   202  LEU202      0.2260
    171  O         -8.2240    7.4690    3.1700 O.2   202  LEU202     -0.2867
    172  CB        -5.1400    6.4790    2.7450 C.3   202  LEU202      0.0270
    173  CG        -5.9310    5.6260    1.7570 C.3   202  LEU202      0.0019
    174  CD1       -6.4890    6.4460    0.6000 C.3   202  LEU202      0.0001
    175  CD2       -5.0220    4.5180    1.2630 C.3   202  LEU202      0.0001
    176  N        -11.9580    0.2200    2.7990 N.3   213  PHE213     -0.1241
    177  CA       -11.3570   -0.1940    4.0640 C.3   213  PHE213      0.1605
    178  C        -12.1650   -1.2510    4.7700 C.2   213  PHE213      0.2264
    179  O        -13.3720   -1.0940    4.9190 O.2   213  PHE213     -0.2867
    180  CB       -11.1750    0.9940    5.0100 C.3   213  PHE213      0.0534
    181  CG        -9.7800    1.5130    5.0210 C.ar  213  PHE213     -0.0203
    182  CD1       -9.4960    2.7890    4.5790 C.ar  213  PHE213     -0.0042
    183  CD2       -8.7380    0.6800    5.4130 C.ar  213  PHE213     -0.0042
    184  CE1       -8.1980    3.2490    4.5650 C.ar  213  PHE213     -0.0003
    185  CE2       -7.4350    1.1240    5.3930 C.ar  213  PHE213     -0.0003
    186  CZ        -7.1610    2.4160    4.9700 C.ar  213  PHE213     -0.0000
    187  N        -10.0500   -2.6770    9.8130 N.3   217  MET217     -0.1245
    188  CA        -8.7860   -1.9330    9.6760 C.3   217  MET217      0.1570
    189  C         -8.9530   -0.4600   10.0230 C.2   217  MET217      0.2261
    190  O         -8.0360    0.1560   10.5720 O.2   217  MET217     -0.2867
    191  CB        -8.2050   -2.0980    8.2680 C.3   217  MET217      0.0387
    192  CG        -7.8250   -3.5340    7.9440 C.3   217  MET217      0.0595
    193  SD        -7.1590   -4.3760    9.4040 S.3   217  MET217     -0.1393
    194  CE        -5.6910   -3.3960    9.7280 C.3   217  MET217      0.0692
    195  N         -8.4000    0.1640   13.8240 N.3   220  ILE220     -0.1231
    196  CA        -6.9830    0.2170   14.1680 C.3   220  ILE220      0.1692
    197  C         -6.3420    1.5220   13.6880 C.2   220  ILE220      0.2591
    198  O         -5.6060    2.1920   14.4190 O.2   220  ILE220     -0.2718
    199  CB        -6.2350   -0.9610   13.5340 C.3   220  ILE220      0.0266
    200  CG1       -6.7450   -2.2870   14.1040 C.3   220  ILE220      0.0019
    201  CG2       -4.7260   -0.8300   13.7670 C.3   220  ILE220      0.0020
    202  CD1       -6.5600   -3.4490   13.1590 C.3   220  ILE220      0.0001
    203  N         -6.6450    1.8820   12.4550 N.am  221  ILE221     -0.1980
    204  CA        -6.1670    3.1200   11.9040 C.3   221  ILE221      0.1595
    205  C         -6.6820    4.3420   12.6540 C.2   221  ILE221      0.2287
    206  O         -5.9900    5.3510   12.7230 O.2   221  ILE221     -0.2864
    207  CB        -6.5230    3.2280   10.4170 C.3   221  ILE221      0.0276
    208  CG1       -5.8930    2.0650    9.6520 C.3   221  ILE221      0.0022
    209  CG2       -6.0240    4.5430    9.8270 C.3   221  ILE221      0.0022
    210  CD1       -6.5890    1.7710    8.3480 C.3   221  ILE221      0.0001
    211  N         -3.4940    3.3520   15.5700 N.3   225  VAL225     -0.1245
    212  CA        -2.4740    3.9990   14.7150 C.3   225  VAL225      0.1561
    213  C         -2.1700    5.4130   15.2670 C.2   225  VAL225      0.2260
    214  O         -1.0180    5.7190   15.5240 O.2   225  VAL225     -0.2867
    215  CB        -2.8380    3.9710   13.1840 C.3   225  VAL225      0.0252
    216  CG1       -2.1970    5.1010   12.4070 C.3   225  VAL225      0.0019
    217  CG2       -2.4350    2.6500   12.5170 C.3   225  VAL225      0.0019
@<TRIPOS>BOND
     1     1     2    1
     2   116   117    1
     3     7     6    1
     4   113   111   ar
     5   113   115   ar
     6   111   110   ar
     7   118   117    1
     8   118   119    2
     9     2     5    1
    10     2     3    1
    11   117   120    1
    12     6     5    1
    13     6     8    1
    14    97    96    2
    15   105   106    1
    16     3     4    2
    17   120   121    1
    18    15    14    1
    19   115   114   ar
    20   110   109    1
    21   110   112   ar
    22   109   106    1
    23    14    16    1
    24    14    13    1
    25   107   106    1
    26   107   108    2
    27    96    95    1
    28     9    10    1
    29   121   122    1
    30   114   112   ar
    31   160   159   ar
    32   160   158   ar
    33    92    93    1
    34    92    91    1
    35   122   123    1
    36    13    10    1
    37   159   157   ar
    38    10    11    1
    39    32    30    1
    40    95    98    1
    41    95    94    1
    42   126   127    2
    43   126   125    1
    44    98    99    1
    45   158   156   ar
    46   174   173    1
    47   131   130    1
    48    91    90    1
    49    89    88    2
    50   124   125    1
    51   128   125    1
    52   128   129    1
    53   100    99    1
    54   100   101    1
    55   175   173    1
    56    29    30    1
    57    29    26    1
    58   157   155   ar
    59    31    30    1
    60   101   102    2
    61    11    17   am
    62    11    12    2
    63    17    18    1
    64   173   172    1
    65   156   155   ar
    66    25    26    1
    67   155   154    1
    68    88    87    1
    69   129   130    1
    70    26    27    1
    71    90    87    1
    72    24    22   am
    73    23    22    2
    74    87    86    1
    75    22    21    1
    76   102   104    1
    77   102   103    1
    78   172   169    1
    79   176   177    1
    80    18    21    1
    81    18    19    1
    82   171   170    2
    83    44    43    2
    84    19    20    2
    85   169   170    1
    86   169   168    1
    87   154   151    1
    88   139   137    1
    89    27    33   am
    90    27    28    2
    91   153   152    2
    92   177   178    1
    93   177   180    1
    94    33    34    1
    95    43    42    1
    96    43    45   am
    97   151   152    1
    98   151   150    1
    99   184   182   ar
   100   184   186   ar
   101   182   181   ar
   102   152   161   am
   103   178   179    2
   104    82    81    2
   105    42    41    1
   106   186   185   ar
   107   180   181    1
   108   181   183   ar
   109   137   138    1
   110   137   136    1
   111   185   183   ar
   112   161   162    1
   113    34    35    1
   114    74    73    2
   115    80    81    1
   116    80    79    1
   117    80    83    1
   118   162   163    1
   119   162   165    1
   120   133   136    1
   121   133   132    1
   122   133   134    1
   123    85    83    1
   124   164   163    2
   125    84    83    1
   126    37    38    1
   127   135   134    2
   128    41    38    1
   129    73    79   am
   130    73    72    1
   131   166   165    1
   132    35    36    2
   133    78    77    1
   134   167   165    1
   135   134   140   am
   136    38    39    1
   137    70    69    1
   138    75    72    1
   139    75    76    1
   140    69    68    1
   141    77    76    1
   142    72    71    1
   143   192   191    1
   144   192   193    1
   145   140   141    1
   146   191   188    1
   147   210   208    1
   148    39    40    2
   149    68    67    1
   150   142   143    2
   151   142   141    1
   152    66    65    2
   153   141   144    1
   154   193   194    1
   155   208   207    1
   156   188   187    1
   157   188   189    1
   158    65    64    1
   159   209   207    1
   160    67    64    1
   161    64    63    1
   162   189   190    2
   163   144   145    1
   164   207   204    1
   165    58    57    2
   166    61    60    1
   167   145   147   ar
   168   145   146   ar
   169   147   149   ar
   170    62    60    1
   171    63    57   am
   172    60    59    1
   173    57    56    1
   174   146   148   ar
   175   149   148   ar
   176   204   203    1
   177   204   205    1
   178   216   215    1
   179   203   197   am
   180   217   215    1
   181   205   206    2
   182    59    56    1
   183    56    55    1
   184   202   200    1
   185   215   212    1
   186   199   201    1
   187   199   200    1
   188   199   196    1
   189   197   196    1
   190   197   198    2
   191   195   196    1
   192   212   213    1
   193   212   211    1
   194   213   214    2
   195    49    48    2
   196    48    47    1
   197    47    50    1
   198    47    46    1
   199    50    51    1
   200    51    52    1
   201    54    52   am
   202    52    53    2
