@<TRIPOS>MOLECULE
tmp/4olqF01.pdb
 97 90 0 0 0
SMALL
GASTEIGER

@<TRIPOS>ATOM
      1  N        -30.2610   13.2870   72.5700 N.3    25  ARG25      -0.1245
      2  CA       -29.3740   12.3050   73.2370 C.3    25  ARG25       0.1563
      3  C        -29.2080   11.0380   72.3420 C.2    25  ARG25       0.2260
      4  O        -29.3180    9.9120   72.7890 O.2    25  ARG25      -0.2867
      5  CB       -29.8800   11.9220   74.6580 C.3    25  ARG25       0.0307
      6  CG       -29.9410   12.9570   75.7960 C.3    25  ARG25       0.0489
      7  CD       -30.5300   12.3620   77.1530 C.3    25  ARG25       0.2205
      8  NE       -31.8380   12.9200   77.6130 N.pl3  25  ARG25      -0.0865
      9  CZ       -32.5260   12.5720   78.7240 C.cat  25  ARG25       0.5346
     10  NH1      -32.0500   11.6730   79.5860 N.pl3  25  ARG25       0.1354
     11  NH2      -33.7180   13.1430   78.9720 N.pl3  25  ARG25       0.1354
     12  N        -30.1900    7.0050   73.2060 N.3    63  ALA63      -0.1231
     13  CA       -31.2330    7.1570   74.2250 C.3    63  ALA63       0.1694
     14  C        -32.5800    6.6560   73.7240 C.2    63  ALA63       0.2593
     15  O        -33.6150    7.3460   73.8610 O.2    63  ALA63      -0.2718
     16  CB       -31.3620    8.6100   74.6660 C.3    63  ALA63       0.0304
     17  N        -32.5680    5.4560   73.1660 N.am   64  GLY64      -0.1942
     18  CA       -33.7820    4.8270   72.6940 C.3    64  GLY64       0.2014
     19  C        -34.2010    5.2830   71.3100 C.2    64  GLY64       0.2638
     20  O        -33.4090    5.8580   70.5880 O.2    64  GLY64      -0.2714
     21  N        -35.4630    5.0420   70.9530 N.am   65  ALA65      -0.1977
     22  CA       -36.0100    5.4140   69.6320 C.3    65  ALA65       0.1597
     23  C        -36.5360    6.8440   69.6650 C.2    65  ALA65       0.2287
     24  O        -36.8310    7.3790   70.7610 O.2    65  ALA65      -0.2864
     25  CB       -37.1100    4.4570   69.2200 C.3    65  ALA65       0.0319
     26  N        -39.2160    9.1470   69.5840 N.3    67  ILE67      -0.1245
     27  CA       -40.6430    9.0410   69.8510 C.3    67  ILE67       0.1561
     28  C        -41.3920   10.0370   68.9830 C.2    67  ILE67       0.2260
     29  O        -42.5400    9.8120   68.6910 O.2    67  ILE67      -0.2867
     30  CB       -40.9940    9.2730   71.3390 C.3    67  ILE67       0.0252
     31  CG1      -40.4820    8.0700   72.1570 C.3    67  ILE67       0.0019
     32  CG2      -42.4740    9.5030   71.5260 C.3    67  ILE67       0.0019
     33  CD1      -40.5160    8.2840   73.6450 C.3    67  ILE67       0.0001
     34  N        -42.9650    8.3840   66.0550 N.3    70  PHE70      -0.1241
     35  CA       -43.8410    7.2640   66.3310 C.3    70  PHE70       0.1605
     36  C        -45.1910    7.3380   65.6670 C.2    70  PHE70       0.2264
     37  O        -45.7010    6.3260   65.2370 O.2    70  PHE70      -0.2867
     38  CB       -44.0340    7.0770   67.8230 C.3    70  PHE70       0.0534
     39  CG       -43.1600    6.0050   68.4050 C.ar   70  PHE70      -0.0203
     40  CD1      -41.9170    5.7020   67.8490 C.ar   70  PHE70      -0.0042
     41  CD2      -43.5870    5.2860   69.5030 C.ar   70  PHE70      -0.0042
     42  CE1      -41.1230    4.7020   68.3790 C.ar   70  PHE70      -0.0003
     43  CE2      -42.7970    4.2810   70.0440 C.ar   70  PHE70      -0.0003
     44  CZ       -41.5610    3.9920   69.4810 C.ar   70  PHE70      -0.0000
     45  N        -30.1900    2.9040   75.9550 N.3   110  VAL110     -0.1231
     46  CA       -31.4860    2.2730   76.2040 C.3   110  VAL110      0.1692
     47  C        -32.2300    1.9570   74.9240 C.2   110  VAL110      0.2593
     48  O        -32.0270    2.5880   73.8980 O.2   110  VAL110     -0.2718
     49  CB       -32.3640    3.1020   77.1730 C.3   110  VAL110      0.0266
     50  CG1      -31.5270    3.6440   78.3230 C.3   110  VAL110      0.0020
     51  CG2      -33.0340    4.2490   76.4650 C.3   110  VAL110      0.0020
     52  N        -33.1120    0.9760   75.0210 N.am  111  GLY111     -0.1942
     53  CA       -33.9540    0.5410   73.9090 C.3   111  GLY111      0.2014
     54  C        -33.1450    0.0730   72.7140 C.2   111  GLY111      0.2639
     55  O        -32.3460   -0.8460   72.8170 O.2   111  GLY111     -0.2714
     56  N        -33.3130    0.7600   71.5870 N.am  112  GLY112     -0.1954
     57  CA       -32.5370    0.4800   70.3830 C.3   112  GLY112      0.1869
     58  C        -31.0350    0.6500   70.5910 C.2   112  GLY112      0.2309
     59  O        -30.2380    0.0590   69.8800 O.2   112  GLY112     -0.2863
     60  N        -36.7920   -1.1380   77.0620 N.3   133  THR133     -0.1204
     61  CA       -38.0510   -0.5970   77.5740 C.3   133  THR133      0.1979
     62  C        -39.3610   -0.8390   76.8000 C.2   133  THR133      0.2459
     63  O        -40.3640   -0.2360   77.1460 O.2   133  THR133     -0.2732
     64  CB       -37.8830    0.9250   77.7360 C.3   133  THR133      0.1783
     65  OG1      -37.3730    1.4760   76.5110 O.3   133  THR133     -0.2211
     66  CG2      -36.9220    1.2210   78.8810 C.3   133  THR133      0.0376
     67  N        -39.3910   -1.7540   75.8110 N.am  134  PRO134     -0.2728
     68  CA       -40.6220   -1.8530   75.0080 C.3   134  PRO134      0.1401
     69  C        -41.8660   -2.0670   75.8480 C.2   134  PRO134      0.2269
     70  O        -42.9340   -1.5830   75.4920 O.2   134  PRO134     -0.2865
     71  CB       -40.4020   -3.0850   74.1290 C.3   134  PRO134      0.0296
     72  CG       -39.0050   -3.5290   74.3630 C.3   134  PRO134      0.0237
     73  CD       -38.5650   -2.9630   75.6740 C.3   134  PRO134      0.0939
     74  N        -43.8550    0.9420   76.6910 N.3   137  LEU137     -0.1245
     75  CA       -44.5790    1.5260   75.5680 C.3   137  LEU137      0.1561
     76  C        -45.7340    0.6060   75.0700 C.2   137  LEU137      0.2260
     77  O        -46.6170    1.0450   74.3180 O.2   137  LEU137     -0.2867
     78  CB       -43.5390    1.8280   74.4650 C.3   137  LEU137      0.0270
     79  CG       -42.4620    2.8170   74.9250 C.3   137  LEU137      0.0019
     80  CD1      -41.2870    2.8240   73.9610 C.3   137  LEU137      0.0001
     81  CD2      -43.0230    4.2260   75.0830 C.3   137  LEU137      0.0001
     82  N        -45.0830   -2.2750   73.5410 N.3   139  LEU139     -0.1245
     83  CA       -44.4730   -3.0220   72.4310 C.3   139  LEU139      0.1561
     84  C        -43.8230   -4.3250   72.8810 C.2   139  LEU139      0.2260
     85  O        -43.8730   -4.6850   74.0490 O.2   139  LEU139     -0.2867
     86  CB       -43.3810   -2.1870   71.7880 C.3   139  LEU139      0.0270
     87  CG       -43.8320   -0.9290   71.0840 C.3   139  LEU139      0.0019
     88  CD1      -42.5980   -0.1490   70.6650 C.3   139  LEU139      0.0001
     89  CD2      -44.7080   -1.2710   69.8890 C.3   139  LEU139      0.0001
     90  N        -33.9910    0.6310   84.2970 N.3   167  ILE167     -0.1245
     91  CA       -32.6720    1.1470   83.9950 C.3   167  ILE167      0.1561
     92  C        -31.7170    0.6290   85.0530 C.2   167  ILE167      0.2260
     93  O        -32.0250    0.6250   86.2400 O.2   167  ILE167     -0.2867
     94  CB       -32.6090    2.6750   84.0250 C.3   167  ILE167      0.0252
     95  CG1      -33.7690    3.2960   83.2340 C.3   167  ILE167      0.0019
     96  CG2      -31.2740    3.1460   83.4700 C.3   167  ILE167      0.0019
     97  CD1      -33.8140    2.9340   81.7640 C.3   167  ILE167      0.0001
@<TRIPOS>BOND
     1    37    36    2
     2    36    35    1
     3    34    35    1
     4    35    38    1
     5    38    39    1
     6    40    42   ar
     7    40    39   ar
     8    42    44   ar
     9    39    41   ar
    10    29    28    2
    11    28    27    1
    12    25    22    1
    13    44    43   ar
    14    41    43   ar
    15    26    27    1
    16    22    23    1
    17    22    21    1
    18    23    24    2
    19    27    30    1
    20    59    58    2
    21    89    87    1
    22    57    58    1
    23    57    56    1
    24    20    19    2
    25    88    87    1
    26    21    19   am
    27    87    86    1
    28    19    18    1
    29    30    32    1
    30    30    31    1
    31    56    54   am
    32    86    83    1
    33    31    33    1
    34     3     4    2
    35     3     2    1
    36    83    84    1
    37    83    82    1
    38     1     2    1
    39    18    17    1
    40    54    55    2
    41    54    53    1
    42    84    85    2
    43    17    14   am
    44    12    13    1
    45     2     5    1
    46    14    15    2
    47    14    13    1
    48    48    47    2
    49    53    52    1
    50    80    79    1
    51    71    72    1
    52    71    68    1
    53    13    16    1
    54    77    76    2
    55    72    73    1
    56    78    79    1
    57    78    75    1
    58     5     6    1
    59    47    52   am
    60    47    46    1
    61    79    81    1
    62    68    67    1
    63    68    69    1
    64    76    75    1
    65    70    69    2
    66    75    74    1
    67    73    67    1
    68     6     7    1
    69    67    62   am
    70    45    46    1
    71    46    49    1
    72    51    49    1
    73    65    64    1
    74    62    63    2
    75    62    61    1
    76    60    61    1
    77     7     8    1
    78    49    50    1
    79    61    64    1
    80     8     9    2
    81    64    66    1
    82     9    11    1
    83     9    10    1
    84    97    95    1
    85    95    94    1
    86    96    94    1
    87    91    94    1
    88    91    90    1
    89    91    92    1
    90    92    93    2
