@<TRIPOS>MOLECULE
tmp/4olqC01.pdb
 102 94 0 0 0
SMALL
GASTEIGER

@<TRIPOS>ATOM
      1  N        -16.8220   13.8190   32.8030 N.3    22  ARG22      -0.1245
      2  CA       -17.6950   12.8300   32.1430 C.3    22  ARG22       0.1563
      3  C        -17.8720   11.5450   33.0100 C.2    22  ARG22       0.2260
      4  O        -17.7390   10.4260   32.5380 O.2    22  ARG22      -0.2867
      5  CB       -17.1810   12.4820   30.7210 C.3    22  ARG22       0.0307
      6  CG       -17.1880   13.7010   29.8020 C.3    22  ARG22       0.0489
      7  CD       -18.1880   13.5240   28.6810 C.3    22  ARG22       0.2205
      8  NE       -18.6470   14.7470   28.0530 N.pl3  22  ARG22      -0.0865
      9  CZ       -19.9110   15.1710   28.1220 C.cat  22  ARG22       0.5346
     10  NH1      -20.8200   14.4600   28.7810 N.pl3  22  ARG22       0.1354
     11  NH2      -20.2330   16.3040   27.5120 N.pl3  22  ARG22       0.1354
     12  N        -16.7520    7.4750   32.1600 N.3    60  ALA60      -0.1231
     13  CA       -15.5040    7.4300   31.3710 C.3    60  ALA60       0.1694
     14  C        -14.4650    6.6200   32.1670 C.2    60  ALA60       0.2593
     15  O        -13.2680    6.8780   32.0730 O.2    60  ALA60      -0.2718
     16  CB       -14.9630    8.8230   31.1230 C.3    60  ALA60       0.0304
     17  N        -14.9400    5.7450   33.0470 N.am   61  GLY61      -0.1942
     18  CA       -14.0880    4.8160   33.7860 C.3    61  GLY61       0.2014
     19  C        -13.3630    5.4250   34.9710 C.2    61  GLY61       0.2638
     20  O        -13.8730    6.3690   35.5760 O.2    61  GLY61      -0.2714
     21  N        -12.1550    4.9460   35.2790 N.am   62  ALA62      -0.1977
     22  CA       -11.3740    5.5030   36.4130 C.3    62  ALA62       0.1597
     23  C        -10.7160    6.8920   36.1330 C.2    62  ALA62       0.2287
     24  O        -10.3380    7.2390   34.9960 O.2    62  ALA62      -0.2864
     25  CB       -10.3270    4.5200   36.8940 C.3    62  ALA62       0.0319
     26  N         -8.0630    9.2850   35.7520 N.3    64  ILE64      -0.1245
     27  CA        -6.6410    9.1650   35.4350 C.3    64  ILE64       0.1561
     28  C         -5.8320   10.2130   36.2200 C.2    64  ILE64       0.2260
     29  O         -4.6770    9.9880   36.4960 O.2    64  ILE64      -0.2867
     30  CB        -6.3510    9.1420   33.9140 C.3    64  ILE64       0.0252
     31  CG1       -7.0440    7.9310   33.2790 C.3    64  ILE64       0.0019
     32  CG2       -4.8490    9.1340   33.6570 C.3    64  ILE64       0.0019
     33  CD1       -6.8400    7.8100   31.7960 C.3    64  ILE64       0.0001
     34  N         -4.2050    8.6490   39.1830 N.3    67  PHE67      -0.1241
     35  CA        -3.3600    7.4990   38.8950 C.3    67  PHE67       0.1605
     36  C         -1.9920    7.5630   39.5310 C.2    67  PHE67       0.2264
     37  O         -1.4960    6.5450   39.9790 O.2    67  PHE67      -0.2867
     38  CB        -3.2050    7.2870   37.4070 C.3    67  PHE67       0.0534
     39  CG        -4.1500    6.2580   36.8450 C.ar   67  PHE67      -0.0203
     40  CD1       -5.3710    5.9600   37.4590 C.ar   67  PHE67      -0.0042
     41  CD2       -3.8120    5.5860   35.6980 C.ar   67  PHE67      -0.0042
     42  CE1       -6.2280    5.0090   36.9310 C.ar   67  PHE67      -0.0003
     43  CE2       -4.6590    4.6320   35.1640 C.ar   67  PHE67      -0.0003
     44  CZ        -5.8690    4.3420   35.7790 C.ar   67  PHE67      -0.0000
     45  N        -20.8180    7.8560   26.8240 N.3   105  ALA105     -0.1245
     46  CA       -19.5970    7.0950   27.0490 C.3   105  ALA105      0.1562
     47  C        -19.6910    6.1080   28.2190 C.2   105  ALA105      0.2260
     48  O        -20.0560    6.4700   29.3370 O.2   105  ALA105     -0.2867
     49  CB       -18.4310    8.0400   27.2580 C.3   105  ALA105      0.0290
     50  N        -16.8660    3.5370   29.2230 N.3   107  VAL107     -0.1231
     51  CA       -15.5650    2.9300   28.9450 C.3   107  VAL107      0.1692
     52  C        -14.8150    2.5980   30.2140 C.2   107  VAL107      0.2593
     53  O        -15.0290    3.2140   31.2620 O.2   107  VAL107     -0.2718
     54  CB       -14.6940    3.7820   27.9980 C.3   107  VAL107      0.0266
     55  CG1      -15.5310    4.3600   26.8630 C.3   107  VAL107      0.0020
     56  CG2      -14.0330    4.9260   28.7300 C.3   107  VAL107      0.0020
     57  N        -13.9380    1.6120   30.0970 N.am  108  GLY108     -0.1942
     58  CA       -13.1020    1.1500   31.2000 C.3   108  GLY108      0.2014
     59  C        -13.9140    0.6480   32.3760 C.2   108  GLY108      0.2639
     60  O        -14.7310   -0.2500   32.2480 O.2   108  GLY108     -0.2714
     61  N        -13.7470    1.2990   33.5240 N.am  109  GLY109     -0.1954
     62  CA       -14.5470    0.9960   34.7150 C.3   109  GLY109      0.1869
     63  C        -16.0440    1.1780   34.5050 C.2   109  GLY109      0.2309
     64  O        -16.8620    0.5760   35.2040 O.2   109  GLY109     -0.2863
     65  N        -10.2480   -0.4790   28.0150 N.3   130  THR130     -0.1204
     66  CA        -9.0030    0.0930   27.5090 C.3   130  THR130      0.1979
     67  C         -7.7130   -0.1570   28.2860 C.2   130  THR130      0.2459
     68  O         -6.7040    0.4590   27.9620 O.2   130  THR130     -0.2732
     69  CB        -9.1760    1.6180   27.3810 C.3   130  THR130      0.1783
     70  OG1       -9.6820    2.1470   28.6200 O.3   130  THR130     -0.2211
     71  CG2      -10.1350    1.9370   26.2420 C.3   130  THR130      0.0376
     72  N         -7.6990   -1.1010   29.2470 N.am  131  PRO131     -0.2728
     73  CA        -6.4850   -1.2010   30.0490 C.3   131  PRO131      0.1401
     74  C         -5.2200   -1.3790   29.2240 C.2   131  PRO131      0.2269
     75  O         -4.1620   -0.8920   29.6140 O.2   131  PRO131     -0.2865
     76  CB        -6.7050   -2.4550   30.8970 C.3   131  PRO131      0.0296
     77  CG        -8.0880   -2.9020   30.6470 C.3   131  PRO131      0.0237
     78  CD        -8.5130   -2.3190   29.3530 C.3   131  PRO131      0.0939
     79  N         -3.2750    1.6790   28.5230 N.3   134  LEU134     -0.1245
     80  CA        -2.5700    2.2290   29.6730 C.3   134  LEU134      0.1561
     81  C         -1.4200    1.3000   30.1660 C.2   134  LEU134      0.2260
     82  O         -0.5270    1.7430   30.9120 O.2   134  LEU134     -0.2867
     83  CB        -3.6260    2.5010   30.7450 C.3   134  LEU134      0.0270
     84  CG        -4.7020    3.4880   30.2750 C.3   134  LEU134      0.0019
     85  CD1       -5.8990    3.4560   31.2050 C.3   134  LEU134      0.0001
     86  CD2       -4.1480    4.9070   30.1720 C.3   134  LEU134      0.0001
     87  N         -2.0600   -1.5880   31.5730 N.3   136  LEU136     -0.1245
     88  CA        -2.6730   -2.3610   32.6520 C.3   136  LEU136      0.1561
     89  C         -3.3120   -3.6590   32.1610 C.2   136  LEU136      0.2260
     90  O         -3.2180   -4.0090   30.9920 O.2   136  LEU136     -0.2867
     91  CB        -3.7750   -1.5610   33.3000 C.3   136  LEU136      0.0270
     92  CG        -3.3530   -0.3170   34.0410 C.3   136  LEU136      0.0019
     93  CD1       -4.6060    0.4270   34.4670 C.3   136  LEU136      0.0001
     94  CD2       -2.4870   -0.6780   35.2440 C.3   136  LEU136      0.0001
     95  N        -13.0120    1.4910   20.8220 N.3   164  ILE164     -0.1245
     96  CA       -14.3350    2.0040   21.1390 C.3   164  ILE164      0.1561
     97  C        -15.2900    1.5110   20.0760 C.2   164  ILE164      0.2260
     98  O        -14.9780    1.5370   18.8870 O.2   164  ILE164     -0.2867
     99  CB       -14.4050    3.5290   21.1480 C.3   164  ILE164      0.0252
    100  CG1      -13.2560    4.1360   21.9560 C.3   164  ILE164      0.0019
    101  CG2      -15.7370    3.9940   21.7100 C.3   164  ILE164      0.0019
    102  CD1      -13.2180    3.7380   23.4090 C.3   164  ILE164      0.0001
@<TRIPOS>BOND
     1    98    97    2
     2    97    96    1
     3    95    96    1
     4    96    99    1
     5    99   101    1
     6    99   100    1
     7   100   102    1
     8    71    69    1
     9    45    46    1
    10    55    54    1
    11    46    49    1
    12    46    47    1
    13    69    66    1
    14    69    70    1
    15    66    65    1
    16    66    67    1
    17    11     9    1
    18    68    67    2
    19    54    56    1
    20    54    51    1
    21     8     9    2
    22     8     7    1
    23     9    10    1
    24    47    48    2
    25    67    72   am
    26    79    80    1
    27     7     6    1
    28    51    50    1
    29    51    52    1
    30    74    75    2
    31    74    73    1
    32    72    78    1
    33    72    73    1
    34    78    77    1
    35    80    81    1
    36    80    83    1
    37     6     5    1
    38    73    76    1
    39    57    52   am
    40    57    58    1
    41    81    82    2
    42    86    84    1
    43    52    53    2
    44    84    83    1
    45    84    85    1
    46    77    76    1
    47     5     2    1
    48    90    89    2
    49    16    13    1
    50    58    59    1
    51    13    12    1
    52    13    14    1
    53    87    88    1
    54    33    31    1
    55    15    14    2
    56     2     1    1
    57     2     3    1
    58    89    88    1
    59    14    17   am
    60    60    59    2
    61    59    61   am
    62     4     3    2
    63    88    91    1
    64    17    18    1
    65    31    30    1
    66    91    92    1
    67    61    62    1
    68    32    30    1
    69    18    19    1
    70    30    27    1
    71    92    93    1
    72    92    94    1
    73    63    62    1
    74    63    64    2
    75    19    21   am
    76    19    20    2
    77    24    23    2
    78    43    41   ar
    79    43    44   ar
    80    21    22    1
    81    27    26    1
    82    27    28    1
    83    41    39   ar
    84    44    42   ar
    85    23    22    1
    86    28    29    2
    87    22    25    1
    88    39    38    1
    89    39    40   ar
    90    42    40   ar
    91    38    35    1
    92    35    34    1
    93    35    36    1
    94    36    37    2
