@<TRIPOS>MOLECULE
tmp/4om8A00.pdb
 217 212 0 0 0
SMALL
GASTEIGER

@<TRIPOS>ATOM
      1  N          0.6910   -1.7340   31.9670 N.3     8  ILE8       -0.1231
      2  CA         1.8110   -0.9710   32.5220 C.3     8  ILE8        0.1692
      3  C          1.4980   -0.5840   33.9590 C.2     8  ILE8        0.2593
      4  O          0.6580    0.2900   34.2140 O.2     8  ILE8       -0.2718
      5  CB         2.0910    0.2950   31.6970 C.3     8  ILE8        0.0266
      6  CG1        2.1810   -0.0460   30.2060 C.3     8  ILE8        0.0019
      7  CG2        3.3260    1.0280   32.2280 C.3     8  ILE8        0.0020
      8  CD1        3.2250   -1.1120   29.8510 C.3     8  ILE8        0.0001
      9  N          2.1430   -1.2700   34.9000 N.am    9  GLY9       -0.1942
     10  CA         1.9310   -1.0120   36.3190 C.3     9  GLY9        0.2014
     11  C          1.2800   -2.2140   36.9540 C.2     9  GLY9        0.2639
     12  O          0.1660   -2.6020   36.5740 O.2     9  GLY9       -0.2714
     13  N          1.9850   -2.8120   37.9180 N.am   10  LEU10      -0.1963
     14  CA         1.5610   -4.0630   38.5490 C.3    10  LEU10       0.1728
     15  C          1.4340   -3.9850   40.0620 C.2    10  LEU10       0.2617
     16  O          1.8570   -4.9030   40.7710 O.2    10  LEU10      -0.2715
     17  CB         2.5420   -5.1850   38.2130 C.3    10  LEU10       0.0311
     18  CG         2.5010   -5.7810   36.8110 C.3    10  LEU10       0.0022
     19  CD1        3.6740   -6.7430   36.6320 C.3    10  LEU10       0.0001
     20  CD2        1.1810   -6.5040   36.6070 C.3    10  LEU10       0.0001
     21  N          0.8600   -2.9040   40.5550 N.am   11  GLY11      -0.1940
     22  CA         0.6220   -2.7740   41.9870 C.3    11  GLY11       0.2014
     23  C         -0.6740   -3.4630   42.3500 C.2    11  GLY11       0.2640
     24  O         -0.9800   -4.5340   41.8360 O.2    11  GLY11      -0.2714
     25  N         -1.4350   -2.8350   43.2360 N.am   12  THR12      -0.1936
     26  CA        -2.7070   -3.3610   43.7120 C.3    12  THR12       0.2028
     27  C         -3.6290   -3.8550   42.5980 C.2    12  THR12       0.2642
     28  O         -4.2070   -4.9390   42.7070 O.2    12  THR12      -0.2714
     29  CB        -3.4330   -2.2810   44.5290 C.3    12  THR12       0.1808
     30  OG1       -2.6180   -1.9290   45.6540 O.3    12  THR12      -0.2208
     31  CG2       -4.8010   -2.7550   44.9990 C.3    12  THR12       0.0379
     32  N         -3.7440   -3.0690   41.5260 N.am   13  MET13      -0.1976
     33  CA        -4.7370   -3.3630   40.4880 C.3    13  MET13       0.1605
     34  C         -4.2310   -4.2580   39.3620 C.2    13  MET13       0.2287
     35  O         -5.0140   -4.7020   38.5210 O.2    13  MET13      -0.2864
     36  CB        -5.2620   -2.0630   39.8780 C.3    13  MET13       0.0413
     37  CG        -6.0480   -1.2090   40.8410 C.3    13  MET13       0.0598
     38  SD        -7.5370   -2.0520   41.3910 S.3    13  MET13      -0.1393
     39  CE        -8.5690   -1.9100   39.9450 C.3    13  MET13       0.0692
     40  N          4.1460   -5.1670   32.6640 N.3    31  TYR31      -0.1227
     41  CA         5.4250   -4.5320   32.9580 C.3    31  TYR31       0.1736
     42  C          5.3090   -3.6480   34.1770 C.2    31  TYR31       0.2595
     43  O          4.2770   -3.0400   34.4020 O.2    31  TYR31      -0.2718
     44  CB         5.8920   -3.7010   31.7550 C.3    31  TYR31       0.0548
     45  CG         7.0000   -2.7140   32.0530 C.ar   31  TYR31      -0.0200
     46  CD1        8.3330   -3.1130   32.0580 C.ar   31  TYR31      -0.0009
     47  CD2        6.7170   -1.3750   32.3150 C.ar   31  TYR31      -0.0009
     48  CE1        9.3570   -2.2060   32.3310 C.ar   31  TYR31       0.0417
     49  CE2        7.7260   -0.4720   32.5840 C.ar   31  TYR31       0.0417
     50  CZ         9.0360   -0.8870   32.6020 C.ar   31  TYR31       0.1957
     51  OH        10.0320    0.0260   32.8680 O.3    31  TYR31      -0.2866
     52  N          6.3810   -3.5660   34.9530 N.am   32  ASP32      -0.1960
     53  CA         6.4530   -2.5980   36.0400 C.3    32  ASP32       0.1840
     54  C          7.8950   -2.1280   36.1240 C.2    32  ASP32       0.2622
     55  O          8.8130   -2.9120   35.8750 O.2    32  ASP32      -0.2715
     56  CB         5.9960   -3.2150   37.3700 C.3    32  ASP32       0.1450
     57  CG         5.6820   -2.1650   38.4360 C.2    32  ASP32       0.3671
     58  OD1        6.6010   -1.4270   38.8530 O.co2  32  ASP32      -0.2456
     59  OD2        4.5050   -2.0950   38.8690 O.co2  32  ASP32      -0.2456
     60  N          8.0890   -0.8610   36.4820 N.am   33  VAL33      -0.1963
     61  CA         9.4150   -0.2640   36.5910 C.3    33  VAL33       0.1727
     62  C         10.1930   -0.7950   37.8080 C.2    33  VAL33       0.2616
     63  O         11.4230   -0.6910   37.8590 O.2    33  VAL33      -0.2715
     64  CB         9.2960    1.2800   36.6690 C.3    33  VAL33       0.0290
     65  CG1        8.7660    1.6990   38.0330 C.3    33  VAL33       0.0023
     66  CG2       10.6350    1.9600   36.3600 C.3    33  VAL33       0.0023
     67  N          9.4820   -1.3690   38.7760 N.am   34  ALA34      -0.1977
     68  CA        10.1020   -1.7900   40.0330 C.3    34  ALA34       0.1597
     69  C         10.1690   -3.3000   40.1380 C.2    34  ALA34       0.2287
     70  O          9.1380   -3.9580   40.1700 O.2    34  ALA34      -0.2864
     71  CB         9.3310   -1.2200   41.2240 C.3    34  ALA34       0.0319
     72  N          8.0160   -4.9340   42.6750 N.3    37  ALA37      -0.1245
     73  CA         6.6090   -4.9920   42.2870 C.3    37  ALA37       0.1562
     74  C          6.2980   -6.2030   41.4150 C.2    37  ALA37       0.2260
     75  O          5.2460   -6.8360   41.5630 O.2    37  ALA37      -0.2867
     76  CB         6.2180   -3.7180   41.5670 C.3    37  ALA37       0.0290
     77  N          6.2420   -9.2910   43.6830 N.3    40  ARG40      -0.1245
     78  CA         5.0200   -9.3200   44.4860 C.3    40  ARG40       0.1563
     79  C          3.8340   -9.7260   43.6160 C.2    40  ARG40       0.2260
     80  O          2.9440  -10.4560   44.0610 O.2    40  ARG40      -0.2867
     81  CB         4.7570   -7.9610   45.1490 C.3    40  ARG40       0.0307
     82  CG         5.6780   -7.6370   46.3280 C.3    40  ARG40       0.0489
     83  CD         5.1780   -6.4320   47.1350 C.3    40  ARG40       0.2205
     84  NE         5.2070   -5.1910   46.3610 N.pl3  40  ARG40      -0.0865
     85  CZ         6.2550   -4.3770   46.2870 C.cat  40  ARG40       0.5346
     86  NH1        7.3710   -4.6630   46.9440 N.pl3  40  ARG40       0.1354
     87  NH2        6.1880   -3.2720   45.5560 N.pl3  40  ARG40       0.1354
     88  N          9.8570   -2.5840   28.7600 N.3    73  ILE73      -0.1245
     89  CA         8.5610   -2.0620   28.3180 C.3    73  ILE73       0.1561
     90  C          8.3600   -2.2410   26.8020 C.2    73  ILE73       0.2260
     91  O          7.2270   -2.4220   26.3490 O.2    73  ILE73      -0.2867
     92  CB         8.3870   -0.5860   28.7380 C.3    73  ILE73       0.0252
     93  CG1        6.9140   -0.1670   28.6150 C.3    73  ILE73       0.0019
     94  CG2        9.3220    0.3210   27.9520 C.3    73  ILE73       0.0019
     95  CD1        6.6090    1.1550   29.2860 C.3    73  ILE73       0.0001
     96  N         -1.6050    1.7350   34.0890 N.3    86  ASN86      -0.1225
     97  CA        -2.0460    1.4310   35.4430 C.3    86  ASN86       0.1785
     98  C         -0.9720    1.8380   36.4570 C.2    86  ASN86       0.2597
     99  O         -0.6420    1.0800   37.3650 O.2    86  ASN86      -0.2718
    100  CB        -2.3570   -0.0730   35.5290 C.3    86  ASN86       0.1169
    101  CG        -3.0290   -0.4760   36.8280 C.2    86  ASN86       0.2627
    102  OD1       -3.9760    0.1640   37.2930 O.2    86  ASN86      -0.2716
    103  ND2       -2.5300   -1.5520   37.4230 N.am   86  ASN86      -0.0877
    104  N         -0.4180    3.0360   36.2770 N.am   87  VAL87      -0.1966
    105  CA         0.6900    3.5200   37.1030 C.3    87  VAL87       0.1712
    106  C          0.1160    4.4970   38.1510 C.2    87  VAL87       0.2458
    107  O         -1.0940    4.7010   38.1820 O.2    87  VAL87      -0.2730
    108  CB         1.8040    4.1600   36.2120 C.3    87  VAL87       0.0289
    109  CG1        2.2970    3.1420   35.1700 C.3    87  VAL87       0.0023
    110  CG2        1.3380    5.4760   35.5760 C.3    87  VAL87       0.0023
    111  N          0.9610    5.0730   39.0370 N.am   88  PRO88      -0.2716
    112  CA         0.3780    5.9140   40.0910 C.3    88  PRO88       0.1536
    113  C         -0.4730    7.0700   39.5880 C.2    88  PRO88       0.2598
    114  O         -0.3600    7.5280   38.4410 O.2    88  PRO88      -0.2715
    115  CB         1.6070    6.4540   40.8270 C.3    88  PRO88       0.0310
    116  CG         2.6280    5.3840   40.6610 C.3    88  PRO88       0.0237
    117  CD         2.3870    4.8050   39.2930 C.3    88  PRO88       0.0939
    118  N         -1.3290    7.5340   40.4880 N.am   89  GLU89      -0.1978
    119  CA        -2.2500    8.6220   40.2180 C.3    89  GLU89       0.1602
    120  C         -1.5240    9.9750   40.2250 C.2    89  GLU89       0.2287
    121  O         -1.6170   10.7610   41.1710 O.2    89  GLU89      -0.2864
    122  CB        -3.3790    8.5800   41.2430 C.3    89  GLU89       0.0415
    123  CG        -4.5380    9.4590   40.8910 C.3    89  GLU89       0.1163
    124  CD        -5.4530    8.8390   39.8510 C.2    89  GLU89       0.3649
    125  OE1       -6.6710    9.0480   39.9880 O.co2  89  GLU89      -0.2457
    126  OE2       -4.9670    8.1680   38.9010 O.co2  89  GLU89      -0.2457
    127  N          3.7060   11.2370   35.8350 N.3    93  ILE93      -0.1231
    128  CA         4.1310    9.8480   35.6410 C.3    93  ILE93       0.1692
    129  C          3.3410    9.1980   34.4980 C.2    93  ILE93       0.2591
    130  O          3.9150    8.4990   33.6680 O.2    93  ILE93      -0.2718
    131  CB         3.9770    9.0110   36.9300 C.3    93  ILE93       0.0266
    132  CG1        4.8320    9.6200   38.0480 C.3    93  ILE93       0.0019
    133  CG2        4.3960    7.5690   36.6910 C.3    93  ILE93       0.0020
    134  CD1        4.8200    8.8170   39.3370 C.3    93  ILE93       0.0001
    135  N          2.0310    9.4350   34.4430 N.am   94  LYS94      -0.1980
    136  CA         1.2310    8.8650   33.3560 C.3    94  LYS94       0.1596
    137  C          1.6780    9.4190   32.0010 C.2    94  LYS94       0.2287
    138  O          1.8110    8.6680   31.0270 O.2    94  LYS94      -0.2864
    139  CB        -0.2590    9.1230   33.5860 C.3    94  LYS94       0.0298
    140  CG        -0.8100    8.4720   34.8650 C.3    94  LYS94       0.0038
    141  CD        -2.3280    8.5180   34.9170 C.3    94  LYS94       0.0206
    142  CE        -2.8490    8.0120   36.2510 C.3    94  LYS94       0.1093
    143  NZ        -2.3690    6.6330   36.5820 N.3    94  LYS94      -0.1314
    144  N          4.6460   10.4460   31.2590 N.3    96  ASP96      -0.1225
    145  CA         5.9170    9.7760   30.9710 C.3    96  ASP96       0.1805
    146  C          5.6770    8.4430   30.2800 C.2    96  ASP96       0.2597
    147  O          6.3510    8.1030   29.3030 O.2    96  ASP96      -0.2718
    148  CB         6.7250    9.5390   32.2510 C.3    96  ASP96       0.1424
    149  CG         7.3020   10.8130   32.8320 C.2    96  ASP96       0.3668
    150  OD1        7.4560   11.8000   32.0850 O.co2  96  ASP96      -0.2456
    151  OD2        7.6100   10.8200   34.0430 O.co2  96  ASP96      -0.2456
    152  N          4.7170    7.6820   30.7990 N.am   97  VAL97      -0.1980
    153  CA         4.3980    6.3820   30.2170 C.3    97  VAL97       0.1595
    154  C          3.8930    6.5560   28.7830 C.2    97  VAL97       0.2287
    155  O          4.3440    5.8570   27.8730 O.2    97  VAL97      -0.2864
    156  CB         3.3510    5.6300   31.0560 C.3    97  VAL97       0.0276
    157  CG1        2.8260    4.4190   30.2950 C.3    97  VAL97       0.0022
    158  CG2        3.9490    5.2040   32.4020 C.3    97  VAL97       0.0022
    159  N         -6.4210    3.3630   33.7780 N.3   114  ASP114     -0.1225
    160  CA        -7.1670    2.9000   34.9480 C.3   114  ASP114      0.1805
    161  C         -7.3760    4.0260   35.9670 C.2   114  ASP114      0.2598
    162  O         -7.8800    3.7690   37.0620 O.2   114  ASP114     -0.2718
    163  CB        -6.4160    1.7260   35.5980 C.3   114  ASP114      0.1424
    164  CG        -7.2640    0.9210   36.5800 C.2   114  ASP114      0.3668
    165  OD1       -8.4950    0.8710   36.4410 O.co2 114  ASP114     -0.2456
    166  OD2       -6.6570    0.2700   37.4560 O.co2 114  ASP114     -0.2456
    167  N         -7.0230    5.2640   35.6080 N.am  115  THR115     -0.1939
    168  CA        -7.1150    6.3860   36.5470 C.3   115  THR115      0.2028
    169  C         -8.4930    6.4980   37.2020 C.2   115  THR115      0.2642
    170  O         -9.5240    6.2560   36.5770 O.2   115  THR115     -0.2714
    171  CB        -6.7870    7.7300   35.8670 C.3   115  THR115      0.1808
    172  OG1       -6.7790    8.7710   36.8620 O.3   115  THR115     -0.2208
    173  CG2       -7.8270    8.0680   34.7950 C.3   115  THR115      0.0379
    174  N         -8.4960    6.8730   38.4760 N.am  116  SER116     -0.1949
    175  CA        -9.7470    7.1760   39.1610 C.3   116  SER116      0.1924
    176  C        -10.1090    8.6620   39.0850 C.2   116  SER116      0.2314
    177  O        -11.2820    9.0120   38.9820 O.2   116  SER116     -0.2863
    178  CB        -9.6590    6.7360   40.6240 C.3   116  SER116      0.2116
    179  OG        -9.5430    5.3270   40.7250 O.3   116  SER116     -0.2180
    180  N        -11.8820    2.0660   33.7570 N.3   137  HIS137     -0.1226
    181  CA       -11.6960    2.1910   35.1890 C.3   137  HIS137      0.1752
    182  C        -12.2280    0.9590   35.9100 C.2   137  HIS137      0.2596
    183  O        -13.4330    0.7640   36.0240 O.2   137  HIS137     -0.2718
    184  CB       -12.3830    3.4580   35.6920 C.3   137  HIS137      0.0759
    185  CG       -12.2730    3.6530   37.1660 C.ar  137  HIS137      0.0818
    186  ND1      -13.3730    3.6340   37.9930 N.ar  137  HIS137     -0.2268
    187  CD2      -11.1980    3.8620   37.9640 C.ar  137  HIS137      0.1154
    188  CE1      -12.9830    3.8310   39.2400 C.ar  137  HIS137      0.1986
    189  NE2      -11.6690    3.9790   39.2510 N.ar  137  HIS137     -0.2212
    190  N        -11.2990    0.1230   36.3550 N.am  138  TRP138     -0.1962
    191  CA       -11.6070   -1.0880   37.0910 C.3   138  TRP138      0.1771
    192  C        -11.8310   -0.7720   38.5580 C.2   138  TRP138      0.2620
    193  O        -11.5920    0.3520   39.0040 O.2   138  TRP138     -0.2715
    194  CB       -10.4670   -2.0900   36.9530 C.3   138  TRP138      0.0590
    195  CG       -10.1810   -2.5630   35.5520 C.ar  138  TRP138      0.0006
    196  CD1       -9.7560   -1.8100   34.4830 C.ar  138  TRP138      0.0946
    197  CD2      -10.2560   -3.9110   35.0900 C.ar  138  TRP138      0.0152
    198  NE1       -9.5780   -2.6170   33.3760 N.ar  138  TRP138     -0.2442
    199  CE2       -9.8830   -3.9100   33.7240 C.ar  138  TRP138      0.0810
    200  CE3      -10.6110   -5.1240   35.6960 C.ar  138  TRP138      0.0012
    201  CZ2       -9.8490   -5.0770   32.9630 C.ar  138  TRP138      0.0191
    202  CZ3      -10.5880   -6.2830   34.9330 C.ar  138  TRP138      0.0001
    203  CH2      -10.2050   -6.2510   33.5810 C.ar  138  TRP138      0.0015
    204  N        -12.2930   -1.7660   39.3090 N.am  139  SER139     -0.1936
    205  CA       -12.4710   -1.6160   40.7530 C.3   139  SER139      0.2055
    206  C        -11.6930   -2.6850   41.5150 C.2   139  SER139      0.2643
    207  O        -11.4430   -3.7670   40.9920 O.2   139  SER139     -0.2714
    208  CB       -13.9590   -1.6820   41.1230 C.3   139  SER139      0.2130
    209  OG       -14.6740   -0.5510   40.6320 O.3   139  SER139     -0.2179
    210  N        -11.3030   -2.3770   42.7500 N.am  140  ASN140     -0.1971
    211  CA       -10.5090   -3.3080   43.5480 C.3   140  ASN140      0.1688
    212  C        -11.4020   -4.2600   44.3320 C.2   140  ASN140      0.2292
    213  O        -12.3050   -3.8030   45.0200 O.2   140  ASN140     -0.2864
    214  CB        -9.6090   -2.5230   44.5000 C.3   140  ASN140      0.1181
    215  CG        -8.6740   -3.4150   45.2890 C.2   140  ASN140      0.2629
    216  OD1       -8.1290   -4.3860   44.7680 O.2   140  ASN140     -0.2716
    217  ND2       -8.4570   -3.0630   46.5520 N.am  140  ASN140     -0.0877
@<TRIPOS>BOND
     1    91    90    2
     2    90    89    1
     3   155   154    2
     4    94    92    1
     5    89    92    1
     6    89    88    1
     7    93    92    1
     8    93    95    1
     9   154   153    1
    10   147   146    2
    11     8     6    1
    12     6     5    1
    13   153   152    1
    14   153   156    1
    15   146   152   am
    16   146   145    1
    17   157   156    1
    18   145   144    1
    19   145   148    1
    20   138   137    2
    21   156   158    1
    22     5     7    1
    23     5     2    1
    24    44    45    1
    25    44    41    1
    26     1     2    1
    27   137   136    1
    28    45    46   ar
    29    45    47   ar
    30    46    48   ar
    31   150   149   ar
    32   148   149    1
    33    47    49   ar
    34    48    50   ar
    35     2     3    1
    36    49    50   ar
    37    50    51    1
    38    40    41    1
    39   149   151   ar
    40    41    42    1
    41   201   203   ar
    42   201   199   ar
    43   136   139    1
    44   136   135    1
    45   198   199   ar
    46   198   196   ar
    47   203   202   ar
    48   139   140    1
    49   130   129    2
    50   199   197   ar
    51   180   181    1
    52   159   160    1
    53     3     4    2
    54     3     9   am
    55    96    97    1
    56    42    43    2
    57    42    52   am
    58   135   129   am
    59   196   195   ar
    60   129   128    1
    61   173   171    1
    62   140   141    1
    63     9    10    1
    64   141   142    1
    65   202   200   ar
    66   160   163    1
    67   160   161    1
    68    52    53    1
    69   197   195   ar
    70   197   200   ar
    71   109   108    1
    72   181   184    1
    73   181   182    1
    74    97   100    1
    75    97    98    1
    76   100   101    1
    77   195   194    1
    78   110   108    1
    79   163   164    1
    80   167   161   am
    81   167   168    1
    82   128   127    1
    83   128   131    1
    84   184   185    1
    85   171   168    1
    86   171   172    1
    87    55    54    2
    88   182   183    2
    89   182   190   am
    90   161   162    2
    91    53    54    1
    92    53    56    1
    93    54    60   am
    94   108   105    1
    95   142   143    1
    96   104    98   am
    97   104   105    1
    98    10    11    1
    99   190   191    1
   100    66    64    1
   101   165   164   ar
   102    98    99    2
   103    60    61    1
   104   168   169    1
   105    12    11    2
   106   170   169    2
   107   164   166   ar
   108    61    64    1
   109    61    62    1
   110    20    18    1
   111    19    18    1
   112    64    65    1
   113   133   131    1
   114    18    17    1
   115   101   102    2
   116   101   103   am
   117   131   132    1
   118   194   191    1
   119    11    13   am
   120   191   192    1
   121   105   106    1
   122   185   187   ar
   123   185   186   ar
   124   169   174   am
   125    56    57    1
   126    62    63    2
   127    62    67   am
   128    13    14    1
   129   187   189   ar
   130   186   188   ar
   131   132   134    1
   132   106   107    2
   133   106   111   am
   134    17    14    1
   135    57    58   ar
   136    57    59   ar
   137   114   113    2
   138   174   175    1
   139    35    34    2
   140    14    15    1
   141   192   193    2
   142   192   204   am
   143    67    68    1
   144   126   124   ar
   145   177   176    2
   146   111   117    1
   147   111   112    1
   148   176   175    1
   149   175   178    1
   150   188   189   ar
   151   117   116    1
   152   204   205    1
   153    34    33    1
   154   113   112    1
   155   113   118   am
   156   124   125   ar
   157   124   123    1
   158    36    33    1
   159    36    37    1
   160    39    38    1
   161    68    69    1
   162    68    71    1
   163    15    21   am
   164    15    16    2
   165   112   115    1
   166    69    70    2
   167   119   120    1
   168   119   118    1
   169   119   122    1
   170   120   121    2
   171    33    32    1
   172    21    22    1
   173   178   179    1
   174   209   208    1
   175   116   115    1
   176   205   208    1
   177   205   206    1
   178    37    38    1
   179   123   122    1
   180   207   206    2
   181    74    75    2
   182    74    73    1
   183   206   210   am
   184    32    27   am
   185    76    73    1
   186    24    23    2
   187    22    23    1
   188    73    72    1
   189    23    25   am
   190    27    28    2
   191    27    26    1
   192   210   211    1
   193    25    26    1
   194   211   212    1
   195   211   214    1
   196    79    80    2
   197    79    78    1
   198    77    78    1
   199    26    29    1
   200   212   213    2
   201    78    81    1
   202   214   215    1
   203    29    31    1
   204    29    30    1
   205   216   215    2
   206    81    82    1
   207   215   217   am
   208    87    85    1
   209    85    84    2
   210    85    86    1
   211    82    83    1
   212    84    83    1
