@<TRIPOS>MOLECULE
tmp/4omaA00.pdb
 156 145 0 0 0
SMALL
GASTEIGER

@<TRIPOS>ATOM
      1  N          0.7260   17.3010    5.1090 N.3    86  SER86      -0.1202
      2  CA         1.7940   17.4290    6.1410 C.3    86  SER86       0.2020
      3  C          1.3460   18.3480    7.2410 C.2    86  SER86       0.2619
      4  O          0.3280   19.1350    7.0860 O.2    86  SER86      -0.2717
      5  CB         3.0470   18.0270    5.5150 C.3    86  SER86       0.2103
      6  OG         2.9150   19.3890    5.0850 O.3    86  SER86      -0.2182
      7  N          2.0630   18.2820    8.3490 N.am   87  GLY87      -0.1942
      8  CA         1.8010   19.2310    9.4620 C.3    87  GLY87       0.2014
      9  C          1.9510   20.6820    9.0290 C.2    87  GLY87       0.2638
     10  O          1.1200   21.5300    9.3030 O.2    87  GLY87      -0.2714
     11  N          2.9820   20.9600    8.2360 N.am   88  ILE88      -0.1977
     12  CA         3.1420   22.2750    7.6950 C.3    88  ILE88       0.1596
     13  C          1.9130   22.7150    6.9030 C.2    88  ILE88       0.2287
     14  O          1.4370   23.7890    7.0900 O.2    88  ILE88      -0.2864
     15  CB         4.4160   22.4440    6.8360 C.3    88  ILE88       0.0276
     16  CG1        5.6180   22.4180    7.7690 C.3    88  ILE88       0.0022
     17  CG2        4.3680   23.7330    6.0460 C.3    88  ILE88       0.0022
     18  CD1        5.6040   23.5320    8.8040 C.3    88  ILE88       0.0001
     19  N         -0.8860   23.8350    9.0230 N.3    91  ILE91      -0.1245
     20  CA        -0.6800   25.1550    9.5950 C.3    91  ILE91       0.1561
     21  C         -0.8980   26.2210    8.5500 C.2    91  ILE91       0.2260
     22  O         -1.5460   27.2510    8.8110 O.2    91  ILE91      -0.2867
     23  CB         0.7980   25.2560   10.1240 C.3    91  ILE91       0.0252
     24  CG1        0.8920   24.3480   11.3360 C.3    91  ILE91       0.0019
     25  CG2        1.1530   26.6740   10.5200 C.3    91  ILE91       0.0019
     26  CD1        2.2900   23.9390   11.7070 C.3    91  ILE91       0.0001
     27  N          8.2740   25.2980   16.1800 N.3   112  TYR112     -0.1241
     28  CA         8.9280   24.4660   15.1880 C.3   112  TYR112      0.1605
     29  C          9.5860   25.3270   14.0970 C.2   112  TYR112      0.2264
     30  O          9.0280   26.2990   13.6250 O.2   112  TYR112     -0.2867
     31  CB         7.9580   23.4380   14.5970 C.3   112  TYR112      0.0534
     32  CG         8.5590   22.6370   13.4720 C.ar  112  TYR112     -0.0201
     33  CD1        9.7220   21.8770   13.6630 C.ar  112  TYR112     -0.0009
     34  CD2        7.9860   22.6630   12.2060 C.ar  112  TYR112     -0.0009
     35  CE1       10.2770   21.1740   12.6260 C.ar  112  TYR112      0.0417
     36  CE2        8.5430   21.9520   11.1580 C.ar  112  TYR112      0.0417
     37  CZ         9.6780   21.2060   11.3650 C.ar  112  TYR112      0.1957
     38  OH        10.1710   20.5160   10.2850 O.3   112  TYR112     -0.2866
     39  N          2.3770   26.9100   20.2120 N.3   155  GLU155     -0.1245
     40  CA         2.6690   25.5130   20.5180 C.3   155  GLU155      0.1567
     41  C          2.9130   25.3360   22.0250 C.2   155  GLU155      0.2260
     42  O          3.5950   26.1690   22.6820 O.2   155  GLU155     -0.2867
     43  CB         3.9970   25.0560   19.8750 C.3   155  GLU155      0.0388
     44  CG         4.0000   24.7730   18.4250 C.3   155  GLU155      0.1160
     45  CD         5.3930   24.5030   17.8990 C.2   155  GLU155      0.3649
     46  OE1        6.2600   23.9210   18.6380 O.co2 155  GLU155     -0.2457
     47  OE2        5.5970   24.8650   16.7330 O.co2 155  GLU155     -0.2457
     48  N          8.8570   23.2450   21.2430 N.3   159  ASN159     -0.1240
     49  CA         9.9090   22.3250   20.6750 C.3   159  ASN159      0.1653
     50  C         11.3920   22.3030   21.1610 C.2   159  ASN159      0.2266
     51  O         12.0110   21.2210   21.0920 O.2   159  ASN159     -0.2867
     52  CB         9.9480   22.4750   19.1530 C.3   159  ASN159      0.1155
     53  CG        10.3670   23.8770   18.7330 C.2   159  ASN159      0.2627
     54  OD1        9.9640   24.8450   19.3660 O.2   159  ASN159     -0.2716
     55  ND2       11.1820   23.9920   17.6770 N.am  159  ASN159     -0.0877
     56  N         -1.0600   24.4170   17.9960 N.3   184  ASP184     -0.1239
     57  CA        -0.4420   23.2460   17.4610 C.3   184  ASP184      0.1674
     58  C         -0.2240   22.2750   18.6390 C.2   184  ASP184      0.2266
     59  O          0.5850   22.5210   19.5740 O.2   184  ASP184     -0.2867
     60  CB         0.8850   23.6330   16.7530 C.3   184  ASP184      0.1410
     61  CG         1.6480   22.4220   16.1300 C.2   184  ASP184      0.3668
     62  OD1        1.4550   21.2740   16.5540 O.co2 184  ASP184     -0.2456
     63  OD2        2.5020   22.6200   15.2140 O.co2 184  ASP184     -0.2456
     64  N          0.6900   19.0180   18.3760 N.3   186  THR186     -0.1203
     65  CA         1.4800   17.8640   17.8890 C.3   186  THR186      0.1994
     66  C          2.2070   17.1150   19.0180 C.2   186  THR186      0.2617
     67  O          2.1600   15.8600   19.0880 O.2   186  THR186     -0.2717
     68  CB         2.5140   18.3570   16.8810 C.3   186  THR186      0.1784
     69  OG1        1.8900   18.9170   15.7200 O.3   186  THR186     -0.2211
     70  CG2        3.4990   17.2530   16.4380 C.3   186  THR186      0.0376
     71  N          2.9070   17.8570   19.8860 N.am  187  PHE187     -0.1975
     72  CA         3.7230   17.2030   20.9470 C.3   187  PHE187      0.1639
     73  C          2.9200   16.3300   21.9170 C.2   187  PHE187      0.2290
     74  O          3.4000   15.3040   22.3660 O.2   187  PHE187     -0.2864
     75  CB         4.5770   18.2160   21.7040 C.3   187  PHE187      0.0560
     76  CG         5.9330   18.4460   21.0940 C.ar  187  PHE187     -0.0200
     77  CD1        6.1370   18.4220   19.6860 C.ar  187  PHE187     -0.0042
     78  CD2        7.0230   18.6960   21.9300 C.ar  187  PHE187     -0.0042
     79  CE1        7.3960   18.6520   19.1410 C.ar  187  PHE187     -0.0003
     80  CE2        8.2850   18.9320   21.3710 C.ar  187  PHE187     -0.0003
     81  CZ         8.4750   18.9090   19.9840 C.ar  187  PHE187     -0.0000
     82  N          0.8730   18.0150   13.2590 N.3   206  SER206     -0.1217
     83  CA         1.5740   17.0770   12.3880 C.3   206  SER206      0.1889
     84  C          1.2140   15.6590   12.8400 C.2   206  SER206      0.2288
     85  O          1.6070   15.2480   13.9500 O.2   206  SER206     -0.2866
     86  CB         3.1230   17.2590   12.5500 C.3   206  SER206      0.2089
     87  OG         3.7210   16.2440   11.7950 O.3   206  SER206     -0.2183
     88  N          2.3140   13.2050   11.5750 N.3   208  THR208     -0.1203
     89  CA         3.5570   12.4900   11.3820 C.3   208  THR208      0.1994
     90  C          4.1380   11.9750   12.7010 C.2   208  THR208      0.2617
     91  O          4.8350   10.9460   12.7480 O.2   208  THR208     -0.2717
     92  CB         4.5570   13.4740   10.7610 C.3   208  THR208      0.1784
     93  OG1        4.0240   14.0600    9.5730 O.3   208  THR208     -0.2211
     94  CG2        5.9810   12.8160   10.4890 C.3   208  THR208      0.0376
     95  N          3.8460   12.7040   13.7640 N.am  209  LYS209     -0.1979
     96  CA         4.3590   12.3810   15.0870 C.3   209  LYS209      0.1596
     97  C          3.4670   11.3560   15.8040 C.2   209  LYS209      0.2287
     98  O          3.2060   10.2720   15.2320 O.2   209  LYS209     -0.2864
     99  CB         4.6700   13.6720   15.8590 C.3   209  LYS209      0.0298
    100  CG         5.2210   14.7680   14.9570 C.3   209  LYS209      0.0038
    101  CD         6.4030   14.3310   14.0710 C.3   209  LYS209      0.0206
    102  CE         7.0580   15.5100   13.3500 C.3   209  LYS209      0.1093
    103  NZ         8.2310   15.0970   12.5160 N.3   209  LYS209     -0.1314
    104  N          4.0010   11.1500    6.5620 N.3   218  ILE218     -0.1231
    105  CA         4.0230   12.5890    6.6910 C.3   218  ILE218      0.1692
    106  C          2.4930   13.0410    6.4450 C.2   218  ILE218      0.2592
    107  O          1.9260   12.7030    5.4270 O.2   218  ILE218     -0.2718
    108  CB         4.8490   13.3180    5.6470 C.3   218  ILE218      0.0266
    109  CG1        6.3390   12.8690    5.7200 C.3   218  ILE218      0.0019
    110  CG2        4.7380   14.8210    5.8230 C.3   218  ILE218      0.0020
    111  CD1        7.0000   13.1730    7.0400 C.3   218  ILE218      0.0001
    112  N          1.9430   13.7960    7.3640 N.am  219  GLY219     -0.1957
    113  CA         0.5630   14.2370    7.2750 C.3   219  GLY219      0.1869
    114  C          0.2500   15.2540    8.3590 C.2   219  GLY219      0.2309
    115  O          0.9980   15.4090    9.3360 O.2   219  GLY219     -0.2863
    116  N         15.8920   13.3530   12.9700 N.3   337  VAL337     -0.1231
    117  CA        14.9380   14.3550   13.3440 C.3   337  VAL337      0.1692
    118  C         13.5480   13.6510   13.4130 C.2   337  VAL337      0.2593
    119  O         13.3850   12.4420   13.1520 O.2   337  VAL337     -0.2718
    120  CB        14.9850   15.5970   12.4210 C.3   337  VAL337      0.0266
    121  CG1       16.4020   16.0910   12.3460 C.3   337  VAL337      0.0020
    122  CG2       14.4220   15.3320   11.0080 C.3   337  VAL337      0.0020
    123  N         12.5440   14.3890   13.7250 N.am  338  SER338     -0.1938
    124  CA        11.2470   13.7510   13.9910 C.3   338  SER338      0.2055
    125  C         11.1670   13.2010   15.4310 C.2   338  SER338      0.2642
    126  O         12.1500   13.1550   16.1770 O.2   338  SER338     -0.2714
    127  CB        10.8620   12.6740   12.9570 C.3   338  SER338      0.2130
    128  OG         9.3560   12.5690   12.8920 O.3   338  SER338     -0.2179
    129  N          9.9770   12.7670   15.8130 N.am  339  LEU339     -0.1977
    130  CA         9.6510   12.3930   17.1820 C.3   339  LEU339      0.1596
    131  C          8.3300   11.6550   17.1090 C.2   339  LEU339      0.2287
    132  O          7.6570   11.6870   16.0770 O.2   339  LEU339     -0.2864
    133  CB         9.4470   13.6270   18.1000 C.3   339  LEU339      0.0297
    134  CG         8.3530   14.6210   17.6400 C.3   339  LEU339      0.0022
    135  CD1        7.1780   14.8360   18.6080 C.3   339  LEU339      0.0001
    136  CD2        8.9890   15.9540   17.2910 C.3   339  LEU339      0.0001
    137  N         18.4560   13.8250   18.7900 N.3   347  GLN347     -0.1245
    138  CA        19.1140   14.8380   17.9510 C.3   347  GLN347      0.1566
    139  C         19.8180   15.8830   18.8190 C.2   347  GLN347      0.2260
    140  O         19.4230   16.1480   19.9310 O.2   347  GLN347     -0.2867
    141  CB        18.1900   15.4590   16.9180 C.3   347  GLN347      0.0367
    142  CG        16.9280   16.1330   17.4590 C.3   347  GLN347      0.0905
    143  CD        16.5840   17.4100   16.7220 C.2   347  GLN347      0.2608
    144  OE1       17.0890   17.7010   15.6680 O.2   347  GLN347     -0.2717
    145  NE2       15.7620   18.1940   17.3200 N.am  347  GLN347     -0.0878
    146  N         17.8690   16.7350   22.2240 N.3   373  ARG373     -0.1245
    147  CA        16.4510   16.3970   22.2990 C.3   373  ARG373      0.1563
    148  C         16.2500   14.8870   22.0940 C.2   373  ARG373      0.2260
    149  O         16.7230   14.3080   21.1130 O.2   373  ARG373     -0.2867
    150  CB        15.6270   17.1740   21.2810 C.3   373  ARG373      0.0307
    151  CG        14.0820   17.0780   21.5850 C.3   373  ARG373      0.0489
    152  CD        13.1910   17.5690   20.4350 C.3   373  ARG373      0.2205
    153  NE        13.1410   16.6730   19.2660 N.pl3 373  ARG373     -0.0865
    154  CZ        12.5270   16.9660   18.1070 C.cat 373  ARG373      0.5346
    155  NH1       11.8820   18.1320   17.9610 N.pl3 373  ARG373      0.1354
    156  NH2       12.5440   16.1000   17.0800 N.pl3 373  ARG373      0.1354
@<TRIPOS>BOND
     1     6     5    1
     2     1     2    1
     3   107   106    2
     4     5     2    1
     5   108   109    1
     6   108   110    1
     7   108   105    1
     8   109   111    1
     9    17    15    1
    10     2     3    1
    11   106   105    1
    12   106   112   am
    13   104   105    1
    14    15    12    1
    15    15    16    1
    16    13    14    2
    17    13    12    1
    18     4     3    2
    19     3     7   am
    20   113   112    1
    21   113   114    1
    22    12    11    1
    23    16    18    1
    24    11     9   am
    25     7     8    1
    26   114   115    2
    27    21    22    2
    28    21    20    1
    29    19    20    1
    30     9    10    2
    31     9     8    1
    32    93    92    1
    33    20    23    1
    34    23    25    1
    35    23    24    1
    36    38    37    1
    37    94    92    1
    38    92    89    1
    39   122   120    1
    40    36    37   ar
    41    36    34   ar
    42    24    26    1
    43    37    35   ar
    44    89    88    1
    45    89    90    1
    46    87    86    1
    47    34    32   ar
    48   121   120    1
    49    83    86    1
    50    83    84    1
    51    83    82    1
    52   120   117    1
    53   103   102    1
    54    35    33   ar
    55    90    91    2
    56    90    95   am
    57    84    85    2
    58   128   127    1
    59   127   124    1
    60   116   117    1
    61   119   118    2
    62   117   118    1
    63   102   101    1
    64   118   123   am
    65    32    33   ar
    66    32    31    1
    67    30    29    2
    68   123   124    1
    69    95    96    1
    70   124   125    1
    71   101   100    1
    72    29    28    1
    73    31    28    1
    74   100    99    1
    75    96    97    1
    76    96    99    1
    77    28    27    1
    78    63    61   ar
    79    98    97    2
    80   125   129   am
    81   125   126    2
    82   144   143    2
    83    69    68    1
    84   129   130    1
    85   132   131    2
    86    61    62   ar
    87    61    60    1
    88    70    68    1
    89   143   145   am
    90   143   142    1
    91    47    45   ar
    92    60    57    1
    93    68    65    1
    94   141   142    1
    95   141   138    1
    96   156   154    1
    97   131   130    1
    98   130   133    1
    99   136   134    1
   100    57    56    1
   101    57    58    1
   102   134   133    1
   103   134   135    1
   104    55    53   am
   105    65    64    1
   106    65    66    1
   107    45    44    1
   108    45    46   ar
   109   138   137    1
   110   138   139    1
   111   155   154    1
   112   154   153    2
   113    44    43    1
   114    58    59    2
   115    53    52    1
   116    53    54    2
   117   139   140    2
   118    66    67    2
   119    66    71   am
   120    79    77   ar
   121    79    81   ar
   122    52    49    1
   123   153   152    1
   124    77    76   ar
   125    43    40    1
   126    71    72    1
   127    81    80   ar
   128    39    40    1
   129   152   151    1
   130    40    41    1
   131    49    50    1
   132    49    48    1
   133    72    75    1
   134    72    73    1
   135    51    50    2
   136    76    75    1
   137    76    78   ar
   138   149   148    2
   139   150   151    1
   140   150   147    1
   141    80    78   ar
   142    73    74    2
   143    41    42    2
   144   148   147    1
   145   146   147    1
