@<TRIPOS>MOLECULE
tmp/4omaA01.pdb
 105 104 0 0 0
SMALL
GASTEIGER

@<TRIPOS>ATOM
      1  N        -12.7270    7.4650   26.2760 N.3     8  PHE8       -0.1241
      2  CA       -11.7000    7.9660   25.3460 C.3     8  PHE8        0.1605
      3  C        -10.9450    6.8960   24.6120 C.2     8  PHE8        0.2264
      4  O        -10.6640    7.0540   23.4280 O.2     8  PHE8       -0.2867
      5  CB       -10.7410    8.9050   26.0110 C.3     8  PHE8        0.0534
      6  CG       -10.0840    9.8520   25.0640 C.ar    8  PHE8       -0.0203
      7  CD1      -10.7070   10.9960   24.6550 C.ar    8  PHE8       -0.0042
      8  CD2       -8.8010    9.6050   24.5900 C.ar    8  PHE8       -0.0042
      9  CE1      -10.0800   11.8740   23.7890 C.ar    8  PHE8       -0.0003
     10  CE2       -8.1690   10.4770   23.7310 C.ar    8  PHE8       -0.0003
     11  CZ        -8.7840   11.6340   23.3490 C.ar    8  PHE8       -0.0000
     12  N         -4.2220   14.4780   21.1960 N.3   190  PRO190     -0.2102
     13  CA        -5.4350   14.7030   21.9790 C.3   190  PRO190      0.1504
     14  C         -5.4910   13.8390   23.2340 C.2   190  PRO190      0.2576
     15  O         -6.1860   14.2000   24.1510 O.2   190  PRO190     -0.2718
     16  CB        -6.5550   14.3720   21.0050 C.3   190  PRO190      0.0282
     17  CG        -5.9800   13.7640   19.8140 C.3   190  PRO190      0.0208
     18  CD        -4.4680   13.9660   19.8500 C.3   190  PRO190      0.0893
     19  N         -4.8200   12.6660   23.2700 N.am  191  TYR191     -0.1963
     20  CA        -4.7710   11.8920   24.5020 C.3   191  TYR191      0.1771
     21  C         -4.2090   12.6430   25.7450 C.2   191  TYR191      0.2620
     22  O         -4.5820   12.3180   26.8650 O.2   191  TYR191     -0.2715
     23  CB        -3.9990   10.5900   24.3060 C.3   191  TYR191      0.0574
     24  CG        -4.1300    9.5940   25.4310 C.ar  191  TYR191     -0.0198
     25  CD1       -5.2400    8.7520   25.5150 C.ar  191  TYR191     -0.0009
     26  CD2       -3.0890    9.4090   26.3740 C.ar  191  TYR191     -0.0009
     27  CE1       -5.3330    7.7980   26.5010 C.ar  191  TYR191      0.0417
     28  CE2       -3.1990    8.4730   27.3940 C.ar  191  TYR191      0.0417
     29  CZ        -4.3510    7.6720   27.4500 C.ar  191  TYR191      0.1957
     30  OH        -4.5160    6.7220   28.4490 O.3   191  TYR191     -0.2866
     31  N         -3.3750   13.6650   25.5420 N.am  192  CYS192     -0.1954
     32  CA        -2.6700   14.3000   26.6370 C.3   192  CYS192      0.1843
     33  C         -3.0480   15.7630   26.8570 C.2   192  CYS192      0.2625
     34  O         -2.8190   16.3010   27.9020 O.2   192  CYS192     -0.2714
     35  CB        -1.1400   14.2140   26.4330 C.3   192  CYS192      0.0997
     36  SG        -0.4920   12.5340   26.4490 S.3   192  CYS192     -0.0797
     37  N         -3.5790   16.4210   25.8510 N.am  193  GLN193     -0.1963
     38  CA        -3.9370   17.8100   25.9480 C.3   193  GLN193      0.1733
     39  C         -5.1230   18.0620   24.9470 C.2   193  GLN193      0.2616
     40  O         -5.0960   17.5710   23.8270 O.2   193  GLN193     -0.2715
     41  CB        -2.7920   18.6770   25.5830 C.3   193  GLN193      0.0408
     42  CG        -3.0370   20.1630   25.7030 C.3   193  GLN193      0.0908
     43  CD        -1.6960   20.9190   25.6290 C.2   193  GLN193      0.2608
     44  OE1       -1.1600   21.3240   26.6500 O.2   193  GLN193     -0.2717
     45  NE2       -1.1710   21.0880   24.4090 N.am  193  GLN193     -0.0878
     46  N         -6.1270   18.8380   25.3550 N.am  194  GLN194     -0.1977
     47  CA        -7.2410   19.1720   24.4620 C.3   194  GLN194      0.1601
     48  C         -7.4790   20.6930   24.3630 C.2   194  GLN194      0.2287
     49  O         -8.2840   21.2620   25.1180 O.2   194  GLN194     -0.2864
     50  CB        -8.4850   18.4470   24.9260 C.3   194  GLN194      0.0394
     51  CG        -8.4300   16.9540   24.5780 C.3   194  GLN194      0.0908
     52  CD        -9.6250   16.2620   25.1210 C.2   194  GLN194      0.2608
     53  OE1      -10.2330   16.7170   26.0740 O.2   194  GLN194     -0.2717
     54  NE2       -9.9390   15.1260   24.5720 N.am  194  GLN194     -0.0878
     55  N        -10.1060   24.0920   26.3360 N.3   198  LEU198     -0.1245
     56  CA        -9.5500   25.1940   27.0940 C.3   198  LEU198      0.1561
     57  C         -9.7730   26.5600   26.4300 C.2   198  LEU198      0.2260
     58  O         -9.3110   27.5900   26.9250 O.2   198  LEU198     -0.2867
     59  CB        -8.0380   24.9260   27.2550 C.3   198  LEU198      0.0270
     60  CG        -7.7030   23.7400   28.1790 C.3   198  LEU198      0.0019
     61  CD1       -6.1840   23.5420   28.3230 C.3   198  LEU198      0.0001
     62  CD2       -8.2980   23.8940   29.5670 C.3   198  LEU198      0.0001
     63  N          0.3780   20.4330   35.0940 N.3   302  GLN302     -0.1231
     64  CA        -0.5230   19.5190   35.7800 C.3   302  GLN302      0.1698
     65  C         -1.9960   19.8350   35.5050 C.2   302  GLN302      0.2592
     66  O         -2.8080   18.9210   35.4750 O.2   302  GLN302     -0.2718
     67  CB        -0.2190   19.4520   37.2910 C.3   302  GLN302      0.0381
     68  CG         1.1690   18.9200   37.6570 C.3   302  GLN302      0.0905
     69  CD         1.4280   17.4850   37.2230 C.2   302  GLN302      0.2608
     70  OE1        2.2750   17.2060   36.3560 O.2   302  GLN302     -0.2717
     71  NE2        0.7220   16.5680   37.8300 N.am  302  GLN302     -0.0878
     72  N         -2.3430   21.0940   35.3010 N.am  303  ARG303     -0.1966
     73  CA        -3.7520   21.4690   35.0140 C.3   303  ARG303      0.1729
     74  C         -4.1510   21.2010   33.5710 C.2   303  ARG303      0.2616
     75  O         -5.2860   20.8720   33.2690 O.2   303  ARG303     -0.2715
     76  CB        -4.0010   22.9670   35.2590 C.3   303  ARG303      0.0348
     77  CG        -4.2840   23.3450   36.6900 C.3   303  ARG303      0.0492
     78  CD        -4.9210   24.7410   36.8030 C.3   303  ARG303      0.2205
     79  NE        -4.1210   25.8140   36.1870 N.pl3 303  ARG303     -0.0865
     80  CZ        -3.0170   26.3520   36.7190 C.cat 303  ARG303      0.5346
     81  NH1       -2.5460   25.9390   37.8930 N.pl3 303  ARG303      0.1354
     82  NH2       -2.3680   27.3140   36.0790 N.pl3 303  ARG303      0.1354
     83  N         -3.2180   21.4040   32.6710 N.am  304  GLN304     -0.1963
     84  CA        -3.4990   21.4800   31.2510 C.3   304  GLN304      0.1733
     85  C         -3.2390   20.1710   30.4990 C.2   304  GLN304      0.2616
     86  O         -3.8450   19.9250   29.4670 O.2   304  GLN304     -0.2715
     87  CB        -2.6490   22.6270   30.7250 C.3   304  GLN304      0.0408
     88  CG        -2.6470   22.9190   29.2610 C.3   304  GLN304      0.0908
     89  CD        -1.9640   24.2430   29.0070 C.2   304  GLN304      0.2608
     90  OE1       -2.5520   25.2850   29.2320 O.2   304  GLN304     -0.2717
     91  NE2       -0.7030   24.2110   28.5370 N.am  304  GLN304     -0.0878
     92  N         -2.3450   19.3520   31.0160 N.am  305  MET305     -0.1963
     93  CA        -1.9240   18.1090   30.3430 C.3   305  MET305      0.1736
     94  C         -2.2640   16.9310   31.2450 C.2   305  MET305      0.2617
     95  O         -2.0720   17.0080   32.4770 O.2   305  MET305     -0.2715
     96  CB        -0.3950   18.1340   30.1290 C.3   305  MET305      0.0427
     97  CG         0.1070   19.4130   29.4340 C.3   305  MET305      0.0599
     98  SD         1.8120   19.7930   29.8090 S.3   305  MET305     -0.1393
     99  CE         2.6770   18.4030   29.1050 C.3   305  MET305      0.0692
    100  N         -2.7300   15.8310   30.6550 N.am  306  SER306     -0.1950
    101  CA        -3.0550   14.6440   31.4330 C.3   306  SER306      0.1924
    102  C         -1.8610   13.7970   31.6960 C.2   306  SER306      0.2314
    103  O         -1.9030   12.9810   32.6310 O.2   306  SER306     -0.2863
    104  CB        -4.0760   13.8000   30.7410 C.3   306  SER306      0.2116
    105  OG        -3.5190   13.2830   29.5450 O.3   306  SER306     -0.2180
@<TRIPOS>BOND
     1    17    18    1
     2    17    16    1
     3    18    12    1
     4    16    13    1
     5    12    13    1
     6    13    14    1
     7    14    19   am
     8    14    15    2
     9    19    20    1
    10    11    10   ar
    11    11     9   ar
    12     4     3    2
    13    10     8   ar
    14     9     7   ar
    15    40    39    2
    16    23    20    1
    17    23    24    1
    18    48    47    1
    19    48    49    2
    20    45    43   am
    21    47    50    1
    22    47    46    1
    23    20    21    1
    24    54    52   am
    25    51    50    1
    26    51    52    1
    27     8     6   ar
    28     3     2    1
    29     7     6   ar
    30    39    46   am
    31    39    38    1
    32     6     5    1
    33    52    53    2
    34     2     5    1
    35     2     1    1
    36    24    25   ar
    37    24    26   ar
    38    25    27   ar
    39    31    21   am
    40    31    32    1
    41    41    42    1
    42    41    38    1
    43    43    42    1
    44    43    44    2
    45    21    22    2
    46    37    38    1
    47    37    33   am
    48    55    56    1
    49    26    28   ar
    50    57    58    2
    51    57    56    1
    52    35    36    1
    53    35    32    1
    54    27    29   ar
    55    32    33    1
    56    33    34    2
    57    56    59    1
    58    59    60    1
    59    28    29   ar
    60    29    30    1
    61    60    61    1
    62    60    62    1
    63    91    89   am
    64    89    90    2
    65    89    88    1
    66    99    98    1
    67    88    87    1
    68    97    98    1
    69    97    96    1
    70    86    85    2
    71   105   104    1
    72    96    93    1
    73    93    92    1
    74    93    94    1
    75    85    92   am
    76    85    84    1
    77   100    94   am
    78   100   101    1
    79    87    84    1
    80   104   101    1
    81    94    95    2
    82    84    83    1
    83   101   102    1
    84   102   103    2
    85    83    74   am
    86    75    74    2
    87    74    73    1
    88    73    76    1
    89    73    72    1
    90    63    64    1
    91    76    77    1
    92    72    65   am
    93    66    65    2
    94    65    64    1
    95    64    67    1
    96    82    80    1
    97    79    80    2
    98    79    78    1
    99    70    69    2
   100    77    78    1
   101    80    81    1
   102    69    68    1
   103    69    71   am
   104    67    68    1
