@<TRIPOS>MOLECULE
tmp/4omkA00.pdb
 206 194 0 0 0
SMALL
GASTEIGER

@<TRIPOS>ATOM
      1  N         15.3770   11.9430   -4.9600 N.3    84  LEU84      -0.1245
      2  CA        15.1980   11.0580   -3.8220 C.3    84  LEU84       0.1561
      3  C         15.6540    9.6590   -4.2450 C.2    84  LEU84       0.2260
      4  O         15.0280    8.9680   -5.0640 O.2    84  LEU84      -0.2867
      5  CB        13.7620   11.0250   -3.3170 C.3    84  LEU84       0.0270
      6  CG        13.5510   10.1440   -2.0690 C.3    84  LEU84       0.0019
      7  CD1       14.2140   10.7500   -0.8740 C.3    84  LEU84       0.0001
      8  CD2       12.0800    9.9050   -1.7990 C.3    84  LEU84       0.0001
      9  N         22.1670    5.7370    0.4550 N.3   103  ILE103     -0.1245
     10  CA        22.2430    6.8690    1.3980 C.3   103  ILE103      0.1561
     11  C         23.2930    7.9170    1.0010 C.2   103  ILE103      0.2260
     12  O         23.0250    9.1190    1.0800 O.2   103  ILE103     -0.2867
     13  CB        22.5460    6.3750    2.8330 C.3   103  ILE103      0.0252
     14  CG1       21.5020    5.3460    3.2990 C.3   103  ILE103      0.0019
     15  CG2       22.6540    7.5510    3.7960 C.3   103  ILE103      0.0019
     16  CD1       20.0560    5.7800    3.1260 C.3   103  ILE103      0.0001
     17  N         22.5110   10.9090   -1.2700 N.3   106  LEU106     -0.1245
     18  CA        21.3100   11.6060   -0.8670 C.3   106  LEU106      0.1561
     19  C         21.6540   12.9930   -0.2960 C.2   106  LEU106      0.2260
     20  O         22.4570   13.1150    0.6320 O.2   106  LEU106     -0.2867
     21  CB        20.5690   10.7510    0.1470 C.3   106  LEU106      0.0270
     22  CG        19.1440   11.0680    0.5040 C.3   106  LEU106      0.0019
     23  CD1       18.2580   10.9470   -0.7040 C.3   106  LEU106      0.0001
     24  CD2       18.7480   10.0640    1.5680 C.3   106  LEU106      0.0001
     25  N         20.3060   15.4050    1.7490 N.3   108  ALA108     -0.1245
     26  CA        19.1820   15.5030    2.6740 C.3   108  ALA108      0.1562
     27  C         18.8050   16.9570    2.8980 C.2   108  ALA108      0.2260
     28  O         17.6300   17.3280    2.9230 O.2   108  ALA108     -0.2867
     29  CB        19.5250   14.8350    4.0020 C.3   108  ALA108      0.0290
     30  N         17.0150   18.3760   -0.1440 N.3   111  LEU111     -0.1231
     31  CA        15.6390   17.8850   -0.2140 C.3   111  LEU111      0.1693
     32  C         14.7360   18.6380    0.7400 C.2   111  LEU111      0.2591
     33  O         13.6430   19.0820    0.3600 O.2   111  LEU111     -0.2718
     34  CB        15.5750   16.3790    0.0870 C.3   111  LEU111      0.0284
     35  CG        16.0400   15.5150   -1.0750 C.3   111  LEU111      0.0019
     36  CD1       16.3400   14.0850   -0.6110 C.3   111  LEU111      0.0001
     37  CD2       15.0150   15.5270   -2.1950 C.3   111  LEU111      0.0001
     38  N         15.1870   18.8130    1.9810 N.am  112  LEU112     -0.1980
     39  CA        14.3560   19.5250    2.9570 C.3   112  LEU112      0.1596
     40  C         14.2550   21.0140    2.6350 C.2   112  LEU112      0.2287
     41  O         13.2820   21.6550    3.0540 O.2   112  LEU112     -0.2864
     42  CB        14.8870   19.3140    4.3680 C.3   112  LEU112      0.0297
     43  CG        14.5180   17.9230    4.9150 C.3   112  LEU112      0.0022
     44  CD1       15.3060   17.5950    6.1480 C.3   112  LEU112      0.0001
     45  CD2       13.0460   17.8120    5.2050 C.3   112  LEU112      0.0001
     46  N          7.6560   14.6270    1.3410 N.3   120  LEU120     -0.1231
     47  CA         8.7160   13.6240    1.4490 C.3   120  LEU120      0.1693
     48  C          8.1730   12.3710    2.1350 C.2   120  LEU120      0.2591
     49  O          8.4190   11.2140    1.7080 O.2   120  LEU120     -0.2718
     50  CB         9.8850   14.1980    2.2150 C.3   120  LEU120      0.0284
     51  CG        10.6970   15.2540    1.4610 C.3   120  LEU120      0.0019
     52  CD1       11.5600   16.0750    2.4070 C.3   120  LEU120      0.0001
     53  CD2       11.5190   14.6030    0.3690 C.3   120  LEU120      0.0001
     54  N          7.4290   12.5700    3.2190 N.am  121  LEU121     -0.1980
     55  CA         6.8620   11.4150    3.9290 C.3   121  LEU121      0.1596
     56  C          5.8100   10.6970    3.0750 C.2   121  LEU121      0.2287
     57  O          5.7220    9.4570    3.0620 O.2   121  LEU121     -0.2864
     58  CB         6.2720   11.8530    5.2870 C.3   121  LEU121      0.0297
     59  CG         7.3080   12.3720    6.2930 C.3   121  LEU121      0.0022
     60  CD1        6.6330   12.9310    7.5500 C.3   121  LEU121      0.0001
     61  CD2        8.3010   11.2810    6.7000 C.3   121  LEU121      0.0001
     62  N          7.4960    8.3730    0.7090 N.3   124  LYS124     -0.1245
     63  CA         7.8780    7.1270    1.3910 C.3   124  LYS124      0.1561
     64  C          6.6630    6.2010    1.5740 C.2   124  LYS124      0.2260
     65  O          6.7600    4.9810    1.3640 O.2   124  LYS124     -0.2867
     66  CB         8.5090    7.4060    2.7520 C.3   124  LYS124      0.0271
     67  CG         9.7830    8.2320    2.7190 C.3   124  LYS124      0.0035
     68  CD        10.8820    7.6060    1.9010 C.3   124  LYS124      0.0206
     69  CE        11.4440    6.3560    2.5680 C.3   124  LYS124      0.1093
     70  NZ        12.4930    5.7880    1.6670 N.3   124  LYS124     -0.1314
     71  N         20.6090   -1.8410    1.9060 N.3   153  TYR153     -0.1241
     72  CA        20.7820   -0.5170    2.4730 C.3   153  TYR153      0.1605
     73  C         22.2500   -0.0740    2.3040 C.2   153  TYR153      0.2264
     74  O         23.1340   -0.4580    3.0900 O.2   153  TYR153     -0.2867
     75  CB        20.3560   -0.5720    3.9220 C.3   153  TYR153      0.0534
     76  CG        19.9690    0.7450    4.5110 C.ar  153  TYR153     -0.0201
     77  CD1       18.6970    1.2810    4.3100 C.ar  153  TYR153     -0.0009
     78  CD2       20.8570    1.4430    5.2960 C.ar  153  TYR153     -0.0009
     79  CE1       18.3390    2.5100    4.8830 C.ar  153  TYR153      0.0417
     80  CE2       20.5180    2.6500    5.8470 C.ar  153  TYR153      0.0417
     81  CZ        19.2650    3.1860    5.6330 C.ar  153  TYR153      0.1957
     82  OH        18.9540    4.4000    6.2120 O.3   153  TYR153     -0.2866
     83  N         25.2540    2.1110    2.4950 N.3   155  CYS155     -0.1235
     84  CA        25.7300    3.1970    3.3360 C.3   155  CYS155      0.1677
     85  C         27.1010    3.6940    2.9130 C.2   155  CYS155      0.2270
     86  O         27.7280    4.4720    3.6290 O.2   155  CYS155     -0.2867
     87  CB        25.7460    2.7710    4.8130 C.3   155  CYS155      0.0956
     88  SG        24.1130    2.8550    5.5250 S.3   155  CYS155     -0.0801
     89  N         27.9740    7.4720    3.5650 N.3   158  LEU158     -0.1245
     90  CA        27.3240    7.9880    4.7690 C.3   158  LEU158      0.1561
     91  C         28.3090    8.9080    5.4930 C.2   158  LEU158      0.2260
     92  O         29.4440    8.5350    5.7370 O.2   158  LEU158     -0.2867
     93  CB        26.8780    6.8610    5.6700 C.3   158  LEU158      0.0270
     94  CG        26.4390    7.3030    7.0710 C.3   158  LEU158      0.0019
     95  CD1       25.1400    8.1080    7.0040 C.3   158  LEU158      0.0001
     96  CD2       26.2980    6.0880    7.9540 C.3   158  LEU158      0.0001
     97  N         24.6620   13.7880    6.5810 N.3   162  HIS162     -0.1226
     98  CA        23.3830   13.0780    6.6970 C.3   162  HIS162      0.1752
     99  C         22.7920   13.1260    8.0930 C.2   162  HIS162      0.2595
    100  O         21.6310   12.8140    8.2790 O.2   162  HIS162     -0.2718
    101  CB        23.5440   11.6180    6.2690 C.3   162  HIS162      0.0759
    102  CG        23.9900   11.4660    4.8510 C.ar  162  HIS162      0.0818
    103  ND1       25.2730   11.1240    4.5160 N.ar  162  HIS162     -0.2268
    104  CD2       23.3330   11.6640    3.6790 C.ar  162  HIS162      0.1154
    105  CE1       25.3980   11.1030    3.1960 C.ar  162  HIS162      0.1986
    106  NE2       24.2330   11.4280    2.6660 N.ar  162  HIS162     -0.2212
    107  N         23.6000   13.5100    9.0720 N.am  163  LEU163     -0.1980
    108  CA        23.1650   13.5160   10.4770 C.3   163  LEU163      0.1596
    109  C         22.7960   14.9230   10.9520 C.2   163  LEU163      0.2287
    110  O         22.6100   15.1600   12.1400 O.2   163  LEU163     -0.2864
    111  CB        24.2460   12.8980   11.3540 C.3   163  LEU163      0.0297
    112  CG        24.6940   11.4930   10.9400 C.3   163  LEU163      0.0022
    113  CD1       25.6420   10.9380   11.9820 C.3   163  LEU163      0.0001
    114  CD2       23.4710   10.5690   10.7610 C.3   163  LEU163      0.0001
    115  N         17.2370   16.5150    9.2900 N.3   167  ALA167     -0.1231
    116  CA        17.2030   15.2950    8.4620 C.3   167  ALA167      0.1694
    117  C         16.9300   14.0540    9.3180 C.2   167  ALA167      0.2591
    118  O         16.0900   13.2050    8.9720 O.2   167  ALA167     -0.2718
    119  CB        18.5230   15.1420    7.6870 C.3   167  ALA167      0.0304
    120  N         17.6310   13.9430   10.4470 N.am  168  VAL168     -0.1980
    121  CA        17.4380   12.8030   11.3550 C.3   168  VAL168      0.1595
    122  C         16.0290   12.8040   11.8900 C.2   168  VAL168      0.2287
    123  O         15.3770   11.7620   11.9550 O.2   168  VAL168     -0.2864
    124  CB        18.4680   12.8170   12.4960 C.3   168  VAL168      0.0276
    125  CG1       18.1990   11.6940   13.4960 C.3   168  VAL168      0.0022
    126  CG2       19.8750   12.7070   11.9260 C.3   168  VAL168      0.0022
    127  N         13.2930   14.1010   10.4990 N.3   170  ALA170     -0.1231
    128  CA        12.3570   13.7680    9.4320 C.3   170  ALA170      0.1694
    129  C         12.4050   12.2710    9.1360 C.2   170  ALA170      0.2592
    130  O         11.3800   11.6220    8.9020 O.2   170  ALA170     -0.2718
    131  CB        12.6730   14.5820    8.1900 C.3   170  ALA170      0.0304
    132  N         13.6040   11.7110    9.1460 N.am  171  TYR171     -0.1976
    133  CA        13.7540   10.2860    8.8980 C.3   171  TYR171      0.1639
    134  C         13.1340    9.4740   10.0210 C.2   171  TYR171      0.2290
    135  O         12.5000    8.4450    9.7920 O.2   171  TYR171     -0.2864
    136  CB        15.2190    9.9360    8.7490 C.3   171  TYR171      0.0560
    137  CG        15.4670    8.5870    8.1100 C.ar  171  TYR171     -0.0198
    138  CD1       15.0420    8.3340    6.8290 C.ar  171  TYR171     -0.0009
    139  CD2       16.1550    7.5940    8.7840 C.ar  171  TYR171     -0.0009
    140  CE1       15.2880    7.1040    6.2130 C.ar  171  TYR171      0.0417
    141  CE2       16.4030    6.3470    8.1860 C.ar  171  TYR171      0.0417
    142  CZ        15.9690    6.1230    6.9000 C.ar  171  TYR171      0.1957
    143  OH        16.2200    4.9080    6.2920 O.3   171  TYR171     -0.2866
    144  N          9.5120    9.1850    9.3130 N.3   174  PHE174     -0.1241
    145  CA         9.2920    8.0940    8.3540 C.3   174  PHE174      0.1605
    146  C          9.3510    6.7520    9.0540 C.2   174  PHE174      0.2264
    147  O          8.4680    5.9110    8.8540 O.2   174  PHE174     -0.2867
    148  CB        10.2990    8.1050    7.2190 C.3   174  PHE174      0.0534
    149  CG        10.4630    6.7650    6.5590 C.ar  174  PHE174     -0.0203
    150  CD1        9.4070    6.1800    5.8930 C.ar  174  PHE174     -0.0042
    151  CD2       11.6550    6.0850    6.6460 C.ar  174  PHE174     -0.0042
    152  CE1        9.5410    4.9320    5.3140 C.ar  174  PHE174     -0.0003
    153  CE2       11.7900    4.8320    6.0670 C.ar  174  PHE174     -0.0003
    154  CZ        10.7260    4.2700    5.4150 C.ar  174  PHE174     -0.0000
    155  N         28.8370    4.5330   11.0070 N.3   198  PHE198     -0.1241
    156  CA        27.5400    3.8330   11.0260 C.3   198  PHE198      0.1605
    157  C         26.9530    3.5880   12.4310 C.2   198  PHE198      0.2264
    158  O         25.7900    3.9170   12.6900 O.2   198  PHE198     -0.2867
    159  CB        27.6220    2.4980   10.2570 C.3   198  PHE198      0.0534
    160  CG        26.3540    1.7100   10.3380 C.ar  198  PHE198     -0.0203
    161  CD1       25.2820    2.0120    9.5180 C.ar  198  PHE198     -0.0042
    162  CD2       26.2030    0.7140   11.2890 C.ar  198  PHE198     -0.0042
    163  CE1       24.0810    1.3070    9.6270 C.ar  198  PHE198     -0.0003
    164  CE2       25.0140    0.0180   11.3950 C.ar  198  PHE198     -0.0003
    165  CZ        23.9440    0.3350   10.5620 C.ar  198  PHE198     -0.0000
    166  N         25.2910    6.7430   13.7180 N.3   201  ALA201     -0.1231
    167  CA        24.0910    6.9920   12.9370 C.3   201  ALA201      0.1694
    168  C         22.9920    6.0230   13.3460 C.2   201  ALA201      0.2592
    169  O         21.8610    6.4210   13.5750 O.2   201  ALA201     -0.2718
    170  CB        24.4030    6.8610   11.4330 C.3   201  ALA201      0.0304
    171  N         23.3210    4.7440   13.4450 N.am  202  TYR202     -0.1976
    172  CA        22.3360    3.7310   13.8150 C.3   202  TYR202      0.1639
    173  C         21.7280    4.0480   15.1760 C.2   202  TYR202      0.2290
    174  O         20.5080    3.9380   15.3720 O.2   202  TYR202     -0.2864
    175  CB        23.0190    2.3590   13.8150 C.3   202  TYR202      0.0560
    176  CG        22.1540    1.1240   13.9240 C.ar  202  TYR202     -0.0198
    177  CD1       20.7750    1.1800   13.8390 C.ar  202  TYR202     -0.0009
    178  CD2       22.7460   -0.1170   14.0920 C.ar  202  TYR202     -0.0009
    179  CE1       20.0080    0.0180   13.9340 C.ar  202  TYR202      0.0417
    180  CE2       21.9970   -1.2660   14.1920 C.ar  202  TYR202      0.0417
    181  CZ        20.6330   -1.1990   14.1110 C.ar  202  TYR202      0.1957
    182  OH        19.9010   -2.3640   14.2100 O.3   202  TYR202     -0.2866
    183  N         21.2920    6.9170   16.5020 N.3   204  LEU204     -0.1231
    184  CA        20.3790    8.0300   16.3780 C.3   204  LEU204      0.1693
    185  C         18.9810    7.6010   15.9500 C.2   204  LEU204      0.2591
    186  O         18.0200    8.2840   16.2860 O.2   204  LEU204     -0.2718
    187  CB        20.8940    9.0580   15.3860 C.3   204  LEU204      0.0284
    188  CG        22.0770    9.8890   15.8630 C.3   204  LEU204      0.0019
    189  CD1       22.5970   10.7160   14.6960 C.3   204  LEU204      0.0001
    190  CD2       21.6440   10.7630   17.0430 C.3   204  LEU204      0.0001
    191  N         18.8390    6.5100   15.1990 N.am  205  ILE205     -0.1980
    192  CA        17.4810    6.1650   14.7590 C.3   205  ILE205      0.1595
    193  C         16.9190    4.9010   15.4110 C.2   205  ILE205      0.2287
    194  O         15.7390    4.6200   15.2660 O.2   205  ILE205     -0.2864
    195  CB        17.4080    6.0760   13.2330 C.3   205  ILE205      0.0276
    196  CG1       18.3360    5.0300   12.6890 C.3   205  ILE205      0.0022
    197  CG2       17.7470    7.4510   12.6060 C.3   205  ILE205      0.0022
    198  CD1       17.7840    3.6380   12.7180 C.3   205  ILE205      0.0001
    199  N         17.9260   -6.4690   10.9360 N.3   217  ILE217     -0.1245
    200  CA        19.0200   -5.6750   10.3760 C.3   217  ILE217      0.1561
    201  C         20.3320   -6.4380   10.4980 C.2   217  ILE217      0.2260
    202  O         20.7610   -6.7900   11.5920 O.2   217  ILE217     -0.2867
    203  CB        19.1090   -4.3170   11.0680 C.3   217  ILE217      0.0252
    204  CG1       17.8730   -3.4910   10.7060 C.3   217  ILE217      0.0019
    205  CG2       20.3940   -3.5670   10.6590 C.3   217  ILE217      0.0019
    206  CD1       17.6470   -2.2800   11.5500 C.3   217  ILE217      0.0001
@<TRIPOS>BOND
     1     4     3    2
     2     1     2    1
     3     3     2    1
     4     2     5    1
     5     5     6    1
     6    37    35    1
     7     6     8    1
     8     6     7    1
     9    17    18    1
    10    35    36    1
    11    35    34    1
    12    18    19    1
    13    18    21    1
    14    23    22    1
    15    19    20    2
    16    31    30    1
    17    31    34    1
    18    31    32    1
    19    21    22    1
    20    33    32    2
    21    53    51    1
    22     9    10    1
    23    22    24    1
    24    62    63    1
    25    32    38   am
    26    11    12    2
    27    11    10    1
    28    46    47    1
    29    65    64    2
    30    63    64    1
    31    63    66    1
    32    10    13    1
    33    47    48    1
    34    47    50    1
    35    51    50    1
    36    51    52    1
    37    70    69    1
    38    49    48    2
    39    25    26    1
    40    68    69    1
    41    68    67    1
    42    71    72    1
    43    38    39    1
    44    48    54   am
    45    73    72    1
    46    73    74    2
    47    72    75    1
    48    83    84    1
    49    40    39    1
    50    40    41    2
    51   106   105   ar
    52   106   104   ar
    53    26    27    1
    54    26    29    1
    55    67    66    1
    56    13    14    1
    57    13    15    1
    58    27    28    2
    59    85    84    1
    60    85    86    2
    61    39    42    1
    62    57    56    2
    63    56    55    1
    64    16    14    1
    65   105   103   ar
    66    54    55    1
    67    84    87    1
    68    89    90    1
    69   104   102   ar
    70    75    76    1
    71    55    58    1
    72    77    76   ar
    73    77    79   ar
    74    42    43    1
    75    76    78   ar
    76   103   102   ar
    77    90    91    1
    78    90    93    1
    79    87    88    1
    80   102   101    1
    81    79    81   ar
    82    43    45    1
    83    43    44    1
    84    58    59    1
    85    78    80   ar
    86   152   154   ar
    87   152   150   ar
    88   154   153   ar
    89    91    92    2
    90    81    80   ar
    91    81    82    1
    92    93    94    1
    93   150   149   ar
    94   153   151   ar
    95   140   138   ar
    96   140   142   ar
    97   101    98    1
    98   143   142    1
    99    59    61    1
   100    59    60    1
   101   149   151   ar
   102   149   148    1
   103    97    98    1
   104    98    99    1
   105   138   137   ar
   106   142   141   ar
   107    95    94    1
   108    94    96    1
   109   148   145    1
   110   119   116    1
   111    99   100    2
   112    99   107   am
   113   137   136    1
   114   137   139   ar
   115   141   139   ar
   116   131   128    1
   117   145   146    1
   118   145   144    1
   119   116   115    1
   120   116   117    1
   121   136   133    1
   122   147   146    2
   123   133   132    1
   124   133   134    1
   125   130   129    2
   126   118   117    2
   127   107   108    1
   128   129   132   am
   129   129   128    1
   130   117   120   am
   131   128   127    1
   132   161   163   ar
   133   161   160   ar
   134   163   165   ar
   135   135   134    2
   136   159   160    1
   137   159   156    1
   138   160   162   ar
   139   200   201    1
   140   200   199    1
   141   200   203    1
   142   120   121    1
   143   108   109    1
   144   108   111    1
   145   201   202    2
   146   165   164   ar
   147   205   203    1
   148   204   203    1
   149   204   206    1
   150   114   112    1
   151   112   111    1
   152   112   113    1
   153   109   110    2
   154   155   156    1
   155   156   157    1
   156   162   164   ar
   157   121   122    1
   158   121   124    1
   159   170   167    1
   160   122   123    2
   161   126   124    1
   162   157   158    2
   163   124   125    1
   164   197   195    1
   165   196   198    1
   166   196   195    1
   167   167   168    1
   168   167   166    1
   169   195   192    1
   170   168   171   am
   171   168   169    2
   172   171   172    1
   173   172   175    1
   174   172   173    1
   175   175   176    1
   176   177   176   ar
   177   177   179   ar
   178   176   178   ar
   179   179   181   ar
   180   178   180   ar
   181   181   180   ar
   182   181   182    1
   183   189   188    1
   184   192   191    1
   185   192   193    1
   186   173   174    2
   187   191   185   am
   188   194   193    2
   189   187   188    1
   190   187   184    1
   191   188   190    1
   192   185   186    2
   193   185   184    1
   194   184   183    1
