@<TRIPOS>MOLECULE
tmp/4omrA01.pdb
 111 108 0 0 0
SMALL
GASTEIGER

@<TRIPOS>ATOM
      1  N         42.8270   24.4290   66.7380 N.3    38  TRP38      -0.1241
      2  CA        43.9220   23.8680   65.9220 C.3    38  TRP38       0.1605
      3  C         45.1810   24.7430   65.9800 C.2    38  TRP38       0.2264
      4  O         46.2840   24.2220   66.1680 O.2    38  TRP38      -0.2867
      5  CB        43.5030   23.6020   64.4990 C.3    38  TRP38       0.0550
      6  CG        42.3960   22.6160   64.3630 C.ar   38  TRP38       0.0003
      7  CD1       42.1880   21.5350   65.1060 C.ar   38  TRP38       0.0946
      8  CD2       41.3000   22.7110   63.4670 C.ar   38  TRP38       0.0152
      9  NE1       41.0470   20.8940   64.7010 N.ar   38  TRP38      -0.2442
     10  CE2       40.4870   21.6000   63.6840 C.ar   38  TRP38       0.0810
     11  CE3       40.9510   23.6100   62.4650 C.ar   38  TRP38       0.0012
     12  CZ2       39.3210   21.3420   62.9250 C.ar   38  TRP38       0.0191
     13  CZ3       39.8010   23.3640   61.7110 C.ar   38  TRP38       0.0001
     14  CH2       39.0080   22.2460   61.9350 C.ar   38  TRP38       0.0015
     15  N         34.6290   18.8840   63.4880 N.3    68  ILE68      -0.1245
     16  CA        34.5920   20.3260   63.3310 C.3    68  ILE68       0.1561
     17  C         33.2860   20.9240   63.8990 C.2    68  ILE68       0.2260
     18  O         32.1980   20.3720   63.6980 O.2    68  ILE68      -0.2867
     19  CB        34.7850   20.7210   61.8570 C.3    68  ILE68       0.0252
     20  CG1       35.1840   22.1920   61.7700 C.3    68  ILE68       0.0019
     21  CG2       33.5340   20.4020   61.0580 C.3    68  ILE68       0.0019
     22  CD1       35.4310   22.6610   60.3550 C.3    68  ILE68       0.0001
     23  N         31.1310   26.2610   59.6290 N.3    72  PHE72      -0.1241
     24  CA        30.5170   26.2880   58.2740 C.3    72  PHE72       0.1605
     25  C         29.6980   27.5520   57.9870 C.2    72  PHE72       0.2264
     26  O         29.0390   27.6300   56.9450 O.2    72  PHE72      -0.2867
     27  CB        29.6210   25.0740   58.0620 C.3    72  PHE72       0.0534
     28  CG        30.3630   23.7830   58.1090 C.ar   72  PHE72      -0.0203
     29  CD1       31.2580   23.4580   57.1120 C.ar   72  PHE72      -0.0042
     30  CD2       30.1960   22.9210   59.1580 C.ar   72  PHE72      -0.0042
     31  CE1       31.9840   22.2850   57.1710 C.ar   72  PHE72      -0.0003
     32  CE2       30.8990   21.7310   59.2170 C.ar   72  PHE72      -0.0003
     33  CZ        31.7930   21.4090   58.2080 C.ar   72  PHE72      -0.0000
     34  N         36.4990   32.0720   59.4420 N.3    82  THR82      -0.1204
     35  CA        36.3690   30.6660   59.0040 C.3    82  THR82       0.1979
     36  C         36.7790   30.5950   57.5220 C.2    82  THR82       0.2460
     37  O         36.8520   31.6260   56.8610 O.2    82  THR82      -0.2732
     38  CB        34.9010   30.1420   59.1820 C.3    82  THR82       0.1783
     39  OG1       34.0570   30.6600   58.1520 O.3    82  THR82      -0.2211
     40  CG2       34.2800   30.5580   60.5320 C.3    82  THR82       0.0376
     41  N         37.0140   29.3820   56.9750 N.am   83  PRO83      -0.2717
     42  CA        37.1150   29.2200   55.5040 C.3    83  PRO83       0.1535
     43  C         35.9490   29.8590   54.7270 C.2    83  PRO83       0.2598
     44  O         36.1490   30.4270   53.6320 O.2    83  PRO83      -0.2715
     45  CB        37.0900   27.6980   55.3270 C.3    83  PRO83       0.0310
     46  CG        37.7460   27.1880   56.5800 C.3    83  PRO83       0.0237
     47  CD        37.2340   28.0990   57.6760 C.3    83  PRO83       0.0939
     48  N         34.7480   29.8090   55.3020 N.am   84  PHE84      -0.1974
     49  CA        33.5820   30.4320   54.6460 C.3    84  PHE84       0.1639
     50  C         33.5530   31.9430   54.7550 C.2    84  PHE84       0.2290
     51  O         33.1020   32.5960   53.8160 O.2    84  PHE84      -0.2864
     52  CB        32.2800   29.7800   55.1010 C.3    84  PHE84       0.0560
     53  CG        32.1930   28.3500   54.6730 C.ar   84  PHE84      -0.0200
     54  CD1       31.7200   28.0170   53.4040 C.ar   84  PHE84      -0.0042
     55  CD2       32.6890   27.3410   55.4930 C.ar   84  PHE84      -0.0042
     56  CE1       31.6770   26.6970   52.9840 C.ar   84  PHE84      -0.0003
     57  CE2       32.6470   26.0180   55.0740 C.ar   84  PHE84      -0.0003
     58  CZ        32.1320   25.6970   53.8280 C.ar   84  PHE84      -0.0000
     59  N         44.3320   26.8230   55.9590 N.3    95  ILE95      -0.1245
     60  CA        44.2790   25.3930   56.1330 C.3    95  ILE95       0.1561
     61  C         45.6480   24.8370   56.5610 C.2    95  ILE95       0.2260
     62  O         45.7460   23.9600   57.4390 O.2    95  ILE95      -0.2867
     63  CB        43.7180   24.6510   54.9220 C.3    95  ILE95       0.0252
     64  CG1       42.2820   25.1300   54.6120 C.3    95  ILE95       0.0019
     65  CG2       43.7340   23.1440   55.2020 C.3    95  ILE95       0.0019
     66  CD1       41.6900   24.5170   53.3280 C.3    95  ILE95       0.0001
     67  N         46.0900   25.3100   60.1650 N.3    98  TYR98      -0.1241
     68  CA        45.3610   24.2650   60.9060 C.3    98  TYR98       0.1605
     69  C         46.0620   22.9340   60.9480 C.2    98  TYR98       0.2264
     70  O         46.1280   22.2750   62.0310 O.2    98  TYR98      -0.2867
     71  CB        44.0300   24.0280   60.2650 C.3    98  TYR98       0.0534
     72  CG        43.0790   25.2100   60.2490 C.ar   98  TYR98      -0.0201
     73  CD1       43.2510   26.2990   61.0590 C.ar   98  TYR98      -0.0009
     74  CD2       41.9820   25.1550   59.4340 C.ar   98  TYR98      -0.0009
     75  CE1       42.3360   27.3550   61.0370 C.ar   98  TYR98       0.0417
     76  CE2       41.0800   26.1820   59.3960 C.ar   98  TYR98       0.0417
     77  CZ        41.2720   27.2660   60.1890 C.ar   98  TYR98       0.1957
     78  OH        40.3100   28.2240   60.1550 O.3    98  TYR98      -0.2866
     79  N         33.9960   13.3550   56.7120 N.3   144  GLU144     -0.1245
     80  CA        34.1640   14.4500   55.7730 C.3   144  GLU144      0.1567
     81  C         33.4970   14.1900   54.4260 C.2   144  GLU144      0.2260
     82  O         32.8330   15.0710   53.8780 O.2   144  GLU144     -0.2867
     83  CB        35.6410   14.7970   55.5840 C.3   144  GLU144      0.0388
     84  CG        36.3260   15.4640   56.7910 C.3   144  GLU144      0.1160
     85  CD        36.7890   14.5170   57.8910 C.2   144  GLU144      0.3649
     86  OE1       36.5210   13.2590   57.8630 O.co2 144  GLU144     -0.2457
     87  OE2       37.4650   15.0230   58.8160 O.co2 144  GLU144     -0.2457
     88  N         33.3130   16.9040   51.5910 N.3   149  LEU149     -0.1245
     89  CA        34.6430   17.3660   51.8000 C.3   149  LEU149      0.1561
     90  C         35.5930   16.1880   51.7460 C.2   149  LEU149      0.2260
     91  O         35.1440   15.0490   51.7220 O.2   149  LEU149     -0.2867
     92  CB        34.7580   18.0180   53.1560 C.3   149  LEU149      0.0270
     93  CG        33.9540   19.3060   53.4150 C.3   149  LEU149      0.0019
     94  CD1       34.0200   19.6820   54.8780 C.3   149  LEU149      0.0001
     95  CD2       34.3810   20.4530   52.5260 C.3   149  LEU149      0.0001
     96  N         41.3510   16.6140   55.3200 N.3   152  ASP152     -0.1225
     97  CA        42.5100   17.4480   55.0640 C.3   152  ASP152      0.1805
     98  C         43.2750   17.9170   56.2950 C.2   152  ASP152      0.2597
     99  O         44.0150   18.9310   56.2190 O.2   152  ASP152     -0.2718
    100  CB        42.1080   18.6340   54.2050 C.3   152  ASP152      0.1424
    101  CG        41.3300   19.7020   54.9690 C.2   152  ASP152      0.3668
    102  OD1       40.7640   19.4130   56.0660 O.co2 152  ASP152     -0.2456
    103  OD2       41.2810   20.8780   54.4320 O.co2 152  ASP152     -0.2456
    104  N         43.0820   17.2250   57.4020 N.am  153  LEU153     -0.1979
    105  CA        43.8430   17.5030   58.6060 C.3   153  LEU153      0.1596
    106  C         44.9000   16.4280   58.8970 C.2   153  LEU153      0.2287
    107  O         45.1940   16.0990   60.0880 O.2   153  LEU153     -0.2864
    108  CB        42.9060   17.7650   59.7700 C.3   153  LEU153      0.0297
    109  CG        42.0040   18.9890   59.5570 C.3   153  LEU153      0.0022
    110  CD1       40.8770   19.0900   60.5880 C.3   153  LEU153      0.0001
    111  CD2       42.8350   20.2810   59.5720 C.3   153  LEU153      0.0001
@<TRIPOS>BOND
     1    88    89    1
     2    91    90    2
     3    90    89    1
     4    89    92    1
     5    95    93    1
     6    56    54   ar
     7    56    58   ar
     8    92    93    1
     9    66    64    1
    10    54    53   ar
    11    93    94    1
    12    44    43    2
    13    51    50    2
    14    58    57   ar
    15    82    81    2
    16   100   101    1
    17   100    97    1
    18    81    80    1
    19   103   101   ar
    20    64    63    1
    21    49    50    1
    22    49    52    1
    23    49    48    1
    24    53    52    1
    25    53    55   ar
    26    43    48   am
    27    43    42    1
    28    63    65    1
    29    63    60    1
    30   101   102   ar
    31    97    96    1
    32    97    98    1
    33    57    55   ar
    34    45    42    1
    35    45    46    1
    36    42    41    1
    37    83    80    1
    38    83    84    1
    39    80    79    1
    40    59    60    1
    41    60    61    1
    42    99    98    2
    43    98   104   am
    44    61    62    2
    45    46    47    1
    46    84    85    1
    47    37    36    2
    48    26    25    2
    49    41    36   am
    50    41    47    1
    51    29    31   ar
    52    29    28   ar
    53    31    33   ar
    54   104   105    1
    55    36    35    1
    56    86    85   ar
    57    85    87   ar
    58    25    24    1
    59    27    28    1
    60    27    24    1
    61    28    30   ar
    62    39    38    1
    63    33    32   ar
    64    24    23    1
    65   105   106    1
    66   105   108    1
    67   106   107    2
    68    35    38    1
    69    35    34    1
    70    30    32   ar
    71    38    40    1
    72    76    74   ar
    73    76    77   ar
    74    74    72   ar
    75   109   111    1
    76   109   108    1
    77   109   110    1
    78    78    77    1
    79    67    68    1
    80    77    75   ar
    81    72    71    1
    82    72    73   ar
    83    71    68    1
    84    22    20    1
    85    68    69    1
    86    69    70    2
    87    75    73   ar
    88    21    19    1
    89    13    14   ar
    90    13    11   ar
    91    20    19    1
    92    19    16    1
    93    14    12   ar
    94    11     8   ar
    95    12    10   ar
    96    16    15    1
    97    16    17    1
    98     8    10   ar
    99     8     6   ar
   100    10     9   ar
   101    18    17    2
   102     6     5    1
   103     6     7   ar
   104     5     2    1
   105     9     7   ar
   106     2     3    1
   107     2     1    1
   108     3     4    2
