@<TRIPOS>MOLECULE
tmp/4omrA00.pdb
 185 177 0 0 0
SMALL
GASTEIGER

@<TRIPOS>ATOM
      1  N         30.3540   20.4320   76.6260 N.3    30  HIS30      -0.1226
      2  CA        28.9860   20.7680   76.2250 C.3    30  HIS30       0.1752
      3  C         28.7410   20.7770   74.7280 C.2    30  HIS30       0.2596
      4  O         27.6110   20.6540   74.2900 O.2    30  HIS30      -0.2718
      5  CB        28.5570   22.0990   76.8620 C.3    30  HIS30       0.0759
      6  CG        28.4140   21.9960   78.3490 C.ar   30  HIS30       0.0818
      7  ND1       27.4590   21.1960   78.9480 N.ar   30  HIS30      -0.2268
      8  CD2       29.1430   22.5340   79.3600 C.ar   30  HIS30       0.1154
      9  CE1       27.5830   21.2780   80.2640 C.ar   30  HIS30       0.1986
     10  NE2       28.5960   22.0850   80.5370 N.ar   30  HIS30      -0.2212
     11  N         29.7960   20.9180   73.9510 N.am   31  ARG31      -0.1966
     12  CA        29.7400   20.7540   72.5210 C.3    31  ARG31       0.1729
     13  C         30.4820   19.4890   72.1100 C.2    31  ARG31       0.2616
     14  O         30.8240   19.3200   70.9200 O.2    31  ARG31      -0.2715
     15  CB        30.4380   21.9310   71.8840 C.3    31  ARG31       0.0348
     16  CG        29.7010   23.2550   72.0970 C.3    31  ARG31       0.0492
     17  CD        30.4350   24.4290   71.4090 C.3    31  ARG31       0.2205
     18  NE        29.9890   24.6550   69.9910 N.pl3  31  ARG31      -0.0865
     19  CZ        28.8150   25.2030   69.6120 C.cat  31  ARG31       0.5346
     20  NH1       27.9220   25.5530   70.5420 N.pl3  31  ARG31       0.1354
     21  NH2       28.5180   25.4050   68.3150 N.pl3  31  ARG31       0.1354
     22  N         30.6490   18.5430   73.0440 N.am   32  ARG32      -0.1977
     23  CA        31.2710   17.2590   72.6930 C.3    32  ARG32       0.1597
     24  C         32.6120   17.4660   71.9880 C.2    32  ARG32       0.2287
     25  O         33.0550   16.6870   71.1480 O.2    32  ARG32      -0.2864
     26  CB        30.3370   16.3580   71.8520 C.3    32  ARG32       0.0334
     27  CG        29.0360   15.9710   72.5660 C.3    32  ARG32       0.0492
     28  CD        29.2350   15.3220   73.9840 C.3    32  ARG32       0.2205
     29  NE        27.9500   14.9570   74.6270 N.pl3  32  ARG32      -0.0865
     30  CZ        27.2420   13.8550   74.3210 C.cat  32  ARG32       0.5346
     31  NH1       26.0460   13.6190   74.8540 N.pl3  32  ARG32       0.1354
     32  NH2       27.7570   12.9530   73.4940 N.pl3  32  ARG32       0.1354
     33  N         33.8340   19.6480   70.0240 N.3    34  ALA34      -0.1245
     34  CA        33.9070   20.0810   68.6390 C.3    34  ALA34       0.1562
     35  C         35.0820   21.0530   68.4940 C.2    34  ALA34       0.2260
     36  O         35.3920   21.8080   69.4270 O.2    34  ALA34      -0.2867
     37  CB        32.5750   20.7790   68.2710 C.3    34  ALA34       0.0290
     38  N         42.8270   24.4290   66.7380 N.3    38  TRP38      -0.1241
     39  CA        43.9220   23.8680   65.9220 C.3    38  TRP38       0.1605
     40  C         45.1810   24.7430   65.9800 C.2    38  TRP38       0.2264
     41  O         46.2840   24.2220   66.1680 O.2    38  TRP38      -0.2867
     42  CB        43.5030   23.6020   64.4990 C.3    38  TRP38       0.0550
     43  CG        42.3960   22.6160   64.3630 C.ar   38  TRP38       0.0003
     44  CD1       42.1880   21.5350   65.1060 C.ar   38  TRP38       0.0946
     45  CD2       41.3000   22.7110   63.4670 C.ar   38  TRP38       0.0152
     46  NE1       41.0470   20.8940   64.7010 N.ar   38  TRP38      -0.2442
     47  CE2       40.4870   21.6000   63.6840 C.ar   38  TRP38       0.0810
     48  CE3       40.9510   23.6100   62.4650 C.ar   38  TRP38       0.0012
     49  CZ2       39.3210   21.3420   62.9250 C.ar   38  TRP38       0.0191
     50  CZ3       39.8010   23.3640   61.7110 C.ar   38  TRP38       0.0001
     51  CH2       39.0080   22.2460   61.9350 C.ar   38  TRP38       0.0015
     52  N         32.6650   11.9640   74.9510 N.3    63  THR63      -0.1218
     53  CA        32.9620   12.0240   73.5320 C.3    63  THR63       0.1862
     54  C         34.3500   12.6250   73.3650 C.2    63  THR63       0.2287
     55  O         34.5950   13.7090   73.8310 O.2    63  THR63      -0.2866
     56  CB        31.9020   12.9140   72.7900 C.3    63  THR63       0.1770
     57  OG1       30.5800   12.3610   72.9610 O.3    63  THR63      -0.2211
     58  CG2       32.2330   13.0730   71.3380 C.3    63  THR63       0.0375
     59  N         33.5480   15.4970   68.5510 N.3    66  SER66      -0.1202
     60  CA        32.5060   15.4650   67.5280 C.3    66  SER66       0.2020
     61  C         32.9420   16.0730   66.1920 C.2    66  SER66       0.2619
     62  O         32.1020   16.2750   65.2860 O.2    66  SER66      -0.2717
     63  CB        31.2800   16.2260   68.0070 C.3    66  SER66       0.2103
     64  OG        31.6690   17.5250   68.3640 O.3    66  SER66      -0.2182
     65  N         34.2120   16.3440   66.0350 N.am   67  GLY67      -0.1942
     66  CA        34.7650   16.8570   64.7700 C.3    67  GLY67       0.2014
     67  C         34.6870   18.3400   64.7010 C.2    67  GLY67       0.2639
     68  O         34.6520   19.0240   65.7360 O.2    67  GLY67      -0.2714
     69  N         34.6290   18.8840   63.4880 N.am   68  ILE68      -0.1963
     70  CA        34.5920   20.3260   63.3310 C.3    68  ILE68       0.1727
     71  C         33.2860   20.9240   63.8990 C.2    68  ILE68       0.2616
     72  O         32.1980   20.3720   63.6980 O.2    68  ILE68      -0.2715
     73  CB        34.7850   20.7210   61.8570 C.3    68  ILE68       0.0290
     74  CG1       35.1840   22.1920   61.7700 C.3    68  ILE68       0.0022
     75  CG2       33.5340   20.4020   61.0580 C.3    68  ILE68       0.0023
     76  CD1       35.4310   22.6610   60.3550 C.3    68  ILE68       0.0001
     77  N         33.4180   22.0250   64.6430 N.am   69  ASP69      -0.1957
     78  CA        32.3000   22.7680   65.1580 C.3    69  ASP69       0.1840
     79  C         31.4930   23.2630   63.9800 C.2    69  ASP69       0.2621
     80  O         32.0260   23.8940   63.0620 O.2    69  ASP69      -0.2715
     81  CB        32.7880   23.9440   66.0090 C.3    69  ASP69       0.1450
     82  CG        31.6990   24.5690   66.8630 C.2    69  ASP69       0.3671
     83  OD1       30.6770   24.9100   66.3570 O.co2  69  ASP69      -0.2456
     84  OD2       31.9230   24.7560   68.0830 O.co2  69  ASP69      -0.2456
     85  N         30.2120   22.9740   64.0110 N.am   70  LEU70      -0.1977
     86  CA        29.3450   23.2920   62.8950 C.3    70  LEU70       0.1596
     87  C         29.2460   24.8160   62.6330 C.2    70  LEU70       0.2287
     88  O         28.9590   25.2320   61.5010 O.2    70  LEU70      -0.2864
     89  CB        27.9670   22.6300   63.0520 C.3    70  LEU70       0.0297
     90  CG        27.9120   21.0810   63.0160 C.3    70  LEU70       0.0022
     91  CD1       26.4960   20.6160   62.6820 C.3    70  LEU70       0.0001
     92  CD2       28.9170   20.3390   62.0880 C.3    70  LEU70       0.0001
     93  N         32.6050    8.9860   70.5940 N.3   119  HIS119     -0.1241
     94  CA        32.8770    9.2960   69.1830 C.3   119  HIS119      0.1621
     95  C         34.1500   10.1110   68.9520 C.2   119  HIS119      0.2264
     96  O         34.4580   11.0190   69.7060 O.2   119  HIS119     -0.2867
     97  CB        31.7070   10.0490   68.5320 C.3   119  HIS119      0.0745
     98  CG        30.5650    9.1590   68.0960 C.ar  119  HIS119      0.0817
     99  ND1       29.6360    8.6430   68.9840 N.ar  119  HIS119     -0.2268
    100  CD2       30.2080    8.6860   66.8750 C.ar  119  HIS119      0.1154
    101  CE1       28.7550    7.8890   68.3300 C.ar  119  HIS119      0.1986
    102  NE2       29.0730    7.9060   67.0500 N.ar  119  HIS119     -0.2212
    103  N         35.0140   11.8210   65.4470 N.3   121  ILE121     -0.1231
    104  CA        34.3910   12.0680   64.1460 C.3   121  ILE121      0.1692
    105  C         35.2470   13.0470   63.3670 C.2   121  ILE121      0.2593
    106  O         35.5990   14.0870   63.8870 O.2   121  ILE121     -0.2718
    107  CB        33.0090   12.7300   64.3400 C.3   121  ILE121      0.0266
    108  CG1       32.1260   11.7850   65.1690 C.3   121  ILE121      0.0019
    109  CG2       32.3380   13.0470   63.0130 C.3   121  ILE121      0.0020
    110  CD1       30.7510   12.3000   65.5220 C.3   121  ILE121      0.0001
    111  N         35.6150   12.6920   62.1390 N.am  122  GLY122     -0.1942
    112  CA        36.0890   13.6860   61.1680 C.3   122  GLY122      0.2014
    113  C         37.4080   14.2590   61.6470 C.2   122  GLY122      0.2638
    114  O         38.3790   13.5290   61.8760 O.2   122  GLY122     -0.2714
    115  N         37.4450   15.5490   61.9180 N.am  123  ALA123     -0.1977
    116  CA        38.6750   16.1280   62.4550 C.3   123  ALA123      0.1597
    117  C         39.1290   15.3920   63.7180 C.2   123  ALA123      0.2287
    118  O         40.3550   15.2940   63.9800 O.2   123  ALA123     -0.2864
    119  CB        38.4840   17.5980   62.7480 C.3   123  ALA123      0.0319
    120  N         40.8830   12.2880   62.7700 N.3   126  GLN126     -0.1245
    121  CA        42.1740   12.6630   62.2570 C.3   126  GLN126      0.1566
    122  C         43.2070   13.0460   63.3520 C.2   126  GLN126      0.2260
    123  O         44.3830   12.7420   63.2310 O.2   126  GLN126     -0.2867
    124  CB        42.0610   13.7610   61.2090 C.3   126  GLN126      0.0367
    125  CG        41.2700   13.3050   59.9900 C.3   126  GLN126      0.0905
    126  CD        41.3420   14.3570   58.8980 C.2   126  GLN126      0.2608
    127  OE1       42.3770   14.5490   58.2720 O.2   126  GLN126     -0.2717
    128  NE2       40.2460   15.1090   58.7460 N.am  126  GLN126     -0.0878
    129  N         33.8280   11.2910   58.5690 N.3   143  LYS143     -0.1231
    130  CA        32.6010   11.8770   58.0710 C.3   143  LYS143      0.1693
    131  C         32.7840   12.8580   56.9230 C.2   143  LYS143      0.2591
    132  O         31.8270   13.1910   56.2600 O.2   143  LYS143     -0.2718
    133  CB        31.8550   12.5790   59.2420 C.3   143  LYS143      0.0285
    134  CG        30.4280   13.0250   58.8830 C.3   143  LYS143      0.0035
    135  CD        29.5600   13.1860   60.1080 C.3   143  LYS143      0.0206
    136  CE        28.1280   13.5240   59.6790 C.3   143  LYS143      0.1093
    137  NZ        27.3340   13.9300   60.8840 N.3   143  LYS143     -0.1314
    138  N         33.9960   13.3550   56.7120 N.am  144  GLU144     -0.1979
    139  CA        34.1640   14.4500   55.7730 C.3   144  GLU144      0.1602
    140  C         33.4970   14.1900   54.4260 C.2   144  GLU144      0.2287
    141  O         32.8330   15.0710   53.8780 O.2   144  GLU144     -0.2864
    142  CB        35.6410   14.7970   55.5840 C.3   144  GLU144      0.0415
    143  CG        36.3260   15.4640   56.7910 C.3   144  GLU144      0.1163
    144  CD        36.7890   14.5170   57.8910 C.2   144  GLU144      0.3649
    145  OE1       36.5210   13.2590   57.8630 O.co2 144  GLU144     -0.2457
    146  OE2       37.4650   15.0230   58.8160 O.co2 144  GLU144     -0.2457
    147  N         29.9330   14.9210   54.0210 N.3   147  LEU147     -0.1245
    148  CA        29.6540   16.3340   53.9750 C.3   147  LEU147      0.1561
    149  C         30.0940   17.0070   52.6980 C.2   147  LEU147      0.2260
    150  O         29.9350   18.2120   52.5750 O.2   147  LEU147     -0.2867
    151  CB        30.3360   17.0240   55.1440 C.3   147  LEU147      0.0270
    152  CG        29.9110   16.5200   56.5230 C.3   147  LEU147      0.0019
    153  CD1       30.6410   17.3300   57.5600 C.3   147  LEU147      0.0001
    154  CD2       28.4210   16.6320   56.7020 C.3   147  LEU147      0.0001
    155  N         33.3130   16.9040   51.5910 N.3   149  LEU149     -0.1231
    156  CA        34.6430   17.3660   51.8000 C.3   149  LEU149      0.1693
    157  C         35.5930   16.1880   51.7460 C.2   149  LEU149      0.2591
    158  O         35.1440   15.0490   51.7220 O.2   149  LEU149     -0.2718
    159  CB        34.7580   18.0180   53.1560 C.3   149  LEU149      0.0284
    160  CG        33.9540   19.3060   53.4150 C.3   149  LEU149      0.0019
    161  CD1       34.0200   19.6820   54.8780 C.3   149  LEU149      0.0001
    162  CD2       34.3810   20.4530   52.5260 C.3   149  LEU149      0.0001
    163  N         36.8850   16.4690   51.7360 N.am  150  VAL150     -0.1980
    164  CA        37.9170   15.4360   51.9050 C.3   150  VAL150      0.1595
    165  C         38.5010   15.5290   53.3430 C.2   150  VAL150      0.2287
    166  O         38.3050   16.5250   54.0080 O.2   150  VAL150     -0.2864
    167  CB        39.0490   15.4960   50.8670 C.3   150  VAL150      0.0276
    168  CG1       38.5100   15.3690   49.4320 C.3   150  VAL150      0.0022
    169  CG2       39.8900   16.7510   51.0420 C.3   150  VAL150      0.0022
    170  N         41.3510   16.6140   55.3200 N.3   152  ASP152     -0.1225
    171  CA        42.5100   17.4480   55.0640 C.3   152  ASP152      0.1805
    172  C         43.2750   17.9170   56.2950 C.2   152  ASP152      0.2597
    173  O         44.0150   18.9310   56.2190 O.2   152  ASP152     -0.2718
    174  CB        42.1080   18.6340   54.2050 C.3   152  ASP152      0.1424
    175  CG        41.3300   19.7020   54.9690 C.2   152  ASP152      0.3668
    176  OD1       40.7640   19.4130   56.0660 O.co2 152  ASP152     -0.2456
    177  OD2       41.2810   20.8780   54.4320 O.co2 152  ASP152     -0.2456
    178  N         43.0820   17.2250   57.4020 N.am  153  LEU153     -0.1979
    179  CA        43.8430   17.5030   58.6060 C.3   153  LEU153      0.1596
    180  C         44.9000   16.4280   58.8970 C.2   153  LEU153      0.2287
    181  O         45.1940   16.0990   60.0880 O.2   153  LEU153     -0.2864
    182  CB        42.9060   17.7650   59.7700 C.3   153  LEU153      0.0297
    183  CG        42.0040   18.9890   59.5570 C.3   153  LEU153      0.0022
    184  CD1       40.8770   19.0900   60.5880 C.3   153  LEU153      0.0001
    185  CD2       42.8350   20.2810   59.5720 C.3   153  LEU153      0.0001
@<TRIPOS>BOND
     1   168   167    1
     2   167   169    1
     3   167   164    1
     4   155   156    1
     5   158   157    2
     6   163   157   am
     7   163   164    1
     8   157   156    1
     9   156   159    1
    10   164   165    1
    11   162   160    1
    12   150   149    2
    13   149   148    1
    14   159   160    1
    15   165   166    2
    16   160   161    1
    17   141   140    2
    18   148   147    1
    19   148   151    1
    20   174   175    1
    21   174   171    1
    22   140   139    1
    23   177   175   ar
    24   175   176   ar
    25   171   170    1
    26   171   172    1
    27   151   152    1
    28   142   139    1
    29   142   143    1
    30   139   138    1
    31   173   172    2
    32   132   131    2
    33   172   178   am
    34   152   154    1
    35   152   153    1
    36   138   131   am
    37   143   144    1
    38   131   130    1
    39   178   179    1
    40   145   144   ar
    41   144   146   ar
    42   130   129    1
    43   130   133    1
    44   127   126    2
    45   179   180    1
    46   179   182    1
    47   128   126   am
    48   134   133    1
    49   134   135    1
    50   180   181    2
    51   126   125    1
    52   183   185    1
    53   183   182    1
    54   183   184    1
    55   136   135    1
    56   136   137    1
    57   125   124    1
    58    76    74    1
    59    75    73    1
    60   112   113    1
    61   112   111    1
    62   124   121    1
    63    88    87    2
    64   113   114    2
    65   113   115   am
    66    50    51   ar
    67    50    48   ar
    68    74    73    1
    69    73    70    1
    70   115   116    1
    71    51    49   ar
    72    92    90    1
    73   111   105   am
    74   121   120    1
    75   121   122    1
    76   116   119    1
    77   116   117    1
    78    48    45   ar
    79    87    86    1
    80    91    90    1
    81    86    89    1
    82    86    85    1
    83    49    47   ar
    84   109   107    1
    85    90    89    1
    86    80    79    2
    87   123   122    2
    88    70    69    1
    89    70    71    1
    90   105   106    2
    91   105   104    1
    92    45    47   ar
    93    45    43   ar
    94    69    67   am
    95    47    46   ar
    96    72    71    2
    97   117   118    2
    98    71    77   am
    99    79    85   am
   100    79    78    1
   101   104   107    1
   102   104   103    1
   103   107   108    1
   104    43    42    1
   105    43    44   ar
   106    42    39    1
   107    77    78    1
   108    46    44   ar
   109    67    66    1
   110    67    68    2
   111    66    65    1
   112    78    81    1
   113   108   110    1
   114    62    61    2
   115    39    40    1
   116    39    38    1
   117    40    41    2
   118    81    82    1
   119    65    61   am
   120    61    60    1
   121    83    82   ar
   122    82    84   ar
   123   100   102   ar
   124   100    98   ar
   125   102   101   ar
   126    60    63    1
   127    60    59    1
   128    63    64    1
   129    98    97    1
   130    98    99   ar
   131    37    34    1
   132    21    19    1
   133   101    99   ar
   134    35    34    1
   135    35    36    2
   136    97    94    1
   137    34    33    1
   138    95    94    1
   139    95    96    2
   140    94    93    1
   141    19    18    2
   142    19    20    1
   143    18    17    1
   144    14    13    2
   145    25    24    2
   146    58    56    1
   147    17    16    1
   148    26    27    1
   149    26    23    1
   150    15    16    1
   151    15    12    1
   152    24    23    1
   153    13    12    1
   154    13    22   am
   155    12    11    1
   156    27    28    1
   157    23    22    1
   158    56    57    1
   159    56    53    1
   160    54    53    1
   161    54    55    2
   162    32    30    1
   163    53    52    1
   164    11     3   am
   165    28    29    1
   166     4     3    2
   167    30    29    2
   168    30    31    1
   169     3     2    1
   170     2     1    1
   171     2     5    1
   172     5     6    1
   173     6     7   ar
   174     6     8   ar
   175     7     9   ar
   176     8    10   ar
   177     9    10   ar
