@<TRIPOS>MOLECULE
tmp/4omwD00.pdb
 85 80 0 0 0
SMALL
GASTEIGER

@<TRIPOS>ATOM
      1  N        -50.2360   10.0920  -34.4560 N.3    31  LEU31      -0.1245
      2  CA       -50.6490   11.2880  -35.2110 C.3    31  LEU31       0.1561
      3  C        -49.5360   12.3440  -35.3470 C.2    31  LEU31       0.2260
      4  O        -49.5970   13.1950  -36.2240 O.2    31  LEU31      -0.2867
      5  CB       -51.8750   11.9420  -34.5580 C.3    31  LEU31       0.0270
      6  CG       -53.1600   11.1120  -34.5030 C.3    31  LEU31       0.0019
      7  CD1      -54.1700   11.7360  -33.5430 C.3    31  LEU31       0.0001
      8  CD2      -53.7610   10.9360  -35.8910 C.3    31  LEU31       0.0001
      9  N        -49.2550   12.1590  -39.9010 N.3    38  PRO38      -0.2102
     10  CA       -50.3860   12.8010  -40.5960 C.3    38  PRO38       0.1504
     11  C        -50.8060   14.1780  -40.0720 C.2    38  PRO38       0.2575
     12  O        -51.1030   15.0480  -40.8750 O.2    38  PRO38      -0.2718
     13  CB       -51.5280   11.7880  -40.4450 C.3    38  PRO38       0.0282
     14  CG       -51.1240   10.8790  -39.3320 C.3    38  PRO38       0.0208
     15  CD       -49.6200   10.8310  -39.3810 C.3    38  PRO38       0.0893
     16  N        -50.8340   14.3810  -38.7530 N.am   39  LEU39      -0.1980
     17  CA       -51.2170   15.6870  -38.1850 C.3    39  LEU39       0.1596
     18  C        -50.0120   16.5450  -37.7880 C.2    39  LEU39       0.2287
     19  O        -50.1490   17.5560  -37.0740 O.2    39  LEU39      -0.2864
     20  CB       -52.1750   15.5010  -36.9990 C.3    39  LEU39       0.0297
     21  CG       -53.4510   14.7210  -37.3230 C.3    39  LEU39       0.0022
     22  CD1      -54.3550   14.6860  -36.1070 C.3    39  LEU39       0.0001
     23  CD2      -54.2050   15.3160  -38.5020 C.3    39  LEU39       0.0001
     24  N        -56.4370   16.4360  -44.3090 N.3    87  LEU87      -0.1231
     25  CA       -55.7350   15.5970  -43.3270 C.3    87  LEU87       0.1693
     26  C        -56.5910   14.5200  -42.6580 C.2    87  LEU87       0.2592
     27  O        -56.2420   14.0690  -41.5630 O.2    87  LEU87      -0.2718
     28  CB       -55.1130   16.4790  -42.2440 C.3    87  LEU87       0.0284
     29  CG       -54.4860   17.8030  -42.6950 C.3    87  LEU87       0.0019
     30  CD1      -54.3440   18.7920  -41.5440 C.3    87  LEU87       0.0001
     31  CD2      -53.1430   17.5460  -43.3770 C.3    87  LEU87       0.0001
     32  N        -57.6580   14.0790  -43.3330 N.am   88  ASN88      -0.1960
     33  CA       -58.6950   13.1970  -42.7690 C.3    88  ASN88       0.1819
     34  C        -59.3530   13.7310  -41.5180 C.2    88  ASN88       0.2621
     35  O        -59.7450   12.9690  -40.6260 O.2    88  ASN88      -0.2715
     36  CB       -58.1240   11.8130  -42.5140 C.3    88  ASN88       0.1195
     37  CG       -57.7720   11.1040  -43.7890 C.2    88  ASN88       0.2630
     38  OD1      -58.2120   11.4580  -44.9000 O.2    88  ASN88      -0.2716
     39  ND2      -56.9450   10.0970  -43.6370 N.am   88  ASN88      -0.0877
     40  N        -59.4410   15.0560  -41.4610 N.am   89  GLU89      -0.1977
     41  CA       -60.0940   15.7520  -40.3900 C.3    89  GLU89       0.1602
     42  C        -61.2680   16.4120  -41.0460 C.2    89  GLU89       0.2287
     43  O        -61.2630   16.6480  -42.2620 O.2    89  GLU89      -0.2864
     44  CB       -59.1570   16.7760  -39.7680 C.3    89  GLU89       0.0415
     45  CG       -57.8480   16.2090  -39.2030 C.3    89  GLU89       0.1163
     46  CD       -58.0710   15.4030  -37.9310 C.2    89  GLU89       0.3649
     47  OE1      -58.8490   14.4290  -37.9570 O.co2  89  GLU89      -0.2457
     48  OE2      -57.4620   15.7330  -36.8980 O.co2  89  GLU89      -0.2457
     49  N        -61.5880   14.5300  -36.3680 N.3   109  ASN109     -0.1240
     50  CA       -62.6180   13.9550  -37.1970 C.3   109  ASN109      0.1653
     51  C        -63.7600   13.6070  -36.2690 C.2   109  ASN109      0.2266
     52  O        -63.5580   12.8490  -35.3300 O.2   109  ASN109     -0.2867
     53  CB       -62.1150   12.7140  -37.9390 C.3   109  ASN109      0.1155
     54  CG       -63.0530   12.3290  -39.0700 C.2   109  ASN109      0.2627
     55  OD1      -64.2470   12.1440  -38.8410 O.2   109  ASN109     -0.2716
     56  ND2      -62.5310   12.2330  -40.2900 N.am  109  ASN109     -0.0877
     57  N        -66.2400   11.7720  -36.5510 N.3   111  ALA111     -0.1231
     58  CA       -66.5320   10.3340  -36.5440 C.3   111  ALA111      0.1694
     59  C        -65.6770    9.5690  -35.5400 C.2   111  ALA111      0.2591
     60  O        -66.1220    8.5580  -35.0070 O.2   111  ALA111     -0.2718
     61  CB       -66.3370    9.7350  -37.9310 C.3   111  ALA111      0.0304
     62  N        -64.4500   10.0450  -35.2990 N.am  112  GLU112     -0.1979
     63  CA       -63.4920    9.3590  -34.4140 C.3   112  GLU112      0.1602
     64  C        -62.6040   10.3530  -33.6360 C.2   112  GLU112      0.2287
     65  O        -61.3860   10.4950  -33.8920 O.2   112  GLU112     -0.2864
     66  CB       -62.6660    8.2880  -35.1100 C.3   112  GLU112      0.0415
     67  CG       -62.0860    7.2430  -34.1290 C.3   112  GLU112      0.1163
     68  CD       -63.0420    6.1750  -33.5700 C.2   112  GLU112      0.3649
     69  OE1      -62.5470    5.3150  -32.7980 O.co2 112  GLU112     -0.2457
     70  OE2      -64.2560    6.1550  -33.8740 O.co2 112  GLU112     -0.2457
     71  N        -59.3370    9.1670  -31.7730 N.3   115  GLN115     -0.1231
     72  CA       -58.2370    8.7390  -32.6470 C.3   115  GLN115      0.1698
     73  C        -57.7210    9.8360  -33.5730 C.2   115  GLN115      0.2592
     74  O        -56.8460    9.5890  -34.4100 O.2   115  GLN115     -0.2718
     75  CB       -58.7050    7.5400  -33.4830 C.3   115  GLN115      0.0381
     76  CG       -59.0000    6.3200  -32.6660 C.3   115  GLN115      0.0905
     77  CD       -59.5030    5.1630  -33.5050 C.2   115  GLN115      0.2608
     78  OE1      -59.7170    5.2750  -34.7250 O.2   115  GLN115     -0.2717
     79  NE2      -59.6700    4.0300  -32.8530 N.am  115  GLN115     -0.0878
     80  N        -58.2810   11.0360  -33.4680 N.am  116  SER116     -0.1952
     81  CA       -57.9820   12.0620  -34.4640 C.3   116  SER116      0.1924
     82  C        -57.7300   13.4430  -33.8980 C.2   116  SER116      0.2314
     83  O        -57.4970   14.3700  -34.6610 O.2   116  SER116     -0.2863
     84  CB       -59.1270   12.1550  -35.4840 C.3   116  SER116      0.2116
     85  OG       -60.2950   12.6870  -34.8840 O.3   116  SER116     -0.2180
@<TRIPOS>BOND
     1    38    37    2
     2    24    25    1
     3    37    39   am
     4    37    36    1
     5    31    29    1
     6    32    33    1
     7    32    26   am
     8    25    26    1
     9    25    28    1
    10    33    36    1
    11    33    34    1
    12    29    28    1
    13    29    30    1
    14    26    27    2
    15    43    42    2
    16    34    40   am
    17    34    35    2
    18    40    41    1
    19    42    41    1
    20    12    11    2
    21    10    13    1
    22    10    11    1
    23    10     9    1
    24    13    14    1
    25    41    44    1
    26    56    54   am
    27    11    16   am
    28     9    15    1
    29    44    45    1
    30    15    14    1
    31    45    46    1
    32    54    55    2
    33    54    53    1
    34    16    17    1
    35    23    21    1
    36    17    18    1
    37    17    20    1
    38    47    46   ar
    39    53    50    1
    40    46    48   ar
    41    61    58    1
    42    18    19    2
    43    21    20    1
    44    21    22    1
    45    50    49    1
    46    50    51    1
    47    57    58    1
    48    58    59    1
    49    51    52    2
    50     4     3    2
    51     8     6    1
    52    59    62   am
    53    59    60    2
    54    84    85    1
    55    84    81    1
    56     3     2    1
    57    62    63    1
    58     2     5    1
    59     2     1    1
    60    66    63    1
    61    66    67    1
    62    78    77    2
    63    83    82    2
    64     5     6    1
    65     6     7    1
    66    81    82    1
    67    81    80    1
    68    63    64    1
    69    74    73    2
    70    67    68    1
    71    65    64    2
    72    70    68   ar
    73    73    80   am
    74    73    72    1
    75    68    69   ar
    76    77    79   am
    77    77    76    1
    78    75    76    1
    79    75    72    1
    80    72    71    1
