@<TRIPOS>MOLECULE
tmp/4on3B02.pdb
 79 74 0 0 0
SMALL
GASTEIGER

@<TRIPOS>ATOM
      1  N         89.0260   35.4440   -8.2960 N.3    38  MET38      -0.1245
      2  CA        89.0250   34.6640   -7.0840 C.3    38  MET38       0.1570
      3  C         87.6230   34.5860   -6.5690 C.2    38  MET38       0.2261
      4  O         86.8940   35.5740   -6.6100 O.2    38  MET38      -0.2867
      5  CB        89.9280   35.3230   -6.0820 C.3    38  MET38       0.0387
      6  CG        91.3760   35.1790   -6.4940 C.3    38  MET38       0.0595
      7  SD        91.8820   33.4750   -6.4780 S.3    38  MET38      -0.1393
      8  CE        93.5650   33.6400   -7.0670 C.3    38  MET38       0.0692
      9  N         86.6810   33.8620   -3.5460 N.3    40  THR40      -0.1203
     10  CA        86.6340   34.5640   -2.3040 C.3    40  THR40       0.1994
     11  C         87.8680   35.4170   -2.2030 C.2    40  THR40       0.2619
     12  O         88.8910   35.0660   -2.7470 O.2    40  THR40      -0.2717
     13  CB        86.5700   33.6430   -1.0330 C.3    40  THR40       0.1784
     14  OG1       87.8560   33.1000   -0.7260 O.3    40  THR40      -0.2211
     15  CG2       85.6110   32.5480   -1.1910 C.3    40  THR40       0.0376
     16  N         87.7420   36.5180   -1.4660 N.am   41  SER41      -0.1937
     17  CA        88.8420   37.4230   -1.1900 C.3    41  SER41       0.2055
     18  C         88.6060   38.2880    0.0600 C.2    41  SER41       0.2643
     19  O         87.4980   38.7610    0.2850 O.2    41  SER41      -0.2714
     20  CB        89.0640   38.3110   -2.4010 C.3    41  SER41       0.2130
     21  OG        87.9140   39.0930   -2.6540 O.3    41  SER41      -0.2179
     22  N         89.6460   38.4730    0.8720 N.am   42  CYS42      -0.1967
     23  CA        89.6130   39.4460    1.9400 C.3    42  CYS42       0.1712
     24  C         90.8390   40.3640    1.7940 C.2    42  CYS42       0.2296
     25  O         91.9800   39.8960    1.7840 O.2    42  CYS42      -0.2864
     26  CB        89.4960   38.7920    3.3590 C.3    42  CYS42       0.0983
     27  SG        87.8160   38.1030    3.7340 S.3    42  CYS42      -0.0798
     28  N         90.8180   42.4450   -4.8670 N.3   115  GLN115     -0.1245
     29  CA        91.4530   41.1720   -4.7640 C.3   115  GLN115      0.1566
     30  C         92.9290   41.2020   -4.8500 C.2   115  GLN115      0.2260
     31  O         93.5490   40.2030   -5.2040 O.2   115  GLN115     -0.2867
     32  CB        90.9020   40.2580   -5.8440 C.3   115  GLN115      0.0367
     33  CG        89.3990   40.2590   -5.7900 C.3   115  GLN115      0.0905
     34  CD        88.7840   39.0160   -6.3650 C.2   115  GLN115      0.2608
     35  OE1       89.0540   38.6350   -7.5080 O.2   115  GLN115     -0.2717
     36  NE2       87.8940   38.4000   -5.5930 N.am  115  GLN115     -0.0878
     37  N         96.6930   39.3760   -8.5370 N.3   139  ILE139     -0.1245
     38  CA        95.5660   38.8060   -7.8280 C.3   139  ILE139      0.1561
     39  C         95.9250   37.3840   -7.3340 C.2   139  ILE139      0.2260
     40  O         95.6690   37.0340   -6.1870 O.2   139  ILE139     -0.2867
     41  CB        94.3700   38.7810   -8.7730 C.3   139  ILE139      0.0252
     42  CG1       93.8810   40.1960   -9.0230 C.3   139  ILE139      0.0019
     43  CG2       93.2810   37.9200   -8.2110 C.3   139  ILE139      0.0019
     44  CD1       92.8290   40.3110  -10.1160 C.3   139  ILE139      0.0001
     45  N         98.3930   37.5530   -4.5560 N.3   142  PHE142     -0.1227
     46  CA        97.8430   38.0380   -3.3370 C.3   142  PHE142      0.1736
     47  C         97.1790   36.8800   -2.6470 C.2   142  PHE142      0.2595
     48  O         97.3930   36.6480   -1.4700 O.2   142  PHE142     -0.2718
     49  CB        96.8100   39.0950   -3.5840 C.3   142  PHE142      0.0547
     50  CG        96.1540   39.5240   -2.3500 C.ar  142  PHE142     -0.0202
     51  CD1       96.9240   40.1120   -1.3330 C.ar  142  PHE142     -0.0042
     52  CD2       94.8190   39.2960   -2.1620 C.ar  142  PHE142     -0.0042
     53  CE1       96.3600   40.4620   -0.1460 C.ar  142  PHE142     -0.0003
     54  CE2       94.2220   39.6620   -1.0020 C.ar  142  PHE142     -0.0003
     55  CZ        94.9930   40.2370    0.0110 C.ar  142  PHE142     -0.0000
     56  N         96.3670   36.1380   -3.4010 N.am  143  ALA143     -0.1980
     57  CA        95.7510   34.9000   -2.9150 C.3   143  ALA143      0.1597
     58  C         96.8020   34.0030   -2.2870 C.2   143  ALA143      0.2287
     59  O         96.6350   33.5590   -1.2100 O.2   143  ALA143     -0.2864
     60  CB        95.0660   34.1850   -4.0480 C.3   143  ALA143      0.0319
     61  N         98.3190   35.5450    0.8780 N.3   146  ASN146     -0.1225
     62  CA        97.2890   35.7370    1.8310 C.3   146  ASN146      0.1785
     63  C         96.6650   34.4420    2.3380 C.2   146  ASN146      0.2597
     64  O         95.8910   34.4990    3.2410 O.2   146  ASN146     -0.2718
     65  CB        96.2430   36.5970    1.1580 C.3   146  ASN146      0.1169
     66  CG        95.3790   37.3160    2.1270 C.2   146  ASN146      0.2627
     67  OD1       95.8540   37.9080    3.0960 O.2   146  ASN146     -0.2716
     68  ND2       94.0860   37.3030    1.8630 N.am  146  ASN146     -0.0877
     69  N         96.9730   33.2800    1.7700 N.am  147  ARG147     -0.1979
     70  CA        96.3170   32.0060    2.1340 C.3   147  ARG147      0.1597
     71  C         97.4200   31.1050    2.6420 C.2   147  ARG147      0.2287
     72  O         97.4700   29.8810    2.3790 O.2   147  ARG147     -0.2864
     73  CB        95.6190   31.3790    0.9050 C.3   147  ARG147      0.0334
     74  CG        94.2650   32.0020    0.5980 C.3   147  ARG147      0.0492
     75  CD        93.6700   31.6210   -0.7530 C.3   147  ARG147      0.2205
     76  NE        92.5400   32.4910   -1.0780 N.pl3 147  ARG147     -0.0865
     77  CZ        91.8330   32.4550   -2.2140 C.cat 147  ARG147      0.5346
     78  NH1       92.1140   31.5700   -3.1770 N.pl3 147  ARG147      0.1354
     79  NH2       90.8340   33.3270   -2.4070 N.pl3 147  ARG147      0.1354
@<TRIPOS>BOND
     1    44    42    1
     2    42    41    1
     3    41    43    1
     4    41    38    1
     5    37    38    1
     6     1     2    1
     7    38    39    1
     8    35    34    2
     9    39    40    2
    10     2     3    1
    11     2     5    1
    12     8     7    1
    13     4     3    2
    14     6     7    1
    15     6     5    1
    16    34    33    1
    17    34    36   am
    18    32    33    1
    19    32    29    1
    20    31    30    2
    21    28    29    1
    22    30    29    1
    23    45    46    1
    24    60    57    1
    25    49    46    1
    26    49    50    1
    27     9    10    1
    28    56    57    1
    29    56    47   am
    30    46    47    1
    31    78    77    1
    32    57    58    1
    33    12    11    2
    34    21    20    1
    35    47    48    2
    36    79    77    1
    37    20    17    1
    38    50    52   ar
    39    50    51   ar
    40    10    11    1
    41    10    13    1
    42    58    59    2
    43    77    76    2
    44    11    16   am
    45    52    54   ar
    46    16    17    1
    47    51    53   ar
    48    15    13    1
    49    17    18    1
    50    76    75    1
    51    13    14    1
    52    54    55   ar
    53    75    74    1
    54    53    55   ar
    55    18    19    2
    56    18    22   am
    57    74    73    1
    58    22    23    1
    59    61    62    1
    60    73    70    1
    61    65    62    1
    62    65    66    1
    63    69    70    1
    64    69    63   am
    65    25    24    2
    66    24    23    1
    67    62    63    1
    68    68    66   am
    69    23    26    1
    70    66    67    2
    71    70    71    1
    72    63    64    2
    73    72    71    2
    74    26    27    1
