@<TRIPOS>MOLECULE
tmp/4on3B00.pdb
 86 81 0 0 0
SMALL
GASTEIGER

@<TRIPOS>ATOM
      1  N         82.0410   34.5060  -13.1270 N.3    34  MET34      -0.1245
      2  CA        83.1850   34.3900  -14.0280 C.3    34  MET34       0.1570
      3  C         83.9210   35.7030  -14.1040 C.2    34  MET34       0.2261
      4  O         85.1540   35.7240  -14.3520 O.2    34  MET34      -0.2867
      5  CB        82.7330   33.9320  -15.4680 C.3    34  MET34       0.0387
      6  CG        82.3110   32.4490  -15.6170 C.3    34  MET34       0.0595
      7  SD        83.5490   31.2300  -15.0050 S.3    34  MET34      -0.1393
      8  CE        83.1780   30.9390  -13.2420 C.3    34  MET34       0.0692
      9  N         84.7620   37.5560  -11.6360 N.3    36  PHE36      -0.1227
     10  CA        85.8550   37.5580  -10.6860 C.3    36  PHE36       0.1736
     11  C         86.8480   36.4420  -10.8690 C.2    36  PHE36       0.2596
     12  O         86.4760   35.3170  -11.1530 O.2    36  PHE36      -0.2718
     13  CB        85.3140   37.4930   -9.2590 C.3    36  PHE36       0.0547
     14  CG        84.6910   38.7680   -8.8190 C.ar   36  PHE36      -0.0202
     15  CD1       83.3710   39.0420   -9.1310 C.ar   36  PHE36      -0.0042
     16  CD2       85.4460   39.7180   -8.1630 C.ar   36  PHE36      -0.0042
     17  CE1       82.8040   40.2340   -8.7670 C.ar   36  PHE36      -0.0003
     18  CE2       84.8920   40.9260   -7.7950 C.ar   36  PHE36      -0.0003
     19  CZ        83.5680   41.1810   -8.0920 C.ar   36  PHE36      -0.0000
     20  N         88.1080   36.7680  -10.6360 N.am   37  THR37      -0.1953
     21  CA        89.1860   35.8170  -10.6930 C.3    37  THR37       0.1897
     22  C         89.1330   34.8750   -9.4890 C.2    37  THR37       0.2313
     23  O         89.2410   33.6610   -9.6310 O.2    37  THR37      -0.2863
     24  CB        90.5680   36.5220  -10.7010 C.3    37  THR37       0.1794
     25  OG1       90.7490   37.2610  -11.9030 O.3    37  THR37      -0.2208
     26  CG2       91.7270   35.5350  -10.6050 C.3    37  THR37       0.0378
     27  N         87.2150   33.4040   -6.1170 N.3    39  LYS39      -0.1245
     28  CA        85.8150   33.2130   -5.7310 C.3    39  LYS39       0.1561
     29  C         85.5920   33.7040   -4.2900 C.2    39  LYS39       0.2260
     30  O         84.4580   33.9040   -3.8790 O.2    39  LYS39      -0.2867
     31  CB        85.4000   31.7550   -5.9160 C.3    39  LYS39       0.0271
     32  CG        85.6640   31.2350   -7.3170 C.3    39  LYS39       0.0035
     33  CD        84.4240   31.1570   -8.1990 C.3    39  LYS39       0.0206
     34  CE        84.8260   30.9760   -9.6600 C.3    39  LYS39       0.1093
     35  NZ        85.2560   32.3320  -10.1600 N.3    39  LYS39      -0.1314
     36  N        101.1260   41.0530  -14.7000 N.3   134  SER134     -0.1217
     37  CA        99.7720   41.3780  -15.1300 C.3   134  SER134      0.1889
     38  C         98.8840   41.6260  -13.9540 C.2   134  SER134      0.2288
     39  O         99.1890   41.3100  -12.8470 O.2   134  SER134     -0.2866
     40  CB        99.1360   40.2640  -15.9430 C.3   134  SER134      0.2089
     41  OG        99.4050   38.9810  -15.3900 O.3   134  SER134     -0.2183
     42  N         96.3590   39.7190  -13.5250 N.3   136  GLU136     -0.1231
     43  CA        96.0380   38.4130  -12.9750 C.3   136  GLU136      0.1699
     44  C         97.1510   37.8680  -12.1440 C.2   136  GLU136      0.2592
     45  O         96.9160   37.1700  -11.1710 O.2   136  GLU136     -0.2718
     46  CB        95.6660   37.4500  -14.0580 C.3   136  GLU136      0.0402
     47  CG        94.5910   38.0140  -15.0040 C.3   136  GLU136      0.1161
     48  CD        93.1190   37.6480  -14.6650 C.2   136  GLU136      0.3649
     49  OE1       92.7180   37.6620  -13.4660 O.co2 136  GLU136     -0.2457
     50  OE2       92.3410   37.3520  -15.6330 O.co2 136  GLU136     -0.2457
     51  N         98.3730   38.2320  -12.4640 N.am  137  GLU137     -0.1979
     52  CA        99.4500   37.7510  -11.6820 C.3   137  GLU137      0.1602
     53  C         99.3620   38.3000  -10.2900 C.2   137  GLU137      0.2287
     54  O         99.7390   37.6480   -9.3330 O.2   137  GLU137     -0.2864
     55  CB       100.7840   38.0950  -12.3390 C.3   137  GLU137      0.0415
     56  CG       101.2320   37.0040  -13.3480 C.3   137  GLU137      0.1163
     57  CD       102.1810   37.4700  -14.4670 C.2   137  GLU137      0.3649
     58  OE1      102.3040   36.7360  -15.4590 O.co2 137  GLU137     -0.2457
     59  OE2      102.7850   38.5590  -14.3880 O.co2 137  GLU137     -0.2457
     60  N         96.5190   36.5870   -8.2180 N.3   140  HIS140     -0.1226
     61  CA        97.0180   35.2670   -7.8630 C.3   140  HIS140      0.1752
     62  C         98.1020   35.3580   -6.7940 C.2   140  HIS140      0.2595
     63  O         98.0690   34.5880   -5.8620 O.2   140  HIS140     -0.2718
     64  CB        97.4990   34.5150   -9.1020 C.3   140  HIS140      0.0759
     65  CG        96.3720   33.9540   -9.9090 C.ar  140  HIS140      0.0818
     66  ND1       96.0150   32.6210   -9.8820 N.ar  140  HIS140     -0.2268
     67  CD2       95.4680   34.5590  -10.7140 C.ar  140  HIS140      0.1154
     68  CE1       94.9570   32.4280  -10.6460 C.ar  140  HIS140      0.1986
     69  NE2       94.6050   33.5880  -11.1750 N.ar  140  HIS140     -0.2212
     70  N         99.0470   36.2940   -6.8580 N.am  141  LYS141     -0.1980
     71  CA       100.0670   36.3280   -5.7990 C.3   141  LYS141      0.1596
     72  C         99.4530   36.7810   -4.5190 C.2   141  LYS141      0.2287
     73  O         99.9290   36.4530   -3.4940 O.2   141  LYS141     -0.2864
     74  CB       101.2570   37.1990   -6.1240 C.3   141  LYS141      0.0298
     75  CG       101.9620   36.7070   -7.3770 C.3   141  LYS141      0.0038
     76  CD       103.0630   35.6310   -7.1550 C.3   141  LYS141      0.0206
     77  CE       103.1210   34.5340   -8.2680 C.3   141  LYS141      0.1093
     78  NZ       102.9120   35.0460   -9.6760 N.3   141  LYS141     -0.1314
     79  N         97.9080   33.7610   -2.9450 N.3   144  LEU144     -0.1245
     80  CA        98.9460   32.9410   -2.3460 C.3   144  LEU144      0.1561
     81  C         99.6390   33.5510   -1.1040 C.2   144  LEU144      0.2260
     82  O         99.8960   32.7870   -0.2130 O.2   144  LEU144     -0.2867
     83  CB        99.9990   32.5980   -3.3780 C.3   144  LEU144      0.0270
     84  CG        99.4920   32.0650   -4.7120 C.3   144  LEU144      0.0019
     85  CD1      100.6260   32.0290   -5.7100 C.3   144  LEU144      0.0001
     86  CD2       98.8720   30.6900   -4.5430 C.3   144  LEU144      0.0001
@<TRIPOS>BOND
     1    40    41    1
     2    40    37    1
     3    50    48   ar
     4     6     5    1
     5     6     7    1
     6     5     2    1
     7    58    57   ar
     8    37    36    1
     9    37    38    1
    10     7     8    1
    11    47    48    1
    12    47    46    1
    13    48    49   ar
    14    57    59   ar
    15    57    56    1
    16     4     3    2
    17     3     2    1
    18    46    43    1
    19     2     1    1
    20    38    39    2
    21    42    43    1
    22    56    55    1
    23    43    44    1
    24    51    44   am
    25    51    52    1
    26    55    52    1
    27    44    45    2
    28    25    24    1
    29    52    53    1
    30     9    10    1
    31    69    67   ar
    32    69    68   ar
    33    12    11    2
    34    11    10    1
    35    11    20   am
    36    67    65   ar
    37    24    21    1
    38    24    26    1
    39    21    20    1
    40    21    22    1
    41    10    13    1
    42    68    66   ar
    43    53    54    2
    44    35    34    1
    45    65    66   ar
    46    65    64    1
    47    78    77    1
    48    34    33    1
    49    23    22    2
    50    13    14    1
    51    15    14   ar
    52    15    17   ar
    53    64    61    1
    54    14    16   ar
    55    17    19   ar
    56    77    76    1
    57    60    61    1
    58    33    32    1
    59    16    18   ar
    60    19    18   ar
    61    61    62    1
    62    75    76    1
    63    75    74    1
    64    32    31    1
    65    70    62   am
    66    70    71    1
    67    62    63    2
    68    74    71    1
    69    27    28    1
    70    31    28    1
    71    71    72    1
    72    28    29    1
    73    85    84    1
    74    84    86    1
    75    84    83    1
    76    72    73    2
    77    29    30    2
    78    83    80    1
    79    79    80    1
    80    80    81    1
    81    81    82    2
