@<TRIPOS>MOLECULE
tmp/4onaA00.pdb
 189 177 0 0 0
SMALL
GASTEIGER

@<TRIPOS>ATOM
      1  N         -6.4110  -17.4750  -34.9260 N.3    15  LEU15      -0.1231
      2  CA        -6.4850  -17.9500  -33.5500 C.3    15  LEU15       0.1693
      3  C         -6.2960  -16.8380  -32.5490 C.2    15  LEU15       0.2593
      4  O         -6.7430  -16.9190  -31.3920 O.2    15  LEU15      -0.2718
      5  CB        -5.4460  -19.0360  -33.3080 C.3    15  LEU15       0.0284
      6  CG        -5.5400  -20.2910  -34.1810 C.3    15  LEU15       0.0019
      7  CD1       -4.2600  -21.1110  -34.1240 C.3    15  LEU15       0.0001
      8  CD2       -6.7350  -21.1210  -33.7460 C.3    15  LEU15       0.0001
      9  N         -5.6220  -15.7910  -32.9860 N.am   16  GLY16      -0.1942
     10  CA        -5.3830  -14.6590  -32.1320 C.3    16  GLY16       0.2014
     11  C         -4.0980  -13.9630  -32.4790 C.2    16  GLY16       0.2639
     12  O         -3.4990  -14.1910  -33.5260 O.2    16  GLY16      -0.2714
     13  N         -3.6840  -13.1010  -31.5680 N.am   17  LYS17      -0.1963
     14  CA        -2.6320  -12.1460  -31.8150 C.3    17  LYS17       0.1728
     15  C         -1.6170  -12.3350  -30.7140 C.2    17  LYS17       0.2616
     16  O         -1.9560  -12.3200  -29.5400 O.2    17  LYS17      -0.2715
     17  CB        -3.2250  -10.7400  -31.8120 C.3    17  LYS17       0.0311
     18  CG        -2.2450   -9.6150  -31.5900 C.3    17  LYS17       0.0038
     19  CD        -1.1560   -9.5850  -32.6410 C.3    17  LYS17       0.0206
     20  CE        -0.2170   -8.4040  -32.4140 C.3    17  LYS17       0.1093
     21  NZ         1.0050   -8.5410  -33.2510 N.3    17  LYS17      -0.1314
     22  N         -0.3720  -12.5640  -31.0990 N.am   18  GLY18      -0.1955
     23  CA         0.6820  -12.6880  -30.1340 C.3    18  GLY18       0.1869
     24  C          1.7160  -11.6160  -30.3000 C.2    18  GLY18       0.2309
     25  O          1.5820  -10.7040  -31.1110 O.2    18  GLY18      -0.2863
     26  N         -1.3790  -15.0350  -35.1650 N.3    23  VAL23      -0.1245
     27  CA        -1.3550  -16.4820  -35.2380 C.3    23  VAL23       0.1561
     28  C         -2.5960  -17.0160  -35.9960 C.2    23  VAL23       0.2260
     29  O         -3.7220  -16.8330  -35.5520 O.2    23  VAL23      -0.2867
     30  CB        -1.2180  -17.1140  -33.8460 C.3    23  VAL23       0.0252
     31  CG1       -1.2840  -18.6370  -33.9380 C.3    23  VAL23       0.0019
     32  CG2        0.0850  -16.6630  -33.2060 C.3    23  VAL23       0.0019
     33  N         -0.3110  -24.0150  -36.0650 N.3    36  ALA36      -0.1245
     34  CA        -0.4450  -22.6070  -35.7000 C.3    36  ALA36       0.1562
     35  C          0.7440  -21.8760  -36.3020 C.2    36  ALA36       0.2260
     36  O          1.9010  -22.1980  -35.9970 O.2    36  ALA36      -0.2867
     37  CB        -0.4660  -22.4350  -34.1830 C.3    36  ALA36       0.0290
     38  N          2.7510  -18.4470  -36.7320 N.3    38  LYS38      -0.1245
     39  CA         2.9870  -17.0490  -36.3930 C.3    38  LYS38       0.1561
     40  C          3.4670  -16.2670  -37.6120 C.2    38  LYS38       0.2260
     41  O          4.4950  -16.5670  -38.1470 O.2    38  LYS38      -0.2867
     42  CB         4.0160  -16.9420  -35.2770 C.3    38  LYS38       0.0271
     43  CG         4.1920  -15.5130  -34.8020 C.3    38  LYS38       0.0035
     44  CD         4.4370  -15.3940  -33.3070 C.3    38  LYS38       0.0206
     45  CE         3.1790  -14.9890  -32.5790 C.3    38  LYS38       0.1093
     46  NZ         3.3270  -14.9790  -31.0880 N.3    38  LYS38      -0.1314
     47  N         16.6090  -21.0570  -35.8390 N.3    58  VAL58      -0.1245
     48  CA        15.4690  -21.8760  -36.2680 C.3    58  VAL58       0.1561
     49  C         15.8070  -23.3740  -36.3840 C.2    58  VAL58       0.2260
     50  O         15.0150  -24.2210  -35.9750 O.2    58  VAL58      -0.2867
     51  CB        14.9110  -21.3790  -37.6120 C.3    58  VAL58       0.0252
     52  CG1       14.1140  -22.4490  -38.3410 C.3    58  VAL58       0.0019
     53  CG2       14.0610  -20.1540  -37.3730 C.3    58  VAL58       0.0019
     54  N         16.0540  -24.7910  -32.8430 N.3    61  LEU61      -0.1245
     55  CA        14.7260  -24.9070  -32.2040 C.3    61  LEU61       0.1561
     56  C         13.8380  -26.0520  -32.7640 C.2    61  LEU61       0.2260
     57  O         12.9670  -26.5420  -32.0690 O.2    61  LEU61      -0.2867
     58  CB        13.9380  -23.6030  -32.3060 C.3    61  LEU61       0.0270
     59  CG        14.3560  -22.3520  -31.5520 C.3    61  LEU61       0.0019
     60  CD1       13.4910  -21.2060  -32.0550 C.3    61  LEU61       0.0001
     61  CD2       14.1810  -22.4450  -30.0480 C.3    61  LEU61       0.0001
     62  N          6.6450  -25.1670  -26.6770 N.3    70  MET70      -0.1245
     63  CA         6.0320  -25.3020  -27.9780 C.3    70  MET70       0.1570
     64  C          7.0050  -25.9080  -28.9680 C.2    70  MET70       0.2261
     65  O          8.1740  -25.5830  -28.9770 O.2    70  MET70      -0.2867
     66  CB         5.5880  -23.9710  -28.5370 C.3    70  MET70       0.0387
     67  CG         4.7880  -24.1370  -29.8070 C.3    70  MET70       0.0595
     68  SD         4.6970  -22.5980  -30.6560 S.3    70  MET70      -0.1393
     69  CE         6.2670  -22.7290  -31.5250 C.3    70  MET70       0.0692
     70  N          8.2960  -26.2970  -32.6230 N.3    72  LEU72      -0.1245
     71  CA         8.4330  -25.6480  -33.9270 C.3    72  LEU72       0.1561
     72  C          8.6350  -26.6780  -35.0370 C.2    72  LEU72       0.2260
     73  O          9.4420  -27.5820  -34.8550 O.2    72  LEU72      -0.2867
     74  CB         9.6210  -24.6640  -33.9070 C.3    72  LEU72       0.0270
     75  CG         9.9890  -23.9430  -35.2220 C.3    72  LEU72       0.0019
     76  CD1        8.8760  -23.0140  -35.6820 C.3    72  LEU72       0.0001
     77  CD2       11.2840  -23.1530  -35.0840 C.3    72  LEU72       0.0001
     78  N          6.3360  -18.6470  -38.9670 N.3    84  LEU84      -0.1231
     79  CA         6.8010  -19.6380  -37.9890 C.3    84  LEU84       0.1693
     80  C          5.6950  -20.6780  -37.7390 C.2    84  LEU84       0.2592
     81  O          4.6590  -20.3650  -37.1770 O.2    84  LEU84      -0.2718
     82  CB         7.1760  -18.9220  -36.7190 C.3    84  LEU84       0.0284
     83  CG         8.1800  -17.7980  -36.9890 C.3    84  LEU84       0.0019
     84  CD1        8.2790  -16.8480  -35.8170 C.3    84  LEU84       0.0001
     85  CD2        9.5320  -18.4150  -37.2560 C.3    84  LEU84       0.0001
     86  N          5.9090  -21.8890  -38.2380 N.am   85  VAL85      -0.1966
     87  CA         4.9280  -22.9310  -38.1750 C.3    85  VAL85       0.1727
     88  C          5.1370  -23.8110  -36.9310 C.2    85  VAL85       0.2617
     89  O          6.1660  -24.5030  -36.7920 O.2    85  VAL85      -0.2715
     90  CB         5.0090  -23.8200  -39.4140 C.3    85  VAL85       0.0290
     91  CG1        3.7960  -24.7270  -39.4860 C.3    85  VAL85       0.0023
     92  CG2        5.0880  -22.9880  -40.6690 C.3    85  VAL85       0.0023
     93  N          4.1560  -23.8200  -36.0450 N.am   86  GLY86      -0.1940
     94  CA         4.2380  -24.6650  -34.8890 C.3    86  GLY86       0.2014
     95  C          3.0210  -25.5040  -34.6230 C.2    86  GLY86       0.2639
     96  O          2.0020  -25.4120  -35.3010 O.2    86  GLY86      -0.2714
     97  N          3.1590  -26.3040  -33.5850 N.am   87  GLU87      -0.1963
     98  CA         2.1490  -27.2190  -33.1670 C.3    87  GLU87       0.1733
     99  C          1.0330  -26.3540  -32.6130 C.2    87  GLU87       0.2616
    100  O          1.3390  -25.4040  -31.9000 O.2    87  GLU87      -0.2715
    101  CB         2.7420  -28.1140  -32.0700 C.3    87  GLU87       0.0429
    102  CG         1.8020  -29.1780  -31.5340 C.3    87  GLU87       0.1163
    103  CD         2.4130  -30.1180  -30.4780 C.2    87  GLU87       0.3649
    104  OE1        3.5250  -29.8940  -29.9310 O.co2  87  GLU87      -0.2457
    105  OE2        1.7290  -31.1130  -30.1620 O.co2  87  GLU87      -0.2457
    106  N         -0.2370  -26.6610  -32.9360 N.am   88  VAL88      -0.1963
    107  CA        -1.3860  -25.9060  -32.3770 C.3    88  VAL88       0.1727
    108  C         -1.8340  -26.4340  -31.0020 C.2    88  VAL88       0.2616
    109  O         -1.9780  -27.6490  -30.8130 O.2    88  VAL88      -0.2715
    110  CB        -2.5970  -25.8170  -33.3480 C.3    88  VAL88       0.0290
    111  CG1       -2.9640  -27.1540  -33.9260 C.3    88  VAL88       0.0023
    112  CG2       -3.8180  -25.2220  -32.6680 C.3    88  VAL88       0.0023
    113  N         -2.0630  -25.5090  -30.0650 N.am   89  TYR89      -0.1974
    114  CA        -2.5440  -25.7980  -28.7130 C.3    89  TYR89       0.1639
    115  C         -3.8850  -25.1130  -28.4630 C.2    89  TYR89       0.2290
    116  O         -4.0270  -23.9380  -28.7580 O.2    89  TYR89      -0.2864
    117  CB        -1.5160  -25.2920  -27.7080 C.3    89  TYR89       0.0560
    118  CG        -0.1650  -25.8980  -27.9360 C.ar   89  TYR89      -0.0198
    119  CD1       -0.0090  -27.2780  -28.0260 C.ar   89  TYR89      -0.0009
    120  CD2        0.9470  -25.1200  -28.0810 C.ar   89  TYR89      -0.0009
    121  CE1        1.2290  -27.8440  -28.2640 C.ar   89  TYR89       0.0417
    122  CE2        2.1910  -25.6770  -28.3110 C.ar   89  TYR89       0.0417
    123  CZ         2.3350  -27.0370  -28.4040 C.ar   89  TYR89       0.1957
    124  OH         3.5780  -27.6100  -28.6630 O.3    89  TYR89      -0.2866
    125  N         -5.7640  -22.5020  -24.3880 N.3    92  GLY92      -0.1210
    126  CA        -5.8660  -21.0870  -24.1230 C.3    92  GLY92       0.1956
    127  C         -4.7850  -20.6520  -23.1730 C.2    92  GLY92       0.2611
    128  O         -3.9630  -21.4570  -22.7550 O.2    92  GLY92      -0.2717
    129  N         -4.7760  -19.3760  -22.8270 N.am   93  GLU93      -0.1979
    130  CA        -3.8140  -18.8950  -21.8660 C.3    93  GLU93       0.1602
    131  C         -4.0950  -19.4660  -20.4660 C.2    93  GLU93       0.2287
    132  O         -5.2420  -19.7320  -20.1010 O.2    93  GLU93      -0.2864
    133  CB        -3.7810  -17.3660  -21.8610 C.3    93  GLU93       0.0415
    134  CG        -3.1530  -16.7960  -23.1210 C.3    93  GLU93       0.1163
    135  CD        -3.4270  -15.3080  -23.3670 C.2    93  GLU93       0.3649
    136  OE1       -3.7410  -14.5190  -22.4150 O.co2  93  GLU93      -0.2457
    137  OE2       -3.3010  -14.9350  -24.5610 O.co2  93  GLU93      -0.2457
    138  N          0.7260  -14.6510  -20.7170 N.3   136  GLU136     -0.1245
    139  CA         0.2640  -14.8370  -22.1240 C.3   136  GLU136      0.1567
    140  C          1.0800  -15.8310  -22.9050 C.2   136  GLU136      0.2260
    141  O          0.6180  -16.3510  -23.9170 O.2   136  GLU136     -0.2867
    142  CB         0.3020  -13.5210  -22.9030 C.3   136  GLU136      0.0388
    143  CG        -0.6550  -12.4680  -22.3470 C.3   136  GLU136      0.1160
    144  CD        -0.8480  -11.2550  -23.2640 C.2   136  GLU136      0.3649
    145  OE1        0.0890  -10.9310  -24.0580 O.co2 136  GLU136     -0.2457
    146  OE2       -1.9450  -10.6350  -23.1860 O.co2 136  GLU136     -0.2457
    147  N          0.5190  -21.3150  -22.5670 N.3   139  LEU139     -0.1245
    148  CA        -0.7150  -21.9390  -23.0300 C.3   139  LEU139      0.1561
    149  C         -0.8370  -23.3220  -22.4710 C.2   139  LEU139      0.2260
    150  O          0.1470  -23.9950  -22.2780 O.2   139  LEU139     -0.2867
    151  CB        -0.7030  -22.1320  -24.5310 C.3   139  LEU139      0.0270
    152  CG        -0.2750  -21.0030  -25.4170 C.3   139  LEU139      0.0019
    153  CD1       -0.3810  -21.5100  -26.8310 C.3   139  LEU139      0.0001
    154  CD2       -1.1460  -19.7740  -25.1670 C.3   139  LEU139      0.0001
    155  N          5.3960  -20.6400  -25.1820 N.3   152  ILE152     -0.1231
    156  CA         5.5590  -20.1560  -26.5400 C.3   152  ILE152      0.1692
    157  C          6.5660  -19.0100  -26.6290 C.2   152  ILE152      0.2592
    158  O          6.8310  -18.3120  -25.6510 O.2   152  ILE152     -0.2718
    159  CB         4.1910  -19.7420  -27.1140 C.3   152  ILE152      0.0266
    160  CG1        3.6750  -18.4670  -26.4780 C.3   152  ILE152      0.0019
    161  CG2        3.2160  -20.8650  -26.8910 C.3   152  ILE152      0.0020
    162  CD1        2.2280  -18.1180  -26.8460 C.3   152  ILE152      0.0001
    163  N          7.1700  -18.8650  -27.7950 N.am  153  ASP153     -0.1960
    164  CA         8.0090  -17.6850  -28.1430 C.3   153  ASP153      0.1840
    165  C          9.4180  -17.7050  -27.5740 C.2   153  ASP153      0.2622
    166  O         10.1130  -16.6860  -27.6060 O.2   153  ASP153     -0.2715
    167  CB         7.3200  -16.3380  -27.8110 C.3   153  ASP153      0.1450
    168  CG         6.0280  -16.0750  -28.6530 C.2   153  ASP153      0.3671
    169  OD1        5.8600  -16.6240  -29.7670 O.co2 153  ASP153     -0.2456
    170  OD2        5.1780  -15.2570  -28.1990 O.co2 153  ASP153     -0.2456
    171  N          9.8780  -18.8560  -27.0950 N.am  154  PHE154     -0.1974
    172  CA        11.3140  -18.9950  -26.8880 C.3   154  PHE154      0.1639
    173  C         12.0450  -18.6370  -28.1780 C.2   154  PHE154      0.2290
    174  O         11.6470  -19.0580  -29.2500 O.2   154  PHE154     -0.2864
    175  CB        11.6810  -20.3870  -26.4300 C.3   154  PHE154      0.0560
    176  CG        11.9690  -20.4510  -24.9710 C.ar  154  PHE154     -0.0200
    177  CD1       13.1660  -19.9760  -24.4890 C.ar  154  PHE154     -0.0042
    178  CD2       11.0550  -20.9560  -24.0870 C.ar  154  PHE154     -0.0042
    179  CE1       13.4700  -19.9910  -23.1410 C.ar  154  PHE154     -0.0003
    180  CE2       11.3340  -20.9760  -22.7440 C.ar  154  PHE154     -0.0003
    181  CZ        12.5510  -20.4970  -22.2760 C.ar  154  PHE154     -0.0000
    182  N         12.3770  -15.7530  -29.9480 N.3   156  LEU156     -0.1245
    183  CA        12.0550  -14.6210  -30.7750 C.3   156  LEU156      0.1561
    184  C         12.6830  -13.3190  -30.3130 C.2   156  LEU156      0.2260
    185  O         13.0160  -12.4830  -31.1120 O.2   156  LEU156     -0.2867
    186  CB        10.5570  -14.4370  -30.8410 C.3   156  LEU156      0.0270
    187  CG         9.7300  -15.5650  -31.4320 C.3   156  LEU156      0.0019
    188  CD1        8.3200  -15.0320  -31.6580 C.3   156  LEU156      0.0001
    189  CD2       10.3390  -16.0480  -32.7240 C.3   156  LEU156      0.0001
@<TRIPOS>BOND
     1    92    90    1
     2    91    90    1
     3    90    87    1
     4    78    79    1
     5    52    51    1
     6    86    87    1
     7    86    80   am
     8    87    88    1
     9    41    40    2
    10    79    80    1
    11    79    82    1
    12    80    81    2
    13    40    39    1
    14    51    53    1
    15    51    48    1
    16    85    83    1
    17    83    82    1
    18    83    84    1
    19    88    89    2
    20    88    93   am
    21    38    39    1
    22    39    42    1
    23    49    48    1
    24    49    50    2
    25    35    36    2
    26    35    34    1
    27    48    47    1
    28    33    34    1
    29    93    94    1
    30    28    29    2
    31    28    27    1
    32    34    37    1
    33    76    75    1
    34    96    95    2
    35    42    43    1
    36    27    26    1
    37    27    30    1
    38    75    77    1
    39    75    74    1
    40    72    73    2
    41    72    71    1
    42     1     2    1
    43    94    95    1
    44    43    44    1
    45    95    97   am
    46     6     7    1
    47     6     8    1
    48     6     5    1
    49    31    30    1
    50    71    74    1
    51    71    70    1
    52   111   110    1
    53    30    32    1
    54    97    98    1
    55     2     5    1
    56     2     3    1
    57    12    11    2
    58   110   112    1
    59   110   107    1
    60    44    45    1
    61    21    20    1
    62    98    99    1
    63    98   101    1
    64     9     3   am
    65     9    10    1
    66   106    99   am
    67   106   107    1
    68    54    55    1
    69    56    55    1
    70    56    57    2
    71   189   187    1
    72    19    20    1
    73    19    18    1
    74    99   100    2
    75    45    46    1
    76     3     4    2
    77    11    10    1
    78    11    13   am
    79   107   108    1
    80    58    55    1
    81    58    59    1
    82   101   102    1
    83    60    59    1
    84    14    17    1
    85    14    13    1
    86    14    15    1
    87    17    18    1
    88   188   187    1
    89    59    61    1
    90   102   103    1
    91    69    68    1
    92   187   186    1
    93   185   184    2
    94    25    24    2
    95    22    15   am
    96    22    23    1
    97   108   109    2
    98   108   113   am
    99   186   183    1
   100   183   184    1
   101   183   182    1
   102    15    16    2
   103    68    67    1
   104   103   105   ar
   105   103   104   ar
   106    24    23    1
   107   113   114    1
   108    67    66    1
   109   169   168   ar
   110   174   173    2
   111    65    64    2
   112    64    63    1
   113   116   115    2
   114   114   115    1
   115   114   117    1
   116   124   123    1
   117   168   170   ar
   118   168   167    1
   119    66    63    1
   120   123   122   ar
   121   123   121   ar
   122   122   120   ar
   123   121   119   ar
   124   173   172    1
   125   164   167    1
   126   164   163    1
   127   164   165    1
   128   120   118   ar
   129   119   118   ar
   130    63    62    1
   131   118   117    1
   132   163   157   am
   133   166   165    2
   134   165   171   am
   135   159   161    1
   136   159   156    1
   137   159   160    1
   138   171   172    1
   139   172   175    1
   140   162   160    1
   141   153   152    1
   142   157   156    1
   143   157   158    2
   144   156   155    1
   145   175   176    1
   146   152   154    1
   147   152   151    1
   148   176   177   ar
   149   176   178   ar
   150   137   135   ar
   151   151   148    1
   152   177   179   ar
   153   125   126    1
   154   126   127    1
   155   178   180   ar
   156   145   144   ar
   157   141   140    2
   158   135   134    1
   159   135   136   ar
   160   144   146   ar
   161   144   143    1
   162   127   129   am
   163   127   128    2
   164   179   181   ar
   165   134   133    1
   166   148   147    1
   167   148   149    1
   168   140   139    1
   169   142   143    1
   170   142   139    1
   171   129   130    1
   172   180   181   ar
   173   149   150    2
   174   139   138    1
   175   130   133    1
   176   130   131    1
   177   131   132    2
