@<TRIPOS>MOLECULE
tmp/4oncB00.pdb
 83 78 0 0 0
SMALL
GASTEIGER

@<TRIPOS>ATOM
      1  N         -8.1660    2.9430  -17.4570 N.3    62  ASP62      -0.1225
      2  CA        -8.3010    2.1530  -16.2400 C.3    62  ASP62       0.1805
      3  C         -9.6640    1.5520  -16.1140 C.2    62  ASP62       0.2598
      4  O        -10.6760    2.2900  -16.3810 O.2    62  ASP62      -0.2718
      5  CB        -8.1570    3.0940  -15.0420 C.3    62  ASP62       0.1424
      6  CG        -6.7890    3.6620  -14.9450 C.2    62  ASP62       0.3668
      7  OD1       -5.8940    2.7990  -14.7740 O.co2  62  ASP62      -0.2456
      8  OD2       -6.6450    4.9580  -14.9420 O.co2  62  ASP62      -0.2456
      9  N         -9.7070    0.3850  -15.4550 N.am   63  GLY63      -0.1942
     10  CA       -11.0090   -0.1240  -15.0110 C.3    63  GLY63       0.2014
     11  C        -11.6340   -1.1500  -15.9740 C.2    63  GLY63       0.2639
     12  O        -12.8500   -1.5180  -15.8520 O.2    63  GLY63      -0.2714
     13  N        -10.8340   -1.6380  -16.9170 N.am   64  ASN64      -0.1958
     14  CA       -11.4010   -2.6230  -17.9020 C.3    64  ASN64       0.1819
     15  C        -11.8800   -3.9220  -17.1750 C.2    64  ASN64       0.2622
     16  O        -12.9720   -4.4590  -17.4980 O.2    64  ASN64      -0.2715
     17  CB       -10.3460   -3.0010  -18.9490 C.3    64  ASN64       0.1195
     18  CG       -10.2290   -1.9530  -20.0630 C.2    64  ASN64       0.2630
     19  OD1      -11.0990   -1.1360  -20.2640 O.2    64  ASN64      -0.2716
     20  ND2       -9.1830   -2.0150  -20.7910 N.am   64  ASN64      -0.0877
     21  N        -11.0490   -4.4240  -16.2640 N.am   65  GLY65      -0.1940
     22  CA       -11.3990   -5.6580  -15.5340 C.3    65  GLY65       0.2014
     23  C        -12.4750   -5.4290  -14.5110 C.2    65  GLY65       0.2638
     24  O        -13.4230   -6.2490  -14.3920 O.2    65  GLY65      -0.2714
     25  N        -12.3860   -4.3040  -13.7910 N.am   66  ARG66      -0.1977
     26  CA       -13.4810   -3.9400  -12.8560 C.3    66  ARG66       0.1597
     27  C        -14.8140   -3.8280  -13.5930 C.2    66  ARG66       0.2287
     28  O        -15.8720   -4.2160  -13.0290 O.2    66  ARG66      -0.2864
     29  CB       -13.2030   -2.6050  -12.1510 C.3    66  ARG66       0.0334
     30  CG       -12.3190   -2.7910  -10.9370 C.3    66  ARG66       0.0492
     31  CD       -11.7460   -1.4260  -10.5370 C.3    66  ARG66       0.2205
     32  NE       -10.5630   -1.0680  -11.3280 N.pl3  66  ARG66      -0.0865
     33  CZ        -9.7820   -0.0260  -11.0740 C.cat  66  ARG66       0.5346
     34  NH1      -10.1440    0.8140  -10.1190 N.pl3  66  ARG66       0.1354
     35  NH2       -8.7270    0.2400  -11.8410 N.pl3  66  ARG66       0.1354
     36  N        -12.8470  -10.8570  -17.5060 N.3    75  ARG75      -0.1245
     37  CA       -12.0930   -9.5790  -17.6660 C.3    75  ARG75       0.1563
     38  C        -11.6610   -9.2760  -19.0620 C.2    75  ARG75       0.2260
     39  O        -11.5390   -8.1170  -19.4120 O.2    75  ARG75      -0.2867
     40  CB       -10.8340   -9.5550  -16.8170 C.3    75  ARG75       0.0307
     41  CG       -11.0720   -9.4420  -15.3650 C.3    75  ARG75       0.0489
     42  CD        -9.6960   -9.4480  -14.7210 C.3    75  ARG75       0.2205
     43  NE        -9.9710   -9.1120  -13.3670 N.pl3  75  ARG75      -0.0865
     44  CZ       -10.5560   -9.9620  -12.5390 C.cat  75  ARG75       0.5346
     45  NH1      -10.8240  -11.1990  -12.9550 N.pl3  75  ARG75       0.1354
     46  NH2      -10.8480   -9.5860  -11.3010 N.pl3  75  ARG75       0.1354
     47  N        -11.5010   -5.3660  -21.6090 N.3    79  HIS79      -0.1241
     48  CA       -10.4860   -5.0240  -22.6330 C.3    79  HIS79       0.1621
     49  C        -11.0350   -4.9130  -23.9970 C.2    79  HIS79       0.2264
     50  O        -10.6750   -3.9840  -24.7460 O.2    79  HIS79      -0.2867
     51  CB        -9.2270   -5.9380  -22.5570 C.3    79  HIS79       0.0745
     52  CG        -8.5690   -5.8710  -21.1820 C.ar   79  HIS79       0.0817
     53  ND1       -7.7420   -4.8240  -20.7900 N.ar   79  HIS79      -0.2268
     54  CD2       -8.6940   -6.7150  -20.0690 C.ar   79  HIS79       0.1154
     55  CE1       -7.3660   -5.0080  -19.4960 C.ar   79  HIS79       0.1986
     56  NE2       -7.9670   -6.1680  -19.0450 N.ar   79  HIS79      -0.2212
     57  N          2.7980   -4.4920  -15.5010 N.3   110  ASN110     -0.1240
     58  CA         1.8460   -5.5120  -15.8810 C.3   110  ASN110      0.1653
     59  C          2.4330   -6.9240  -16.0110 C.2   110  ASN110      0.2266
     60  O          1.6790   -7.9050  -16.0260 O.2   110  ASN110     -0.2867
     61  CB         1.0870   -5.0770  -17.1350 C.3   110  ASN110      0.1155
     62  CG         0.2140   -3.8610  -16.8330 C.2   110  ASN110      0.2627
     63  OD1       -0.0580   -3.0660  -17.6880 O.2   110  ASN110     -0.2716
     64  ND2       -0.2290   -3.7350  -15.5730 N.am  110  ASN110     -0.0877
     65  N          1.2100   -9.5980  -13.6330 N.3   113  ARG113     -0.1245
     66  CA        -0.0540  -10.3540  -13.7190 C.3   113  ARG113      0.1563
     67  C          0.2410  -11.8170  -14.0890 C.2   113  ARG113      0.2260
     68  O          1.3990  -12.1780  -14.4430 O.2   113  ARG113     -0.2867
     69  CB        -0.9750   -9.7700  -14.7550 C.3   113  ARG113      0.0307
     70  CG        -1.2100   -8.2360  -14.6290 C.3   113  ARG113      0.0489
     71  CD        -1.9830   -7.7560  -13.4300 C.3   113  ARG113      0.2205
     72  NE        -3.3280   -8.3160  -13.5060 N.pl3 113  ARG113     -0.0865
     73  CZ        -4.4140   -7.8810  -12.8530 C.cat 113  ARG113      0.5346
     74  NH1       -4.3530   -6.8300  -12.0330 N.pl3 113  ARG113      0.1354
     75  NH2       -5.5640   -8.5450  -13.0270 N.pl3 113  ARG113      0.1354
     76  N         -3.1440   -9.9190  -23.0400 N.3   121  LEU121     -0.1245
     77  CA        -2.9750   -8.4520  -23.2600 C.3   121  LEU121      0.1561
     78  C         -1.9760   -8.2090  -24.3440 C.2   121  LEU121      0.2260
     79  O         -2.1560   -7.2930  -25.1400 O.2   121  LEU121     -0.2867
     80  CB        -2.4940   -7.7760  -21.9710 C.3   121  LEU121      0.0270
     81  CG        -3.5420   -7.7450  -20.8670 C.3   121  LEU121      0.0019
     82  CD1       -2.8830   -7.3600  -19.5040 C.3   121  LEU121      0.0001
     83  CD2       -4.6480   -6.8170  -21.3910 C.3   121  LEU121      0.0001
@<TRIPOS>BOND
     1    79    78    2
     2    50    49    2
     3    78    77    1
     4    49    48    1
     5    77    76    1
     6    77    80    1
     7    48    51    1
     8    48    47    1
     9    51    52    1
    10    80    81    1
    11    83    81    1
    12    52    53   ar
    13    52    54   ar
    14    81    82    1
    15    20    18   am
    16    53    55   ar
    17    19    18    2
    18    54    56   ar
    19    18    17    1
    20    55    56   ar
    21    39    38    2
    22    38    37    1
    23    17    14    1
    24    14    15    1
    25    14    13    1
    26    63    62    2
    27    37    36    1
    28    37    40    1
    29    16    15    2
    30     1     2    1
    31    15    21   am
    32    61    62    1
    33    61    58    1
    34    13    11   am
    35    62    64   am
    36    40    41    1
    37     4     3    2
    38    21    22    1
    39     2     3    1
    40     2     5    1
    41     3     9   am
    42    60    59    2
    43    59    58    1
    44    11    12    2
    45    11    10    1
    46    58    57    1
    47    22    23    1
    48     9    10    1
    49    41    42    1
    50     5     6    1
    51     6     8   ar
    52     6     7   ar
    53    69    70    1
    54    69    66    1
    55    42    43    1
    56    70    71    1
    57    23    24    2
    58    23    25   am
    59    68    67    2
    60    67    66    1
    61    25    26    1
    62    66    65    1
    63    27    28    2
    64    27    26    1
    65    72    71    1
    66    72    73    2
    67    43    44    2
    68    75    73    1
    69    45    44    1
    70    26    29    1
    71    73    74    1
    72    44    46    1
    73    29    30    1
    74    35    33    1
    75    32    33    2
    76    32    31    1
    77    33    34    1
    78    30    31    1
