@<TRIPOS>MOLECULE
tmp/4onfA00.pdb
 108 105 0 0 0
SMALL
GASTEIGER

@<TRIPOS>ATOM
      1  N          5.7870   12.7370   40.2400 N.3    33  GLY33      -0.1210
      2  CA         6.1750   11.3380   40.2880 C.3    33  GLY33       0.1956
      3  C          7.3380   11.1230   39.3310 C.2    33  GLY33       0.2612
      4  O          7.4580   11.8210   38.3290 O.2    33  GLY33      -0.2717
      5  N          8.1970   10.1600   39.6470 N.am   34  MET34      -0.1965
      6  CA         9.4260    9.9300   38.8960 C.3    34  MET34       0.1736
      7  C          9.5910    8.4370   38.6550 C.2    34  MET34       0.2617
      8  O          9.0420    7.6190   39.4000 O.2    34  MET34      -0.2715
      9  CB        10.6220   10.4450   39.7080 C.3    34  MET34       0.0427
     10  CG        10.6040   11.9340   39.9760 C.3    34  MET34       0.0599
     11  SD        10.8470   12.9160   38.4690 S.3    34  MET34      -0.1393
     12  CE        12.3620   12.1780   37.8440 C.3    34  MET34       0.0692
     13  N         10.3400    8.0750   37.6180 N.am   35  SER35      -0.1950
     14  CA        10.6080    6.6710   37.3630 C.3    35  SER35       0.1924
     15  C         12.0150    6.4430   36.8240 C.2    35  SER35       0.2314
     16  O         12.7160    7.3790   36.4210 O.2    35  SER35      -0.2863
     17  CB         9.5580    6.0680   36.4180 C.3    35  SER35       0.2116
     18  OG         9.7120    6.5360   35.0800 O.3    35  SER35      -0.2180
     19  N         10.7270   -0.4310   31.5820 N.3    47  TRP47      -0.1241
     20  CA        10.4330    0.3040   32.8150 C.3    47  TRP47       0.1605
     21  C         10.9520   -0.4820   34.0160 C.2    47  TRP47       0.2264
     22  O         10.8630   -1.7050   34.0390 O.2    47  TRP47      -0.2867
     23  CB         8.9150    0.5680   32.9560 C.3    47  TRP47       0.0550
     24  CG         8.5460    1.0670   34.3300 C.ar   47  TRP47       0.0003
     25  CD1        8.6990    2.3400   34.8120 C.ar   47  TRP47       0.0946
     26  CD2        7.9810    0.2940   35.4060 C.ar   47  TRP47       0.0152
     27  NE1        8.2600    2.4090   36.1230 N.ar   47  TRP47      -0.2442
     28  CE2        7.8080    1.1700   36.5070 C.ar   47  TRP47       0.0810
     29  CE3        7.5990   -1.0470   35.5430 C.ar   47  TRP47       0.0012
     30  CZ2        7.2910    0.7420   37.7360 C.ar   47  TRP47       0.0191
     31  CZ3        7.0710   -1.4720   36.7700 C.ar   47  TRP47       0.0001
     32  CH2        6.9250   -0.5790   37.8480 C.ar   47  TRP47       0.0015
     33  N          9.0140    3.0880   39.9250 N.3    50  SER50      -0.1202
     34  CA         8.3570    4.3890   39.9990 C.3    50  SER50       0.2020
     35  C          8.1160    4.7830   41.4380 C.2    50  SER50       0.2619
     36  O          7.9000    3.9230   42.3040 O.2    50  SER50      -0.2717
     37  CB         7.0000    4.3690   39.2890 C.3    50  SER50       0.2103
     38  OG         7.1370    4.4000   37.8770 O.3    50  SER50      -0.2182
     39  N          8.1370    6.0870   41.6950 N.am   51  ILE51      -0.1965
     40  CA         7.8040    6.5980   43.0170 C.3    51  ILE51       0.1727
     41  C          6.8980    7.8180   42.8620 C.2    51  ILE51       0.2616
     42  O          7.1470    8.6840   42.0250 O.2    51  ILE51      -0.2715
     43  CB         9.0580    6.9240   43.8640 C.3    51  ILE51       0.0290
     44  CG1        8.6490    7.3260   45.2890 C.3    51  ILE51       0.0022
     45  CG2        9.9080    8.0140   43.1970 C.3    51  ILE51       0.0023
     46  CD1        9.8020    7.3610   46.2810 C.3    51  ILE51       0.0001
     47  N          5.8100    7.8460   43.6270 N.am   52  ARG52      -0.1977
     48  CA         4.8680    8.9570   43.5790 C.3    52  ARG52       0.1597
     49  C          5.4350   10.2080   44.2360 C.2    52  ARG52       0.2287
     50  O          6.3640   10.1400   45.0320 O.2    52  ARG52      -0.2864
     51  CB         3.5780    8.5850   44.3130 C.3    52  ARG52       0.0334
     52  CG         2.8790    7.3680   43.7630 C.3    52  ARG52       0.0492
     53  CD         1.8990    7.7590   42.6750 C.3    52  ARG52       0.2205
     54  NE         0.8660    6.7420   42.5210 N.pl3  52  ARG52      -0.0865
     55  CZ        -0.4220    6.9310   42.7690 C.cat  52  ARG52       0.5346
     56  NH1       -0.8620    8.1170   43.1670 N.pl3  52  ARG52       0.1354
     57  NH2       -1.2750    5.9330   42.5940 N.pl3  52  ARG52       0.1354
     58  N          4.8310    6.1760   47.8500 N.3    57  ARG57      -0.1245
     59  CA         4.3770    4.9090   47.2880 C.3    57  ARG57       0.1563
     60  C          5.2720    4.4920   46.1350 C.2    57  ARG57       0.2260
     61  O          5.6350    5.3200   45.3060 O.2    57  ARG57      -0.2867
     62  CB         2.9150    5.0170   46.8420 C.3    57  ARG57       0.0307
     63  CG         1.9530    5.2490   48.0030 C.3    57  ARG57       0.0489
     64  CD         0.6950    5.9820   47.5730 C.3    57  ARG57       0.2205
     65  NE        -0.1560    5.1770   46.6990 N.pl3  57  ARG57      -0.0865
     66  CZ        -1.3620    5.5570   46.2820 C.cat  57  ARG57       0.5346
     67  NH1       -1.8580    6.7290   46.6620 N.pl3  57  ARG57       0.1354
     68  NH2       -2.0750    4.7650   45.4890 N.pl3  57  ARG57       0.1354
     69  N          6.6430    1.3300   43.1140 N.3    59  TYR59      -0.1241
     70  CA         6.1830    0.2840   42.2010 C.3    59  TYR59       0.1605
     71  C          7.4050   -0.2790   41.5030 C.2    59  TYR59       0.2264
     72  O          8.3180    0.4710   41.1720 O.2    59  TYR59      -0.2867
     73  CB         5.2080    0.8670   41.1680 C.3    59  TYR59       0.0534
     74  CG         4.0740    1.6640   41.7880 C.ar   59  TYR59      -0.0201
     75  CD1        2.8360    1.0770   42.0250 C.ar   59  TYR59      -0.0009
     76  CD2        4.2460    3.0050   42.1310 C.ar   59  TYR59      -0.0009
     77  CE1        1.7930    1.8020   42.5960 C.ar   59  TYR59       0.0417
     78  CE2        3.2090    3.7350   42.7190 C.ar   59  TYR59       0.0417
     79  CZ         1.9920    3.1290   42.9410 C.ar   59  TYR59       0.1957
     80  OH         0.9660    3.8540   43.5130 O.3    59  TYR59      -0.2866
     81  N          7.3230   11.9140   35.3150 N.3    99  TYR99      -0.1241
     82  CA         5.9340   11.7830   34.9020 C.3    99  TYR99       0.1605
     83  C          5.2590   13.1380   35.0620 C.2    99  TYR99       0.2264
     84  O          5.2920   13.7290   36.1470 O.2    99  TYR99      -0.2867
     85  CB         5.1860   10.7350   35.7360 C.3    99  TYR99       0.0534
     86  CG         3.7110   10.7100   35.3920 C.ar   99  TYR99      -0.0201
     87  CD1        3.2910   10.2460   34.1530 C.ar   99  TYR99      -0.0009
     88  CD2        2.7500   11.1580   36.2900 C.ar   99  TYR99      -0.0009
     89  CE1        1.9540   10.2310   33.8060 C.ar   99  TYR99       0.0417
     90  CE2        1.3830   11.1550   35.9480 C.ar   99  TYR99       0.0417
     91  CZ         1.0060   10.6820   34.6970 C.ar   99  TYR99       0.1957
     92  OH        -0.3100   10.6510   34.3020 O.3    99  TYR99      -0.2866
     93  N         -0.4460   13.9370   31.3590 N.3   104  GLY104     -0.1210
     94  CA        -0.8640   12.5460   31.3450 C.3   104  GLY104      0.1956
     95  C          0.1430   11.5670   30.7680 C.2   104  GLY104      0.2613
     96  O         -0.2240   10.4690   30.3550 O.2   104  GLY104     -0.2717
     97  N          1.4160   11.9530   30.7190 N.am  105  SER105     -0.1938
     98  CA         2.4530   11.0070   30.3440 C.3   105  SER105      0.2055
     99  C          3.8010   11.4360   30.8900 C.2   105  SER105      0.2643
    100  O          3.9990   12.5930   31.2510 O.2   105  SER105     -0.2714
    101  CB         2.5470   10.8460   28.8230 C.3   105  SER105      0.2130
    102  OG         3.3260   11.8720   28.2390 O.3   105  SER105     -0.2179
    103  N          4.7190   10.4810   30.9610 N.am  106  SER106     -0.1949
    104  CA         6.1070   10.7920   31.2250 C.3   106  SER106      0.1924
    105  C          6.6000   11.6770   30.0940 C.2   106  SER106      0.2314
    106  O          6.2780   11.4360   28.9210 O.2   106  SER106     -0.2863
    107  CB         6.9270    9.5050   31.3080 C.3   106  SER106      0.2116
    108  OG         6.5810    8.7840   32.4830 O.3   106  SER106     -0.2180
@<TRIPOS>BOND
     1   102   101    1
     2   101    98    1
     3   106   105    2
     4   105   104    1
     5    98    97    1
     6    98    99    1
     7    96    95    2
     8    97    95   am
     9    95    94    1
    10    99   103   am
    11    99   100    2
    12   103   104    1
    13   104   107    1
    14   107   108    1
    15    94    93    1
    16    19    20    1
    17    20    23    1
    18    20    21    1
    19    23    24    1
    20    89    87   ar
    21    89    91   ar
    22    21    22    2
    23    87    86   ar
    24    92    91    1
    25    24    25   ar
    26    24    26   ar
    27    91    90   ar
    28    25    27   ar
    29    82    83    1
    30    82    81    1
    31    82    85    1
    32    83    84    2
    33    18    17    1
    34    86    85    1
    35    86    88   ar
    36    26    29   ar
    37    26    28   ar
    38    29    31   ar
    39    90    88   ar
    40    27    28   ar
    41    17    14    1
    42    16    15    2
    43    28    30   ar
    44    31    32   ar
    45    15    14    1
    46    14    13    1
    47    13     7   am
    48    30    32   ar
    49    12    11    1
    50    38    37    1
    51     4     3    2
    52    11    10    1
    53     7     6    1
    54     7     8    2
    55     6     5    1
    56     6     9    1
    57    37    34    1
    58     3     5   am
    59     3     2    1
    60     9    10    1
    61    33    34    1
    62    34    35    1
    63     1     2    1
    64    73    74    1
    65    73    70    1
    66    72    71    2
    67    35    39   am
    68    35    36    2
    69    71    70    1
    70    39    40    1
    71    74    75   ar
    72    74    76   ar
    73    42    41    2
    74    75    77   ar
    75    76    78   ar
    76    70    69    1
    77    54    53    1
    78    54    55    2
    79    57    55    1
    80    77    79   ar
    81    53    52    1
    82    78    79   ar
    83    55    56    1
    84    41    40    1
    85    41    47   am
    86    79    80    1
    87    40    43    1
    88    45    43    1
    89    48    47    1
    90    48    49    1
    91    48    51    1
    92    52    51    1
    93    43    44    1
    94    49    50    2
    95    44    46    1
    96    61    60    2
    97    68    66    1
    98    60    59    1
    99    66    67    1
   100    66    65    2
   101    65    64    1
   102    62    59    1
   103    62    63    1
   104    59    58    1
   105    64    63    1
