@<TRIPOS>MOLECULE
tmp/4ongB00.pdb
 93 91 0 0 0
SMALL
GASTEIGER

@<TRIPOS>ATOM
      1  N         31.3740   33.0870  129.4840 N.3    31  ASP31      -0.1239
      2  CA        31.4030   32.0290  130.4970 C.3    31  ASP31       0.1674
      3  C         32.2510   32.4940  131.6780 C.2    31  ASP31       0.2266
      4  O         33.0060   33.4610  131.5630 O.2    31  ASP31      -0.2867
      5  CB        31.9610   30.7170  129.9220 C.3    31  ASP31       0.1410
      6  CG        31.7210   29.5060  130.8410 C.2    31  ASP31       0.3668
      7  OD1       30.7800   28.7190  130.5860 O.co2  31  ASP31      -0.2456
      8  OD2       32.4840   29.3260  131.8200 O.co2  31  ASP31      -0.2456
      9  N         34.7360   31.0460  132.8450 N.3    33  ASP33      -0.1239
     10  CA        36.1380   30.7740  132.5310 C.3    33  ASP33       0.1674
     11  C         36.7810   31.9090  131.7310 C.2    33  ASP33       0.2266
     12  O         37.9480   31.8280  131.3450 O.2    33  ASP33      -0.2867
     13  CB        36.3130   29.4280  131.8090 C.3    33  ASP33       0.1410
     14  CG        35.6750   29.4050  130.4210 C.2    33  ASP33       0.3668
     15  OD1       35.1300   30.4400  129.9730 O.co2  33  ASP33      -0.2456
     16  OD2       35.7300   28.3360  129.7670 O.co2  33  ASP33      -0.2456
     17  N         31.7380   31.5900  124.1350 N.3    37  TYR37      -0.1241
     18  CA        31.5430   30.4720  123.2260 C.3    37  TYR37       0.1605
     19  C         30.5170   30.7720  122.1580 C.2    37  TYR37       0.2264
     20  O         29.4430   30.1580  122.1180 O.2    37  TYR37      -0.2867
     21  CB        31.1950   29.1990  124.0010 C.3    37  TYR37       0.0534
     22  CG        32.3210   28.7720  124.9120 C.ar   37  TYR37      -0.0201
     23  CD1       32.3290   29.1280  126.2540 C.ar   37  TYR37      -0.0009
     24  CD2       33.4000   28.0400  124.4200 C.ar   37  TYR37      -0.0009
     25  CE1       33.3760   28.7620  127.0820 C.ar   37  TYR37       0.0417
     26  CE2       34.4510   27.6610  125.2510 C.ar   37  TYR37       0.0417
     27  CZ        34.4320   28.0260  126.5760 C.ar   37  TYR37       0.1957
     28  OH        35.4690   27.6540  127.4070 O.3    37  TYR37      -0.2866
     29  N         29.9500   30.8020  118.0630 N.3    39  ASN39      -0.1240
     30  CA        30.4610   30.1520  116.8590 C.3    39  ASN39       0.1653
     31  C         29.6490   30.5170  115.6280 C.2    39  ASN39       0.2266
     32  O         28.4810   30.8580  115.7480 O.2    39  ASN39      -0.2867
     33  CB        30.4110   28.6380  117.0340 C.3    39  ASN39       0.1155
     34  CG        31.0000   28.1850  118.3510 C.2    39  ASN39       0.2627
     35  OD1       32.2120   28.0560  118.4730 O.2    39  ASN39      -0.2716
     36  ND2       30.1460   27.9510  119.3480 N.am   39  ASN39      -0.0877
     37  N         25.8010   30.0220  116.7030 N.3    94  TRP94      -0.1241
     38  CA        25.2820   29.1520  117.7520 C.3    94  TRP94       0.1605
     39  C         26.1630   29.3220  118.9750 C.2    94  TRP94       0.2264
     40  O         27.3430   29.6610  118.8500 O.2    94  TRP94      -0.2867
     41  CB        25.2090   27.6870  117.2910 C.3    94  TRP94       0.0550
     42  CG        26.4430   26.8420  117.5350 C.ar   94  TRP94       0.0003
     43  CD1       26.7310   26.1220  118.6650 C.ar   94  TRP94       0.0946
     44  CD2       27.5260   26.5950  116.6170 C.ar   94  TRP94       0.0152
     45  NE1       27.9230   25.4580  118.5110 N.ar   94  TRP94      -0.2442
     46  CE2       28.4330   25.7310  117.2670 C.ar   94  TRP94       0.0810
     47  CE3       27.8160   27.0230  115.3120 C.ar   94  TRP94       0.0012
     48  CZ2       29.6250   25.2880  116.6610 C.ar   94  TRP94       0.0191
     49  CZ3       28.9970   26.5790  114.7030 C.ar   94  TRP94       0.0001
     50  CH2       29.8890   25.7210  115.3860 C.ar   94  TRP94       0.0015
     51  N         27.7820   28.0130  122.7360 N.3    96  GLY96      -0.1210
     52  CA        28.1640   26.8780  123.5530 C.3    96  GLY96       0.1956
     53  C         28.4650   27.2850  124.9860 C.2    96  GLY96       0.2613
     54  O         29.1510   26.5640  125.7180 O.2    96  GLY96      -0.2717
     55  N         27.9580   28.4470  125.3880 N.am   97  THR97      -0.1938
     56  CA        28.1330   28.9250  126.7650 C.3    97  THR97       0.2028
     57  C         27.1250   28.3140  127.7440 C.2    97  THR97       0.2642
     58  O         27.5140   27.8540  128.8110 O.2    97  THR97      -0.2714
     59  CB        28.0790   30.4750  126.8550 C.3    97  THR97       0.1808
     60  OG1       29.1780   31.0310  126.1270 O.3    97  THR97      -0.2208
     61  CG2       28.1790   30.9340  128.2960 C.3    97  THR97       0.0379
     62  N         25.8380   28.3000  127.3940 N.am   98  HIS98      -0.1959
     63  CA        24.8330   27.7440  128.3180 C.3    98  HIS98       0.1787
     64  C         24.2010   26.4580  127.7980 C.2    98  HIS98       0.2620
     65  O         24.2070   26.1740  126.6080 O.2    98  HIS98      -0.2715
     66  CB        23.7160   28.7450  128.6250 C.3    98  HIS98       0.0785
     67  CG        24.2030   30.1070  129.0060 C.ar   98  HIS98       0.0821
     68  ND1       24.3760   30.4980  130.3210 N.ar   98  HIS98      -0.2267
     69  CD2       24.5350   31.1780  128.2450 C.ar   98  HIS98       0.1154
     70  CE1       24.8050   31.7470  130.3460 C.ar   98  HIS98       0.1986
     71  NE2       24.9100   32.1830  129.1010 N.ar   98  HIS98      -0.2212
     72  N         23.6360   25.6900  128.7130 N.am   99  PHE99      -0.1974
     73  CA        22.9230   24.4900  128.3460 C.3    99  PHE99       0.1639
     74  C         21.4450   24.8100  128.2270 C.2    99  PHE99       0.2290
     75  O         20.8880   25.4910  129.0790 O.2    99  PHE99      -0.2864
     76  CB        23.1530   23.4150  129.4040 C.3    99  PHE99       0.0560
     77  CG        22.4100   22.1490  129.1430 C.ar   99  PHE99      -0.0200
     78  CD1       22.9210   21.1990  128.2760 C.ar   99  PHE99      -0.0042
     79  CD2       21.2020   21.9040  129.7610 C.ar   99  PHE99      -0.0042
     80  CE1       22.2390   20.0250  128.0390 C.ar   99  PHE99      -0.0003
     81  CE2       20.5180   20.7290  129.5290 C.ar   99  PHE99      -0.0003
     82  CZ        21.0340   19.7910  128.6640 C.ar   99  PHE99      -0.0000
     83  N         22.7730   23.8550  124.0840 N.3   101  ARG101     -0.1245
     84  CA        23.2790   24.6580  122.9760 C.3   101  ARG101      0.1563
     85  C         22.1180   25.0670  122.0720 C.2   101  ARG101      0.2260
     86  O         21.1830   24.2980  121.8540 O.2   101  ARG101     -0.2867
     87  CB        24.3460   23.8950  122.1860 C.3   101  ARG101      0.0307
     88  CG        23.8940   22.5450  121.6770 C.3   101  ARG101      0.0489
     89  CD        25.0520   21.7690  121.0590 C.3   101  ARG101      0.2205
     90  NE        26.0780   21.4550  122.0510 N.pl3 101  ARG101     -0.0865
     91  CZ        26.7530   20.3130  122.0920 C.cat 101  ARG101      0.5346
     92  NH1       26.5150   19.3710  121.1940 N.pl3 101  ARG101      0.1354
     93  NH2       27.6670   20.1110  123.0310 N.pl3 101  ARG101      0.1354
@<TRIPOS>BOND
     1    49    47   ar
     2    49    50   ar
     3    47    44   ar
     4    50    48   ar
     5    31    32    2
     6    31    30    1
     7    44    46   ar
     8    44    42   ar
     9    48    46   ar
    10    37    38    1
    11    30    33    1
    12    30    29    1
    13    33    34    1
    14    46    45   ar
    15    41    42    1
    16    41    38    1
    17    42    43   ar
    18    38    39    1
    19    34    35    2
    20    34    36   am
    21    45    43   ar
    22    40    39    2
    23    89    88    1
    24    89    90    1
    25    92    91    1
    26    88    87    1
    27    86    85    2
    28    90    91    2
    29    85    84    1
    30    91    93    1
    31    20    19    2
    32    19    18    1
    33    87    84    1
    34    51    52    1
    35    84    83    1
    36    18    21    1
    37    18    17    1
    38    52    53    1
    39    21    22    1
    40    24    22   ar
    41    24    26   ar
    42    22    23   ar
    43    53    55   am
    44    53    54    2
    45    26    27   ar
    46    55    56    1
    47    60    59    1
    48    23    25   ar
    49    27    25   ar
    50    27    28    1
    51    65    64    2
    52    56    59    1
    53    56    57    1
    54    59    61    1
    55    62    57   am
    56    62    63    1
    57    57    58    2
    58    64    63    1
    59    64    72   am
    60    80    78   ar
    61    80    82   ar
    62    74    73    1
    63    74    75    2
    64    69    67   ar
    65    69    71   ar
    66    78    77   ar
    67    63    66    1
    68    73    72    1
    69    73    76    1
    70    66    67    1
    71    82    81   ar
    72    67    68   ar
    73    71    70   ar
    74    77    76    1
    75    77    79   ar
    76     1     2    1
    77    81    79   ar
    78    16    14   ar
    79     5     2    1
    80     5     6    1
    81    15    14   ar
    82    68    70   ar
    83    14    13    1
    84     2     3    1
    85     7     6   ar
    86     6     8   ar
    87    12    11    2
    88     4     3    2
    89    11    10    1
    90    13    10    1
    91    10     9    1
