@<TRIPOS>MOLECULE
tmp/4oniC02.pdb
 105 94 0 0 0
SMALL
GASTEIGER

@<TRIPOS>ATOM
      1  N          5.1040  -11.5250   71.2390 N.3    24  MET24      -0.1245
      2  CA         6.1310  -11.6880   72.2670 C.3    24  MET24       0.1570
      3  C          6.5990  -13.0860   72.4730 C.2    24  MET24       0.2261
      4  O          7.8030  -13.3370   72.4760 O.2    24  MET24      -0.2867
      5  CB         5.6420  -11.1450   73.6330 C.3    24  MET24       0.0387
      6  CG         6.0270   -9.7100   73.9020 C.3    24  MET24       0.0595
      7  SD         7.8310   -9.3640   73.8060 S.3    24  MET24      -0.1393
      8  CE         8.3680   -9.9370   75.4320 C.3    24  MET24       0.0692
      9  N          8.5680  -14.3790   69.3540 N.3    27  LEU27      -0.1231
     10  CA         9.9250  -13.8920   69.2130 C.3    27  LEU27       0.1693
     11  C         10.8640  -14.4270   70.3170 C.2    27  LEU27       0.2591
     12  O         12.0650  -14.7300   70.0870 O.2    27  LEU27      -0.2718
     13  CB         9.9830  -12.3790   69.1830 C.3    27  LEU27       0.0284
     14  CG         9.2150  -11.6920   68.0350 C.3    27  LEU27       0.0019
     15  CD1        9.1150  -10.2130   68.3570 C.3    27  LEU27       0.0001
     16  CD2        9.9020  -12.0010   66.7180 C.3    27  LEU27       0.0001
     17  N         10.3240  -14.5320   71.5380 N.am   28  GLN28      -0.1979
     18  CA        11.0620  -15.2180   72.6220 C.3    28  GLN28       0.1601
     19  C         11.5180  -16.5950   72.2890 C.2    28  GLN28       0.2287
     20  O         12.7020  -16.9720   72.4780 O.2    28  GLN28      -0.2864
     21  CB        10.1980  -15.3820   73.8570 C.3    28  GLN28       0.0394
     22  CG        10.2510  -14.2470   74.7460 C.3    28  GLN28       0.0908
     23  CD         9.6260  -14.5690   76.1140 C.2    28  GLN28       0.2608
     24  OE1        9.2000  -15.7220   76.4460 O.2    28  GLN28      -0.2717
     25  NE2        9.5400  -13.5330   76.8980 N.am   28  GLN28      -0.0878
     26  N         14.2690  -16.8420   69.6030 N.3    31  GLN31      -0.1245
     27  CA        15.6090  -16.5990   70.1110 C.3    31  GLN31       0.1566
     28  C         16.0730  -17.6580   71.1110 C.2    31  GLN31       0.2260
     29  O         17.2910  -17.9240   71.2150 O.2    31  GLN31      -0.2867
     30  CB        15.7270  -15.2490   70.7710 C.3    31  GLN31       0.0367
     31  CG        15.9530  -14.0800   69.8550 C.3    31  GLN31       0.0905
     32  CD        17.3430  -13.9780   69.1880 C.2    31  GLN31       0.2608
     33  OE1       17.7150  -14.8200   68.4100 O.2    31  GLN31      -0.2717
     34  NE2       18.0350  -12.8430   69.3890 N.am   31  GLN31      -0.0878
     35  N         19.0130   -7.5030   65.6220 N.3    42  THR42      -0.1218
     36  CA        17.9090   -6.6270   65.8360 C.3    42  THR42       0.1862
     37  C         17.0730   -6.5910   64.5590 C.2    42  THR42       0.2287
     38  O         15.8730   -6.7300   64.6150 O.2    42  THR42      -0.2866
     39  CB        18.4000   -5.2170   66.1680 C.3    42  THR42       0.1770
     40  OG1       19.1020   -5.2910   67.4040 O.3    42  THR42      -0.2211
     41  CG2       17.2520   -4.2670   66.2730 C.3    42  THR42       0.0375
     42  N         15.0680   -9.7190   63.9610 N.3    45  LEU45      -0.1231
     43  CA        13.9890   -9.8000   64.9210 C.3    45  LEU45       0.1693
     44  C         12.8200   -8.8410   64.5890 C.2    45  LEU45       0.2591
     45  O         11.6650   -9.2170   64.7330 O.2    45  LEU45      -0.2718
     46  CB        14.4770   -9.4880   66.3310 C.3    45  LEU45       0.0284
     47  CG        15.2070  -10.5700   67.0520 C.3    45  LEU45       0.0019
     48  CD1       16.0050   -9.8920   68.1600 C.3    45  LEU45       0.0001
     49  CD2       14.1960  -11.5840   67.5680 C.3    45  LEU45       0.0001
     50  N         13.1660   -7.6230   64.1460 N.am   46  MET46      -0.1979
     51  CA        12.1610   -6.6480   63.7400 C.3    46  MET46       0.1605
     52  C         11.4010   -7.1170   62.5180 C.2    46  MET46       0.2287
     53  O         10.2130   -6.8760   62.4160 O.2    46  MET46      -0.2864
     54  CB        12.7340   -5.2300   63.5930 C.3    46  MET46       0.0413
     55  CG        13.3180   -4.6320   64.8800 C.3    46  MET46       0.0598
     56  SD        12.0980   -4.3770   66.1860 S.3    46  MET46      -0.1393
     57  CE        12.3810   -5.7790   67.2650 C.3    46  MET46       0.0692
     58  N          6.2590   -0.4400   70.1470 N.3   106  LEU106     -0.1245
     59  CA         6.1780   -1.6160   69.3160 C.3   106  LEU106      0.1561
     60  C          4.9750   -2.5020   69.6100 C.2   106  LEU106      0.2260
     61  O          4.4020   -2.4870   70.7160 O.2   106  LEU106     -0.2867
     62  CB         7.4920   -2.4490   69.4010 C.3   106  LEU106      0.0270
     63  CG         8.7990   -1.7190   69.2160 C.3   106  LEU106      0.0019
     64  CD1        9.9670   -2.6590   69.5170 C.3   106  LEU106      0.0001
     65  CD2        8.8860   -1.1880   67.7970 C.3   106  LEU106      0.0001
     66  N          4.9210   -5.4030   70.2900 N.3   108  THR108     -0.1218
     67  CA         5.3310   -6.2560   71.4250 C.3   108  THR108      0.1862
     68  C          5.2020   -5.5830   72.7800 C.2   108  THR108      0.2287
     69  O          5.3440   -6.2460   73.8100 O.2   108  THR108     -0.2866
     70  CB         6.7590   -6.7610   71.2470 C.3   108  THR108      0.1770
     71  OG1        7.6340   -5.7240   70.8700 O.3   108  THR108     -0.2211
     72  CG2        6.8620   -7.8580   70.1580 C.3   108  THR108      0.0375
     73  N          7.0390   -2.8260   73.8820 N.3   110  GLN110     -0.1245
     74  CA         8.2080   -2.0240   74.3150 C.3   110  GLN110      0.1566
     75  C          8.2540   -0.6570   73.6610 C.2   110  GLN110      0.2260
     76  O          7.6650   -0.5080   72.5740 O.2   110  GLN110     -0.2867
     77  CB         9.5220   -2.6720   73.9010 C.3   110  GLN110      0.0367
     78  CG         9.8740   -3.9540   74.5910 C.3   110  GLN110      0.0905
     79  CD         9.1420   -5.0380   73.9500 C.2   110  GLN110      0.2608
     80  OE1        8.8910   -4.9810   72.7430 O.2   110  GLN110     -0.2717
     81  NE2        8.7390   -6.0060   74.7130 N.am  110  GLN110     -0.0878
     82  N         10.9910    2.1890   72.2330 N.3   112  VAL112     -0.1245
     83  CA        12.3740    2.3410   71.7840 C.3   112  VAL112      0.1561
     84  C         12.6000    3.8270   71.6520 C.2   112  VAL112      0.2260
     85  O         11.8950    4.5200   70.8930 O.2   112  VAL112     -0.2867
     86  CB        12.5870    1.6170   70.4620 C.3   112  VAL112      0.0252
     87  CG1       13.9890    1.7900   69.9600 C.3   112  VAL112      0.0019
     88  CG2       12.2750    0.1220   70.6490 C.3   112  VAL112      0.0019
     89  N         18.1030    5.8030   70.3370 N.3   116  ILE116     -0.1245
     90  CA        18.6400    4.5110   69.9420 C.3   116  ILE116      0.1561
     91  C         18.6030    4.3880   68.4120 C.2   116  ILE116      0.2260
     92  O         19.5800    3.9490   67.7790 O.2   116  ILE116     -0.2867
     93  CB        17.8680    3.3900   70.6370 C.3   116  ILE116      0.0252
     94  CG1       18.0860    3.5170   72.1450 C.3   116  ILE116      0.0019
     95  CG2       18.3090    2.0030   70.1380 C.3   116  ILE116      0.0019
     96  CD1       17.2710    2.5430   72.9260 C.3   116  ILE116      0.0001
     97  N         21.6800    3.6670   65.9970 N.3   120  GLN120     -0.1245
     98  CA        21.7800    2.3580   65.3990 C.3   120  GLN120      0.1566
     99  C         21.3570    2.2270   63.9660 C.2   120  GLN120      0.2260
    100  O         21.7750    1.2840   63.2910 O.2   120  GLN120     -0.2867
    101  CB        20.9580    1.3980   66.2070 C.3   120  GLN120      0.0367
    102  CG        21.4860    1.2420   67.6100 C.3   120  GLN120      0.0905
    103  CD        21.1990   -0.1630   68.0930 C.2   120  GLN120      0.2608
    104  OE1       21.9050   -1.1240   67.7350 O.2   120  GLN120     -0.2717
    105  NE2       20.1440   -0.3020   68.8620 N.am  120  GLN120     -0.0878
@<TRIPOS>BOND
     1    53    52    2
     2    52    51    1
     3   100    99    2
     4    54    51    1
     5    54    55    1
     6    51    50    1
     7    42    43    1
     8    99    98    1
     9    50    44   am
    10    37    38    2
    11    37    36    1
    12    44    45    2
    13    44    43    1
    14    55    56    1
    15    43    46    1
    16    98    97    1
    17    98   101    1
    18    35    36    1
    19    36    39    1
    20    39    41    1
    21    39    40    1
    22    56    57    1
    23   101   102    1
    24    46    47    1
    25    16    14    1
    26    47    49    1
    27    47    48    1
    28   102   103    1
    29   104   103    2
    30    92    91    2
    31    65    63    1
    32    14    15    1
    33    14    13    1
    34   103   105   am
    35    33    32    2
    36    91    90    1
    37    13    10    1
    38    32    34   am
    39    32    31    1
    40    10     9    1
    41    10    11    1
    42    63    62    1
    43    63    64    1
    44    59    62    1
    45    59    60    1
    46    59    58    1
    47    26    27    1
    48    60    61    2
    49    31    30    1
    50    90    89    1
    51    90    93    1
    52    87    86    1
    53    12    11    2
    54    27    30    1
    55    27    28    1
    56    95    93    1
    57    72    70    1
    58    66    67    1
    59    11    17   am
    60    86    88    1
    61    86    83    1
    62    93    94    1
    63    71    70    1
    64    85    84    2
    65    28    29    2
    66     1     2    1
    67    70    67    1
    68    67    68    1
    69    17    18    1
    70    84    83    1
    71    83    82    1
    72    94    96    1
    73     2     3    1
    74     2     5    1
    75    19    20    2
    76    19    18    1
    77     3     4    2
    78    76    75    2
    79    18    21    1
    80    80    79    2
    81    68    69    2
    82     5     6    1
    83    75    74    1
    84     7     6    1
    85     7     8    1
    86    21    22    1
    87    73    74    1
    88    77    74    1
    89    77    78    1
    90    79    78    1
    91    79    81   am
    92    22    23    1
    93    23    24    2
    94    23    25   am
