@<TRIPOS>MOLECULE
tmp/4onjB00.pdb
 178 170 0 0 0
SMALL
GASTEIGER

@<TRIPOS>ATOM
      1  N        -39.9930  -61.5490  -19.7230 N.3    38  GLU38      -0.1245
      2  CA       -39.3990  -60.3540  -19.1420 C.3    38  GLU38       0.1567
      3  C        -40.1360  -59.0860  -19.5640 C.2    38  GLU38       0.2260
      4  O        -40.5420  -58.9420  -20.7170 O.2    38  GLU38      -0.2867
      5  CB       -37.9150  -60.2680  -19.5300 C.3    38  GLU38       0.0388
      6  CG       -37.2180  -58.9580  -19.1710 C.3    38  GLU38       0.1160
      7  CD       -37.4010  -57.8850  -20.2310 C.2    38  GLU38       0.3649
      8  OE1      -37.6090  -58.2400  -21.4120 O.co2  38  GLU38      -0.2457
      9  OE2      -37.3520  -56.6880  -19.8820 O.co2  38  GLU38      -0.2457
     10  N        -29.3460  -52.2940  -30.0530 N.3   201  SER201     -0.1217
     11  CA       -29.6490  -53.7000  -29.8000 C.3   201  SER201      0.1889
     12  C        -29.1750  -54.1620  -28.4200 C.2   201  SER201      0.2288
     13  O        -29.6930  -55.1340  -27.8720 O.2   201  SER201     -0.2866
     14  CB       -29.0350  -54.5770  -30.8890 C.3   201  SER201      0.2089
     15  OG       -27.6400  -54.3530  -30.9820 O.3   201  SER201     -0.2183
     16  N        -31.5050  -52.7660  -24.8630 N.3   204  ASN204     -0.1225
     17  CA       -32.6940  -53.5060  -24.4880 C.3   204  ASN204      0.1785
     18  C        -32.4640  -54.9790  -24.7490 C.2   204  ASN204      0.2598
     19  O        -33.0610  -55.5660  -25.6490 O.2   204  ASN204     -0.2718
     20  CB       -33.8770  -53.0080  -25.2990 C.3   204  ASN204      0.1169
     21  CG       -33.4700  -52.5770  -26.6800 C.2   204  ASN204      0.2627
     22  OD1      -32.4650  -53.0470  -27.2120 O.2   204  ASN204     -0.2716
     23  ND2      -34.2290  -51.6640  -27.2640 N.am  204  ASN204     -0.0877
     24  N        -31.5680  -55.5600  -23.9630 N.am  205  SER205     -0.1938
     25  CA       -31.2430  -56.9720  -24.0520 C.3   205  SER205      0.2055
     26  C        -31.2230  -57.5160  -22.6360 C.2   205  SER205      0.2643
     27  O        -31.1670  -56.7480  -21.6770 O.2   205  SER205     -0.2714
     28  CB       -29.8710  -57.1600  -24.7010 C.3   205  SER205      0.2130
     29  OG       -28.8270  -56.8250  -23.8040 O.3   205  SER205     -0.2179
     30  N        -31.2740  -58.8330  -22.4940 N.am  206  PHE206     -0.1973
     31  CA       -31.1480  -59.4350  -21.1750 C.3   206  PHE206      0.1639
     32  C        -29.7890  -59.1080  -20.5660 C.2   206  PHE206      0.2290
     33  O        -28.7710  -59.0780  -21.2600 O.2   206  PHE206     -0.2864
     34  CB       -31.3100  -60.9520  -21.2550 C.3   206  PHE206      0.0560
     35  CG       -32.7130  -61.3990  -21.5300 C.ar  206  PHE206     -0.0200
     36  CD1      -33.7840  -60.5790  -21.2310 C.ar  206  PHE206     -0.0042
     37  CD2      -32.9600  -62.6420  -22.0860 C.ar  206  PHE206     -0.0042
     38  CE1      -35.0730  -60.9900  -21.4810 C.ar  206  PHE206     -0.0003
     39  CE2      -34.2480  -63.0560  -22.3400 C.ar  206  PHE206     -0.0003
     40  CZ       -35.3060  -62.2310  -22.0370 C.ar  206  PHE206     -0.0000
     41  N        -39.0920  -63.0180  -29.4760 N.3   232  PHE232     -0.1227
     42  CA       -38.4340  -61.7210  -29.3320 C.3   232  PHE232      0.1736
     43  C        -36.9990  -61.9360  -28.8450 C.2   232  PHE232      0.2596
     44  O        -36.5850  -61.3860  -27.8220 O.2   232  PHE232     -0.2718
     45  CB       -39.2060  -60.8180  -28.3620 C.3   232  PHE232      0.0547
     46  CG       -40.7040  -60.8940  -28.5160 C.ar  232  PHE232     -0.0202
     47  CD1      -41.3430  -60.2490  -29.5620 C.ar  232  PHE232     -0.0042
     48  CD2      -41.4720  -61.6000  -27.6040 C.ar  232  PHE232     -0.0042
     49  CE1      -42.7180  -60.3150  -29.7020 C.ar  232  PHE232     -0.0003
     50  CE2      -42.8470  -61.6690  -27.7390 C.ar  232  PHE232     -0.0003
     51  CZ       -43.4710  -61.0250  -28.7880 C.ar  232  PHE232     -0.0000
     52  N        -36.2520  -62.7500  -29.5870 N.am  233  SER233     -0.1938
     53  CA       -34.9580  -63.2550  -29.1310 C.3   233  SER233      0.2055
     54  C        -33.8520  -62.2000  -29.0500 C.2   233  SER233      0.2644
     55  O        -32.8810  -62.3730  -28.3100 O.2   233  SER233     -0.2714
     56  CB       -34.5060  -64.4340  -29.9990 C.3   233  SER233      0.2130
     57  OG       -34.3400  -64.0450  -31.3500 O.3   233  SER233     -0.2179
     58  N        -34.0040  -61.1170  -29.8070 N.am  234  GLY234     -0.1939
     59  CA       -33.0350  -60.0350  -29.8060 C.3   234  GLY234      0.2014
     60  C        -31.6510  -60.4780  -30.2370 C.2   234  GLY234      0.2638
     61  O        -31.4930  -61.1030  -31.2850 O.2   234  GLY234     -0.2714
     62  N        -30.6460  -60.1550  -29.4280 N.am  235  ILE235     -0.1977
     63  CA       -29.2770  -60.5720  -29.7140 C.3   235  ILE235      0.1596
     64  C        -28.9160  -61.8720  -28.9980 C.2   235  ILE235      0.2287
     65  O        -27.7420  -62.2080  -28.8580 O.2   235  ILE235     -0.2864
     66  CB       -28.2470  -59.4770  -29.3590 C.3   235  ILE235      0.0276
     67  CG1      -28.3140  -59.1330  -27.8720 C.3   235  ILE235      0.0022
     68  CG2      -28.4700  -58.2370  -30.2110 C.3   235  ILE235      0.0022
     69  CD1      -27.3670  -58.0270  -27.4600 C.3   235  ILE235      0.0001
     70  N        -29.7980  -63.0660  -25.7360 N.3   237  GLY237     -0.1225
     71  CA       -29.5090  -63.0640  -24.3110 C.3   237  GLY237      0.1811
     72  C        -29.8860  -64.3430  -23.5770 C.2   237  GLY237      0.2280
     73  O        -29.1450  -64.8160  -22.7160 O.2   237  GLY237     -0.2866
     74  N        -37.2540  -66.3580  -32.7160 N.3   255  VAL255     -0.1231
     75  CA       -38.0770  -65.4650  -33.5170 C.3   255  VAL255      0.1692
     76  C        -37.6940  -64.0060  -33.2960 C.2   255  VAL255      0.2592
     77  O        -37.8440  -63.4700  -32.1990 O.2   255  VAL255     -0.2718
     78  CB       -39.5770  -65.6540  -33.2560 C.3   255  VAL255      0.0266
     79  CG1      -40.3520  -64.9350  -34.3240 C.3   255  VAL255      0.0020
     80  CG2      -39.9380  -67.1300  -33.2630 C.3   255  VAL255      0.0020
     81  N        -37.2040  -63.3720  -34.3550 N.am  256  GLU256     -0.1966
     82  CA       -36.6560  -62.0280  -34.2610 C.3   256  GLU256      0.1733
     83  C        -36.8980  -61.2160  -35.5310 C.2   256  GLU256      0.2616
     84  O        -36.5120  -61.6260  -36.6240 O.2   256  GLU256     -0.2715
     85  CB       -35.1600  -62.1020  -33.9710 C.3   256  GLU256      0.0429
     86  CG       -34.4470  -60.7890  -34.1470 C.3   256  GLU256      0.1163
     87  CD       -35.0460  -59.7200  -33.2810 C.2   256  GLU256      0.3649
     88  OE1      -34.4580  -59.4320  -32.2260 O.co2 256  GLU256     -0.2457
     89  OE2      -36.1180  -59.1810  -33.6400 O.co2 256  GLU256     -0.2457
     90  N        -37.5200  -60.0520  -35.3710 N.am  257  LYS257     -0.1963
     91  CA       -37.8830  -59.2020  -36.4990 C.3   257  LYS257      0.1728
     92  C        -36.6820  -58.5180  -37.1530 C.2   257  LYS257      0.2616
     93  O        -36.5920  -58.4530  -38.3790 O.2   257  LYS257     -0.2715
     94  CB       -38.9220  -58.1620  -36.0680 C.3   257  LYS257      0.0311
     95  CG       -39.0870  -57.0010  -37.0350 C.3   257  LYS257      0.0038
     96  CD       -40.5240  -56.5090  -37.0710 C.3   257  LYS257      0.0206
     97  CE       -41.4450  -57.5820  -37.6330 C.3   257  LYS257      0.1093
     98  NZ       -42.8660  -57.1420  -37.7070 N.3   257  LYS257     -0.1314
     99  N        -35.7640  -58.0150  -36.3320 N.am  258  SER258     -0.1950
    100  CA       -34.5940  -57.2930  -36.8320 C.3   258  SER258      0.1924
    101  C        -33.5780  -58.2250  -37.4850 C.2   258  SER258      0.2314
    102  O        -33.1900  -59.2380  -36.9050 O.2   258  SER258     -0.2863
    103  CB       -33.9220  -56.5100  -35.6980 C.3   258  SER258      0.2116
    104  OG       -32.7840  -55.8020  -36.1590 O.3   258  SER258     -0.2180
    105  N        -30.1570  -58.1210  -35.6320 N.3   261  ASN261     -0.1240
    106  CA       -30.1820  -59.0500  -34.5080 C.3   261  ASN261      0.1653
    107  C        -30.0990  -60.5050  -34.9610 C.2   261  ASN261      0.2266
    108  O        -29.4620  -61.3320  -34.3080 O.2   261  ASN261     -0.2867
    109  CB       -31.4310  -58.8310  -33.6510 C.3   261  ASN261      0.1155
    110  CG       -31.4720  -57.4530  -33.0170 C.2   261  ASN261      0.2627
    111  OD1      -30.4600  -56.7530  -32.9540 O.2   261  ASN261     -0.2716
    112  ND2      -32.6460  -57.0590  -32.5340 N.am  261  ASN261     -0.0877
    113  N        -39.1190  -64.5860  -38.1840 N.3   282  ASN282     -0.1225
    114  CA       -39.0770  -63.1880  -37.8700 C.3   282  ASN282      0.1785
    115  C        -40.3290  -62.5860  -37.3470 C.2   282  ASN282      0.2597
    116  O        -40.3060  -61.4690  -36.8980 O.2   282  ASN282     -0.2718
    117  CB       -38.6380  -62.3470  -39.0450 C.3   282  ASN282      0.1169
    118  CG       -38.7980  -63.0370  -40.3510 C.2   282  ASN282      0.2627
    119  OD1      -38.7810  -64.2440  -40.4300 O.2   282  ASN282     -0.2716
    120  ND2      -38.9400  -62.2630  -41.3940 N.am  282  ASN282     -0.0877
    121  N        -41.4370  -63.2980  -37.4210 N.am  283  ASP283     -0.1960
    122  CA       -42.6580  -62.7870  -36.8390 C.3   283  ASP283      0.1840
    123  C        -43.3170  -63.8010  -35.9680 C.2   283  ASP283      0.2622
    124  O        -43.4200  -64.9430  -36.3180 O.2   283  ASP283     -0.2715
    125  CB       -43.5970  -62.3060  -37.9110 C.3   283  ASP283      0.1450
    126  CG       -43.9190  -60.8670  -37.7580 C.2   283  ASP283      0.3671
    127  OD1      -44.5570  -60.5180  -36.7540 O.co2 283  ASP283     -0.2456
    128  OD2      -43.5140  -60.0790  -38.6250 O.co2 283  ASP283     -0.2456
    129  N        -43.7600  -63.3730  -34.8120 N.am  284  VAL284     -0.1963
    130  CA       -44.3800  -64.2870  -33.9060 C.3   284  VAL284      0.1727
    131  C        -45.6010  -64.7660  -34.6270 C.2   284  VAL284      0.2616
    132  O        -46.0460  -65.8790  -34.4880 O.2   284  VAL284     -0.2715
    133  CB       -44.7610  -63.5850  -32.6280 C.3   284  VAL284      0.0290
    134  CG1      -43.5400  -63.4170  -31.7790 C.3   284  VAL284      0.0023
    135  CG2      -45.3090  -62.2330  -32.9550 C.3   284  VAL284      0.0023
    136  N        -46.1280  -63.8910  -35.4430 N.am  285  GLN285     -0.1977
    137  CA       -47.3790  -64.1310  -36.0910 C.3   285  GLN285      0.1601
    138  C        -47.3930  -65.3660  -36.9710 C.2   285  GLN285      0.2287
    139  O        -48.4160  -65.9810  -37.1240 O.2   285  GLN285     -0.2864
    140  CB       -47.7690  -62.8920  -36.8500 C.3   285  GLN285      0.0394
    141  CG       -47.4410  -61.6470  -36.0500 C.3   285  GLN285      0.0908
    142  CD       -48.3310  -60.4730  -36.3910 C.2   285  GLN285      0.2608
    143  OE1      -49.0280  -60.4860  -37.4040 O.2   285  GLN285     -0.2717
    144  NE2      -48.3100  -59.4490  -35.5510 N.am  285  GLN285     -0.0878
    145  N        -38.8560  -61.7190  -24.2630 N.3   308  GLY308     -0.1210
    146  CA       -38.7230  -60.4130  -23.6510 C.3   308  GLY308      0.1956
    147  C        -39.7490  -59.4580  -24.2250 C.2   308  GLY308      0.2613
    148  O        -40.1540  -59.5940  -25.3790 O.2   308  GLY308     -0.2717
    149  N        -40.1760  -58.4950  -23.4160 N.am  309  SER309     -0.1938
    150  CA       -41.1490  -57.5020  -23.8530 C.3   309  SER309      0.2040
    151  C        -40.6010  -56.6410  -24.9830 C.2   309  SER309      0.2485
    152  O        -39.5280  -56.0520  -24.8560 O.2   309  SER309     -0.2729
    153  CB       -41.5600  -56.6090  -22.6850 C.3   309  SER309      0.2129
    154  OG       -42.3820  -55.5440  -23.1280 O.3   309  SER309     -0.2179
    155  N        -41.3400  -56.5730  -26.0990 N.am  310  PRO310     -0.2726
    156  CA       -40.9460  -55.7340  -27.2330 C.3   310  PRO310      0.1402
    157  C        -41.5510  -54.3350  -27.1550 C.2   310  PRO310      0.2269
    158  O        -41.4280  -53.5720  -28.1120 O.2   310  PRO310     -0.2865
    159  CB       -41.5360  -56.4850  -28.4240 C.3   310  PRO310      0.0296
    160  CG       -42.7850  -57.0970  -27.8710 C.3   310  PRO310      0.0237
    161  CD       -42.4980  -57.4260  -26.4220 C.3   310  PRO310      0.0939
    162  N        -44.8050  -53.7730  -30.4020 N.3   313  GLU313     -0.1245
    163  CA       -46.1940  -53.4180  -30.1360 C.3   313  GLU313      0.1567
    164  C        -46.6660  -53.9700  -28.7860 C.2   313  GLU313      0.2260
    165  O        -46.1430  -54.9690  -28.2850 O.2   313  GLU313     -0.2867
    166  CB       -47.0970  -53.8920  -31.2880 C.3   313  GLU313      0.0388
    167  CG       -48.5650  -53.4450  -31.2260 C.3   313  GLU313      0.1160
    168  CD       -48.7560  -51.9300  -31.2720 C.2   313  GLU313      0.3649
    169  OE1      -47.8230  -51.2050  -31.6840 O.co2 313  GLU313     -0.2457
    170  OE2      -49.8530  -51.4640  -30.8950 O.co2 313  GLU313     -0.2457
    171  N        -48.2720  -57.4660  -28.9370 N.3   316  LEU316     -0.1245
    172  CA       -47.3920  -58.5990  -29.2040 C.3   316  LEU316      0.1561
    173  C        -47.3040  -59.5530  -28.0180 C.2   316  LEU316      0.2260
    174  O        -47.0640  -60.7480  -28.1940 O.2   316  LEU316     -0.2867
    175  CB       -45.9970  -58.1220  -29.6060 C.3   316  LEU316      0.0270
    176  CG       -45.8960  -57.5030  -31.0000 C.3   316  LEU316      0.0019
    177  CD1      -44.4600  -57.1100  -31.3120 C.3   316  LEU316      0.0001
    178  CD2      -46.4320  -58.4680  -32.0450 C.3   316  LEU316      0.0001
@<TRIPOS>BOND
     1   120   118   am
     2   119   118    2
     3   118   117    1
     4   117   114    1
     5   128   126   ar
     6    93    92    2
     7   113   114    1
     8   125   126    1
     9   125   122    1
    10   114   115    1
    11   126   127   ar
    12    98    97    1
    13    97    96    1
    14   101   102    2
    15   101   100    1
    16   121   115   am
    17   121   122    1
    18   143   142    2
    19   115   116    2
    20    92    91    1
    21    92    99   am
    22   139   138    2
    23    96    95    1
    24    95    94    1
    25   138   137    1
    26   140   137    1
    27   140   141    1
    28   122   123    1
    29   100    99    1
    30   100   103    1
    31    84    83    2
    32    91    94    1
    33    91    90    1
    34   142   141    1
    35   142   144   am
    36   124   123    2
    37   104   103    1
    38   137   136    1
    39   123   129   am
    40   105   106    1
    41    83    90   am
    42    83    82    1
    43   136   131   am
    44   107   106    1
    45   107   108    2
    46   129   130    1
    47   131   132    2
    48   131   130    1
    49   106   109    1
    50    81    82    1
    51    81    76   am
    52    79    78    1
    53    82    85    1
    54    86    85    1
    55    86    87    1
    56   130   133    1
    57   109   110    1
    58    89    87   ar
    59    75    76    1
    60    75    78    1
    61    75    74    1
    62    76    77    2
    63    87    88   ar
    64    80    78    1
    65   110   111    2
    66   110   112   am
    67   135   133    1
    68   133   134    1
    69   178   176    1
    70   169   168   ar
    71    57    56    1
    72   177   176    1
    73   166   167    1
    74   166   163    1
    75    61    60    2
    76   168   167    1
    77   168   170   ar
    78   176   175    1
    79    15    14    1
    80    14    11    1
    81   162   163    1
    82    60    59    1
    83    60    62   am
    84    68    66    1
    85   163   164    1
    86    10    11    1
    87    56    53    1
    88    58    59    1
    89    58    54   am
    90    11    12    1
    91    63    62    1
    92    63    66    1
    93    63    64    1
    94    49    47   ar
    95    49    51   ar
    96   175   172    1
    97    52    53    1
    98    52    43   am
    99    47    46   ar
   100    41    42    1
   101    66    67    1
   102    42    43    1
   103    42    45    1
   104   172   171    1
   105   172   173    1
   106    53    54    1
   107    54    55    2
   108    64    65    2
   109    43    44    2
   110    51    50   ar
   111   164   165    2
   112    46    45    1
   113    46    48   ar
   114   159   160    1
   115   159   156    1
   116    12    13    2
   117   174   173    2
   118   158   157    2
   119    67    69    1
   120   160   161    1
   121    50    48   ar
   122    23    21   am
   123   156   157    1
   124   156   155    1
   125    22    21    2
   126    21    20    1
   127   161   155    1
   128   155   151   am
   129    70    71    1
   130    19    18    2
   131   148   147    2
   132    20    17    1
   133   151   152    2
   134   151   150    1
   135    16    17    1
   136    18    17    1
   137    18    24   am
   138    28    25    1
   139    28    29    1
   140    71    72    1
   141   145   146    1
   142   147   146    1
   143   147   149   am
   144    25    24    1
   145    25    26    1
   146   150   149    1
   147   150   153    1
   148    72    73    2
   149   154   153    1
   150    26    30   am
   151    26    27    2
   152    30    31    1
   153    39    37   ar
   154    39    40   ar
   155    37    35   ar
   156    40    38   ar
   157    35    34    1
   158    35    36   ar
   159    38    36   ar
   160     8     7   ar
   161    33    32    2
   162    34    31    1
   163    31    32    1
   164     4     3    2
   165     7     9   ar
   166     7     6    1
   167     1     2    1
   168     3     2    1
   169     5     6    1
   170     5     2    1
