@<TRIPOS>MOLECULE
tmp/4onmB00.pdb
 76 74 0 0 0
SMALL
GASTEIGER

@<TRIPOS>ATOM
      1  N         41.6700   28.3490   25.2430 N.3    77  PRO77      -0.2102
      2  CA        42.0100   27.3550   24.2050 C.3    77  PRO77       0.1504
      3  C         41.5090   25.9430   24.5240 C.2    77  PRO77       0.2576
      4  O         41.6260   25.0900   23.6530 O.2    77  PRO77      -0.2718
      5  CB        43.5490   27.4030   24.1810 C.3    77  PRO77       0.0282
      6  CG        43.9050   27.8380   25.6310 C.3    77  PRO77       0.0208
      7  CD        42.8470   28.8450   26.0030 C.3    77  PRO77       0.0893
      8  N         40.9780   25.7080   25.7190 N.am   78  ASN78      -0.1961
      9  CA        40.4810   24.3820   26.0900 C.3    78  ASN78       0.1819
     10  C         38.9940   24.3790   26.3600 C.2    78  ASN78       0.2621
     11  O         38.4870   23.3850   26.8520 O.2    78  ASN78      -0.2715
     12  CB        41.2480   23.8550   27.3000 C.3    78  ASN78       0.1195
     13  CG        42.7340   23.9720   27.1260 C.2    78  ASN78       0.2630
     14  OD1       43.3940   24.7910   27.7680 O.2    78  ASN78      -0.2716
     15  ND2       43.2980   23.1810   26.1910 N.am   78  ASN78      -0.0877
     16  N         38.2880   25.4670   26.0580 N.am   79  VAL79      -0.1963
     17  CA        36.8200   25.4790   26.1930 C.3    79  VAL79       0.1727
     18  C         36.2890   25.9720   24.8520 C.2    79  VAL79       0.2616
     19  O         36.6210   27.0670   24.4140 O.2    79  VAL79      -0.2715
     20  CB        36.3110   26.4190   27.3140 C.3    79  VAL79       0.0290
     21  CG1       34.7890   26.3640   27.3860 C.3    79  VAL79       0.0023
     22  CG2       36.9850   26.0760   28.6530 C.3    79  VAL79       0.0023
     23  N         35.4530   25.1770   24.1990 N.am   80  ASP80      -0.1971
     24  CA        35.0710   25.5360   22.8200 C.3    80  ASP80       0.1709
     25  C         33.8420   26.4830   22.7590 C.2    80  ASP80       0.2293
     26  O         33.3250   26.9200   23.8030 O.2    80  ASP80      -0.2864
     27  CB        34.9400   24.3170   21.9050 C.3    80  ASP80       0.1436
     28  CG        33.7030   23.4850   22.1810 C.2    80  ASP80       0.3671
     29  OD1       32.7650   23.9370   22.8650 O.co2  80  ASP80      -0.2456
     30  OD2       33.6670   22.3400   21.6700 O.co2  80  ASP80      -0.2456
     31  N         32.1700   23.0990   25.6170 N.3    84  ARG84      -0.1231
     32  CA        32.7200   21.7750   25.8520 C.3    84  ARG84       0.1694
     33  C         34.1920   21.8280   26.2450 C.2    84  ARG84       0.2592
     34  O         34.9300   22.7120   25.8230 O.2    84  ARG84      -0.2718
     35  CB        32.5530   20.8850   24.6210 C.3    84  ARG84       0.0321
     36  CG        31.0880   20.7360   24.1840 C.3    84  ARG84       0.0489
     37  CD        30.9780   19.8750   22.9220 C.3    84  ARG84       0.2205
     38  NE        31.5110   20.6150   21.7950 N.pl3  84  ARG84      -0.0865
     39  CZ        31.3530   20.2680   20.5310 C.cat  84  ARG84       0.5346
     40  NH1       30.6790   19.1710   20.2150 N.pl3  84  ARG84       0.1354
     41  NH2       31.8630   21.0280   19.5770 N.pl3  84  ARG84       0.1354
     42  N         34.6010   20.8470   27.0490 N.am   85  ILE85      -0.1966
     43  CA        36.0110   20.6720   27.4090 C.3    85  ILE85       0.1727
     44  C         36.4240   19.2220   27.2250 C.2    85  ILE85       0.2616
     45  O         35.5580   18.3630   27.1190 O.2    85  ILE85      -0.2715
     46  CB        36.2870   21.1780   28.8270 C.3    85  ILE85       0.0290
     47  CG1       35.4780   20.3920   29.8830 C.3    85  ILE85       0.0022
     48  CG2       35.9710   22.6540   28.8900 C.3    85  ILE85       0.0023
     49  CD1       35.9180   20.6610   31.3280 C.3    85  ILE85       0.0001
     50  N         37.7400   18.9580   27.1150 N.am   86  CYS86      -0.1968
     51  CA        38.2950   17.6180   26.9990 C.3    86  CYS86       0.1712
     52  C         39.2560   17.4570   28.1670 C.2    86  CYS86       0.2296
     53  O         40.4380   17.7290   28.0400 O.2    86  CYS86      -0.2864
     54  CB        39.0690   17.4930   25.6900 C.3    86  CYS86       0.0983
     55  SG        38.0120   17.3540   24.2410 S.3    86  CYS86      -0.0798
     56  N         44.1050   18.5790   21.6590 N.3   120  LEU120     -0.1231
     57  CA        42.7110   18.8080   21.3530 C.3   120  LEU120      0.1693
     58  C         42.2630   20.2310   21.6020 C.2   120  LEU120      0.2592
     59  O         41.0610   20.4930   21.6580 O.2   120  LEU120     -0.2718
     60  CB        41.8520   17.8620   22.1660 C.3   120  LEU120      0.0284
     61  CG        42.2840   16.4220   21.8680 C.3   120  LEU120      0.0019
     62  CD1       41.5300   15.4760   22.7970 C.3   120  LEU120      0.0001
     63  CD2       42.0850   16.0790   20.3840 C.3   120  LEU120      0.0001
     64  N         43.2170   21.1430   21.7740 N.am  121  ALA121     -0.1966
     65  CA        42.8510   22.5460   21.9340 C.3   121  ALA121      0.1728
     66  C         42.0660   23.0500   20.7430 C.2   121  ALA121      0.2616
     67  O         42.2290   22.5650   19.5990 O.2   121  ALA121     -0.2715
     68  CB        44.1150   23.4330   22.1730 C.3   121  ALA121      0.0334
     69  N         41.2030   24.0180   21.0060 N.am  122  ASN122     -0.1972
     70  CA        40.3560   24.5630   19.9450 C.3   122  ASN122      0.1688
     71  C         41.0930   25.6270   19.1070 C.2   122  ASN122      0.2292
     72  O         42.2890   25.8540   19.3090 O.2   122  ASN122     -0.2864
     73  CB        39.0250   25.0730   20.5210 C.3   122  ASN122      0.1181
     74  CG        39.2190   26.2270   21.4630 C.2   122  ASN122      0.2629
     75  OD1       39.7630   27.2680   21.0930 O.2   122  ASN122     -0.2716
     76  ND2       38.8100   26.0410   22.6950 N.am  122  ASN122     -0.0877
@<TRIPOS>BOND
     1    71    72    2
     2    71    70    1
     3    41    39    1
     4    67    66    2
     5    70    73    1
     6    70    69    1
     7    40    39    1
     8    63    61    1
     9    73    74    1
    10    39    38    2
    11    66    69   am
    12    66    65    1
    13    75    74    2
    14    57    58    1
    15    57    56    1
    16    57    60    1
    17    74    76   am
    18    58    59    2
    19    58    64   am
    20    30    28   ar
    21    64    65    1
    22    38    37    1
    23    61    60    1
    24    61    62    1
    25    27    28    1
    26    27    24    1
    27    65    68    1
    28    28    29   ar
    29    25    24    1
    30    25    26    2
    31    24    23    1
    32    37    36    1
    33     4     3    2
    34     5     2    1
    35     5     6    1
    36    36    35    1
    37    23    18   am
    38     2     3    1
    39     2     1    1
    40    55    54    1
    41    19    18    2
    42     3     8   am
    43    35    32    1
    44    18    17    1
    45     1     7    1
    46    31    32    1
    47     6     7    1
    48    54    51    1
    49     8     9    1
    50    34    33    2
    51    32    33    1
    52    16    17    1
    53    16    10   am
    54     9    10    1
    55     9    12    1
    56    15    13   am
    57    17    20    1
    58    33    42   am
    59    10    11    2
    60    51    50    1
    61    51    52    1
    62    42    43    1
    63    50    44   am
    64    45    44    2
    65    13    12    1
    66    13    14    2
    67    44    43    1
    68    20    21    1
    69    20    22    1
    70    43    46    1
    71    53    52    2
    72    46    48    1
    73    46    47    1
    74    47    49    1
