@<TRIPOS>MOLECULE
tmp/4ontC00.pdb
 124 120 0 0 0
SMALL
GASTEIGER

@<TRIPOS>ATOM
      1  N         30.1960  -30.6580   35.3890 N.3    64  ILE64      -0.1245
      2  CA        29.0190  -31.4820   35.6450 C.3    64  ILE64       0.1561
      3  C         28.6920  -32.2590   34.3900 C.2    64  ILE64       0.2260
      4  O         28.3890  -31.6470   33.3760 O.2    64  ILE64      -0.2867
      5  CB        27.8100  -30.6180   35.9950 C.3    64  ILE64       0.0252
      6  CG1       28.1400  -29.6760   37.1580 C.3    64  ILE64       0.0019
      7  CG2       26.6180  -31.4790   36.3150 C.3    64  ILE64       0.0019
      8  CD1       28.6020  -30.3650   38.4200 C.3    64  ILE64       0.0001
      9  N         19.5740  -32.9240   37.8010 N.3    76  LEU76      -0.1231
     10  CA        19.6460  -31.7890   38.7370 C.3    76  LEU76       0.1693
     11  C         18.3330  -31.5430   39.5000 C.2    76  LEU76       0.2592
     12  O         17.2630  -31.5190   38.8930 O.2    76  LEU76      -0.2718
     13  CB        19.9840  -30.5400   37.9610 C.3    76  LEU76       0.0284
     14  CG        21.3770  -30.6310   37.2770 C.3    76  LEU76       0.0019
     15  CD1       21.6740  -29.3640   36.4950 C.3    76  LEU76       0.0001
     16  CD2       22.4820  -30.9110   38.2870 C.3    76  LEU76       0.0001
     17  N         18.4140  -31.2960   40.7990 N.am   77  ARG77      -0.1966
     18  CA        17.2690  -30.7090   41.5130 C.3    77  ARG77       0.1729
     19  C         16.7910  -29.3800   40.9390 C.2    77  ARG77       0.2616
     20  O         15.5720  -29.1550   40.7810 O.2    77  ARG77      -0.2715
     21  CB        17.5460  -30.5380   43.0110 C.3    77  ARG77       0.0348
     22  CG        16.3170  -30.0740   43.7930 C.3    77  ARG77       0.0492
     23  CD        16.4320  -30.3090   45.2940 C.3    77  ARG77       0.2205
     24  NE        16.6310  -31.7210   45.5910 N.pl3  77  ARG77      -0.0865
     25  CZ        15.6490  -32.5960   45.8120 C.cat  77  ARG77       0.5346
     26  NH1       14.3780  -32.1990   45.8040 N.pl3  77  ARG77       0.1354
     27  NH2       15.9400  -33.8770   46.0440 N.pl3  77  ARG77       0.1354
     28  N         17.7300  -28.4930   40.6300 N.am   78  TRP78      -0.1974
     29  CA        17.3700  -27.1560   40.1640 C.3    78  TRP78       0.1640
     30  C         17.8310  -27.0400   38.7400 C.2    78  TRP78       0.2290
     31  O         19.0200  -26.9360   38.4770 O.2    78  TRP78      -0.2864
     32  CB        18.0520  -26.0930   41.0400 C.3    78  TRP78       0.0576
     33  CG        17.7920  -26.3160   42.4860 C.ar   78  TRP78       0.0006
     34  CD1       18.6420  -26.8980   43.4150 C.ar   78  TRP78       0.0946
     35  CD2       16.5790  -26.0320   43.1720 C.ar   78  TRP78       0.0152
     36  NE1       18.0190  -26.9650   44.6510 N.ar   78  TRP78      -0.2442
     37  CE2       16.7550  -26.4340   44.5250 C.ar   78  TRP78       0.0810
     38  CE3       15.3630  -25.4240   42.7860 C.ar   78  TRP78       0.0012
     39  CZ2       15.7650  -26.2620   45.4790 C.ar   78  TRP78       0.0191
     40  CZ3       14.3780  -25.2690   43.7210 C.ar   78  TRP78       0.0001
     41  CH2       14.5820  -25.6790   45.0670 C.ar   78  TRP78       0.0015
     42  N         17.1150  -24.8240   36.1960 N.3    80  ALA80      -0.1231
     43  CA        17.2000  -23.5670   35.4330 C.3    80  ALA80       0.1694
     44  C         18.6120  -22.9870   35.6030 C.2    80  ALA80       0.2591
     45  O         19.2760  -23.2660   36.6030 O.2    80  ALA80      -0.2718
     46  CB        16.1530  -22.5650   35.9280 C.3    80  ALA80       0.0304
     47  N         19.0640  -22.1810   34.6470 N.am   81  LYS81      -0.1980
     48  CA        20.3330  -21.4690   34.8130 C.3    81  LYS81       0.1596
     49  C         21.4280  -22.5100   35.0630 C.2    81  LYS81       0.2287
     50  O         22.0430  -22.5530   36.1540 O.2    81  LYS81      -0.2864
     51  CB        20.2590  -20.5020   36.0010 C.3    81  LYS81       0.0298
     52  CG        19.2030  -19.4270   35.8730 C.3    81  LYS81       0.0038
     53  CD        19.4530  -18.5700   34.6480 C.3    81  LYS81       0.0206
     54  CE        18.6560  -17.2790   34.7150 C.3    81  LYS81       0.1093
     55  NZ        17.2280  -17.5790   35.0090 N.3    81  LYS81      -0.1314
     56  N         24.9360  -24.5310   34.7010 N.3    83  LYS83      -0.1245
     57  CA        26.3210  -24.0840   34.6550 C.3    83  LYS83       0.1561
     58  C         27.1590  -25.2870   34.3420 C.2    83  LYS83       0.2260
     59  O         26.8290  -26.4160   34.7440 O.2    83  LYS83      -0.2867
     60  CB        26.7460  -23.4870   35.9930 C.3    83  LYS83       0.0271
     61  CG        26.0520  -22.1780   36.3030 C.3    83  LYS83       0.0035
     62  CD        26.3840  -21.7050   37.7080 C.3    83  LYS83       0.0206
     63  CE        25.2910  -20.7900   38.2620 C.3    83  LYS83       0.1093
     64  NZ        24.8210  -19.7540   37.2900 N.3    83  LYS83      -0.1314
     65  N         30.3720  -25.6430   35.1680 N.3    85  TYR85      -0.1227
     66  CA        31.3570  -25.8960   36.2100 C.3    85  TYR85       0.1736
     67  C         30.7950  -25.6850   37.6110 C.2    85  TYR85       0.2596
     68  O         29.9740  -24.8140   37.8790 O.2    85  TYR85      -0.2718
     69  CB        32.5650  -24.9680   36.0480 C.3    85  TYR85       0.0548
     70  CG        33.2810  -25.0970   34.7260 C.ar   85  TYR85      -0.0200
     71  CD1       34.1730  -26.1350   34.5000 C.ar   85  TYR85      -0.0009
     72  CD2       33.1040  -24.1470   33.7210 C.ar   85  TYR85      -0.0009
     73  CE1       34.8220  -26.2700   33.2960 C.ar   85  TYR85       0.0417
     74  CE2       33.7660  -24.2680   32.5060 C.ar   85  TYR85       0.0417
     75  CZ        34.6150  -25.3440   32.3050 C.ar   85  TYR85       0.1957
     76  OH        35.2930  -25.4860   31.1100 O.3    85  TYR85      -0.2866
     77  N         31.3280  -26.4560   38.5140 N.am   86  SER86      -0.1952
     78  CA        31.1390  -26.2290   39.8940 C.3    86  SER86       0.1924
     79  C         32.5370  -25.9640   40.4700 C.2    86  SER86       0.2314
     80  O         33.5080  -26.6220   40.0950 O.2    86  SER86      -0.2863
     81  CB        30.5650  -27.5100   40.4970 C.3    86  SER86       0.2116
     82  OG        30.4100  -27.4100   41.8980 O.3    86  SER86      -0.2180
     83  N         32.0590  -26.0470   46.3390 N.3    90  GLU90      -0.1231
     84  CA        30.6530  -25.7890   46.0170 C.3    90  GLU90       0.1699
     85  C         29.8310  -27.1000   45.8230 C.2    90  GLU90       0.2593
     86  O         30.3450  -28.1530   45.4260 O.2    90  GLU90      -0.2718
     87  CB        30.5450  -24.8190   44.8310 C.3    90  GLU90       0.0402
     88  CG        29.3310  -25.0240   43.9380 C.3    90  GLU90       0.1161
     89  CD        29.2980  -24.1080   42.7080 C.2    90  GLU90       0.3649
     90  OE1       30.2840  -23.4080   42.3800 O.co2  90  GLU90      -0.2457
     91  OE2       28.2590  -24.1020   42.0240 O.co2  90  GLU90      -0.2457
     92  N         28.5650  -27.0800   46.1870 N.am   91  SER91      -0.1938
     93  CA        27.8680  -28.3350   46.2120 C.3    91  SER91       0.2055
     94  C         26.7810  -28.3970   45.1450 C.2    91  SER91       0.2643
     95  O         26.3120  -27.3610   44.6820 O.2    91  SER91      -0.2714
     96  CB        27.4080  -28.6850   47.6350 C.3    91  SER91       0.2130
     97  OG        26.1530  -28.1280   47.9190 O.3    91  SER91      -0.2179
     98  N         26.4930  -29.6060   44.6540 N.am   92  VAL92      -0.1963
     99  CA        25.5020  -29.7950   43.5900 C.3    92  VAL92       0.1727
    100  C         24.3930  -30.7080   44.1170 C.2    92  VAL92       0.2616
    101  O         24.6700  -31.6900   44.8230 O.2    92  VAL92      -0.2715
    102  CB        26.1260  -30.4200   42.3000 C.3    92  VAL92       0.0290
    103  CG1       25.0530  -30.6590   41.2170 C.3    92  VAL92       0.0023
    104  CG2       27.2460  -29.5330   41.7620 C.3    92  VAL92       0.0023
    105  N         23.1390  -30.3790   43.8210 N.am   93  GLU93      -0.1977
    106  CA        22.0330  -31.2080   44.3160 C.3    93  GLU93       0.1602
    107  C         21.3890  -31.9390   43.1830 C.2    93  GLU93       0.2287
    108  O         20.9210  -31.3290   42.2040 O.2    93  GLU93      -0.2864
    109  CB        20.9500  -30.3780   44.9560 C.3    93  GLU93       0.0415
    110  CG        21.4160  -29.4370   46.0310 C.3    93  GLU93       0.1163
    111  CD        20.2300  -28.9520   46.8440 C.2    93  GLU93       0.3649
    112  OE1       19.7110  -27.8380   46.5550 O.co2  93  GLU93      -0.2457
    113  OE2       19.7720  -29.7470   47.7010 O.co2  93  GLU93      -0.2457
    114  N         22.9950  -34.7300   47.5640 N.3   110  ARG110     -0.1245
    115  CA        23.6360  -33.4440   47.6590 C.3   110  ARG110      0.1563
    116  C         25.1160  -33.7140   47.7730 C.2   110  ARG110      0.2260
    117  O         25.5540  -34.4190   48.6850 O.2   110  ARG110     -0.2867
    118  CB        23.1340  -32.6390   48.8630 C.3   110  ARG110      0.0307
    119  CG        23.8830  -31.3270   49.0150 C.3   110  ARG110      0.0489
    120  CD        23.0790  -30.3090   49.8210 C.3   110  ARG110      0.2205
    121  NE        23.6890  -28.9780   49.7790 N.pl3 110  ARG110     -0.0865
    122  CZ        23.1960  -27.9240   49.1200 C.cat 110  ARG110      0.5346
    123  NH1       23.8350  -26.7650   49.1530 N.pl3 110  ARG110      0.1354
    124  NH2       22.0710  -28.0120   48.4290 N.pl3 110  ARG110      0.1354
@<TRIPOS>BOND
     1    76    75    1
     2    75    74   ar
     3    75    73   ar
     4    74    72   ar
     5    73    71   ar
     6     4     3    2
     7    72    70   ar
     8    58    57    1
     9    58    59    2
    10     3     2    1
    11    71    70   ar
    12    47    48    1
    13    47    44   am
    14    53    54    1
    15    53    52    1
    16    57    56    1
    17    57    60    1
    18    54    55    1
    19    70    69    1
    20    48    49    1
    21    48    51    1
    22    49    50    2
    23    65    66    1
    24     1     2    1
    25    43    44    1
    26    43    46    1
    27    43    42    1
    28    44    45    2
    29     2     5    1
    30    52    51    1
    31    60    61    1
    32     5     7    1
    33     5     6    1
    34    69    66    1
    35    66    67    1
    36    61    62    1
    37    15    14    1
    38     6     8    1
    39    14    13    1
    40    14    16    1
    41    64    63    1
    42    67    68    2
    43    67    77   am
    44    62    63    1
    45     9    10    1
    46    13    10    1
    47    31    30    2
    48    77    78    1
    49    10    11    1
    50    30    29    1
    51    12    11    2
    52    11    17   am
    53    78    79    1
    54    78    81    1
    55    80    79    2
    56    29    28    1
    57    29    32    1
    58    81    82    1
    59    28    19   am
    60    20    19    2
    61    17    18    1
    62    19    18    1
    63    32    33    1
    64   103   102    1
    65    18    21    1
    66   104   102    1
    67    91    89   ar
    68   108   107    2
    69   102    99    1
    70    90    89   ar
    71    33    35   ar
    72    33    34   ar
    73    89    88    1
    74    38    35   ar
    75    38    40   ar
    76    21    22    1
    77    35    37   ar
    78   107   106    1
    79    34    36   ar
    80    99   100    1
    81    99    98    1
    82    40    41   ar
    83    22    23    1
    84   105   100   am
    85   105   106    1
    86    88    87    1
    87   100   101    2
    88   106   109    1
    89    37    36   ar
    90    37    39   ar
    91    98    94   am
    92    95    94    2
    93    87    84    1
    94   109   110    1
    95    41    39   ar
    96    94    93    1
    97    23    24    1
    98    86    85    2
    99    24    25    2
   100    26    25    1
   101    25    27    1
   102    85    84    1
   103    85    92   am
   104    84    83    1
   105   110   111    1
   106    92    93    1
   107    93    96    1
   108   112   111   ar
   109   111   113   ar
   110   114   115    1
   111    96    97    1
   112   115   116    1
   113   115   118    1
   114   116   117    2
   115   124   122    1
   116   118   119    1
   117   119   120    1
   118   122   123    1
   119   122   121    2
   120   121   120    1
