@<TRIPOS>MOLECULE
tmp/4onvD00.pdb
 137 133 0 0 0
SMALL
GASTEIGER

@<TRIPOS>ATOM
      1  N        176.3020   17.6330   22.9380 N.3     9  PRO9       -0.2116
      2  CA       176.8710   18.9000   23.3120 C.3     9  PRO9        0.1372
      3  C        177.0820   18.8250   24.7960 C.2     9  PRO9        0.2244
      4  O        176.1540   19.0070   25.5700 O.2     9  PRO9       -0.2868
      5  CB       175.7700   19.9090   22.9520 C.3     9  PRO9        0.0268
      6  CG       174.5040   19.1480   23.1590 C.3     9  PRO9        0.0207
      7  CD       174.8310   17.6730   23.0440 C.3     9  PRO9        0.0892
      8  N        180.9830   17.0690   21.6930 N.3    41  PHE41      -0.1241
      9  CA       180.9600   18.4790   21.2890 C.3    41  PHE41       0.1605
     10  C        181.0450   19.4170   22.5080 C.2    41  PHE41       0.2264
     11  O        180.0770   19.5990   23.2490 O.2    41  PHE41      -0.2867
     12  CB       179.7110   18.7540   20.4230 C.3    41  PHE41       0.0534
     13  CG       179.5030   20.2010   20.0850 C.ar   41  PHE41      -0.0203
     14  CD1      180.5850   21.0380   19.8260 C.ar   41  PHE41      -0.0042
     15  CD2      178.2180   20.7440   20.0550 C.ar   41  PHE41      -0.0042
     16  CE1      180.3880   22.3590   19.5390 C.ar   41  PHE41      -0.0003
     17  CE2      178.0200   22.0760   19.7570 C.ar   41  PHE41      -0.0003
     18  CZ       179.1090   22.8730   19.4800 C.ar   41  PHE41      -0.0000
     19  N        179.4760   24.0510   23.1760 N.3    44  GLY44      -0.1210
     20  CA       178.2140   24.3340   22.4950 C.3    44  GLY44       0.1956
     21  C        177.3840   25.3080   23.3150 C.2    44  GLY44       0.2613
     22  O        177.8910   25.9380   24.2440 O.2    44  GLY44      -0.2717
     23  N        176.1200   25.4660   22.9560 N.am   45  SER45      -0.1938
     24  CA       175.2270   26.3820   23.6680 C.3    45  SER45       0.2055
     25  C        175.0620   25.8990   25.0820 C.2    45  SER45       0.2643
     26  O        175.2080   26.6780   26.0590 O.2    45  SER45      -0.2714
     27  CB       173.8690   26.4630   22.9820 C.3    45  SER45       0.2130
     28  OG       173.9910   27.0350   21.6790 O.3    45  SER45      -0.2179
     29  N        174.7930   24.6000   25.1800 N.am   46  GLY46      -0.1954
     30  CA       174.6780   23.9130   26.4670 C.3    46  GLY46       0.1869
     31  C        175.9750   23.8860   27.2690 C.2    46  GLY46       0.2309
     32  O        175.9440   23.8480   28.4900 O.2    46  GLY46      -0.2863
     33  N        176.6250   25.8480   12.5090 N.3   134  TYR134     -0.1241
     34  CA       175.6860   25.7550   13.6010 C.3   134  TYR134      0.1605
     35  C        174.5610   26.7760   13.3720 C.2   134  TYR134      0.2264
     36  O        174.7550   28.0150   13.4810 O.2   134  TYR134     -0.2867
     37  CB       176.4330   25.9950   14.9140 C.3   134  TYR134      0.0534
     38  CG       175.6730   25.8150   16.2200 C.ar  134  TYR134     -0.0201
     39  CD1      176.3400   25.9410   17.4440 C.ar  134  TYR134     -0.0009
     40  CD2      174.3230   25.5270   16.2570 C.ar  134  TYR134     -0.0009
     41  CE1      175.6870   25.7830   18.6560 C.ar  134  TYR134      0.0417
     42  CE2      173.6660   25.3640   17.4730 C.ar  134  TYR134      0.0417
     43  CZ       174.3430   25.4940   18.6690 C.ar  134  TYR134      0.1957
     44  OH       173.6830   25.3290   19.8740 O.3   134  TYR134     -0.2866
     45  N        170.9120   28.1350   14.6620 N.3   136  PHE136     -0.1241
     46  CA       170.0660   28.1980   15.8350 C.3   136  PHE136      0.1605
     47  C        169.3030   29.5350   15.7950 C.2   136  PHE136      0.2264
     48  O        169.5990   30.4590   16.5780 O.2   136  PHE136     -0.2867
     49  CB       170.9380   28.1240   17.1080 C.3   136  PHE136      0.0534
     50  CG       170.1860   27.7490   18.3710 C.ar  136  PHE136     -0.0203
     51  CD1      168.7970   27.8120   18.4470 C.ar  136  PHE136     -0.0042
     52  CD2      170.8830   27.3440   19.5080 C.ar  136  PHE136     -0.0042
     53  CE1      168.1320   27.4620   19.6240 C.ar  136  PHE136     -0.0003
     54  CE2      170.2230   26.9850   20.6790 C.ar  136  PHE136     -0.0003
     55  CZ       168.8460   27.0400   20.7360 C.ar  136  PHE136     -0.0000
     56  N        174.7930   21.2010   12.4060 N.3   163  LYS163     -0.1245
     57  CA       173.8650   20.9950   13.4930 C.3   163  LYS163      0.1561
     58  C        172.7320   22.0040   13.2860 C.2   163  LYS163      0.2260
     59  O        172.9040   23.2270   13.4230 O.2   163  LYS163     -0.2867
     60  CB       174.5780   21.2640   14.8250 C.3   163  LYS163      0.0271
     61  CG       173.7100   21.1530   16.0690 C.3   163  LYS163      0.0035
     62  CD       174.2590   21.9130   17.2740 C.3   163  LYS163      0.0206
     63  CE       173.3510   21.6660   18.4680 C.3   163  LYS163      0.1093
     64  NZ       173.7880   22.2280   19.7780 N.3   163  LYS163     -0.1314
     65  N        169.4750   23.5310   14.5670 N.3   165  THR165     -0.1218
     66  CA       168.7530   23.6610   15.8270 C.3   165  THR165      0.1862
     67  C        167.4820   24.4650   15.6240 C.2   165  THR165      0.2287
     68  O        167.4640   25.6750   15.7510 O.2   165  THR165     -0.2866
     69  CB       169.6560   24.2830   16.8970 C.3   165  THR165      0.1770
     70  OG1      170.8310   23.4720   17.0530 O.3   165  THR165     -0.2211
     71  CG2      168.9260   24.4050   18.2360 C.3   165  THR165      0.0375
     72  N        169.4580   19.5670   16.1990 N.3   191  GLY191     -0.1210
     73  CA       169.8780   20.1360   17.4740 C.3   191  GLY191      0.1956
     74  C        168.9160   19.8070   18.5970 C.2   191  GLY191      0.2612
     75  O        169.1830   20.0990   19.7530 O.2   191  GLY191     -0.2717
     76  N        167.7970   19.1680   18.2650 N.am  192  TYR192     -0.1962
     77  CA       166.7520   18.8520   19.2570 C.3   192  TYR192      0.1771
     78  C        166.4160   17.3960   19.3170 C.2   192  TYR192      0.2619
     79  O        166.4320   16.7030   18.3090 O.2   192  TYR192     -0.2715
     80  CB       165.4890   19.6210   18.9380 C.3   192  TYR192      0.0574
     81  CG       165.5160   21.0900   19.2880 C.ar  192  TYR192     -0.0198
     82  CD1      165.9010   21.5370   20.5500 C.ar  192  TYR192     -0.0009
     83  CD2      165.1150   22.0280   18.3700 C.ar  192  TYR192     -0.0009
     84  CE1      165.9070   22.8980   20.8670 C.ar  192  TYR192      0.0417
     85  CE2      165.1020   23.3950   18.6810 C.ar  192  TYR192      0.0417
     86  CZ       165.4980   23.8190   19.9290 C.ar  192  TYR192      0.1957
     87  OH       165.4720   25.1480   20.1950 O.3   192  TYR192     -0.2866
     88  N        166.1170   16.9260   20.5240 N.am  193  ASP193     -0.1971
     89  CA       166.0100   15.4520   20.8070 C.3   193  ASP193      0.1709
     90  C        164.8420   14.8210   20.0570 C.2   193  ASP193      0.2293
     91  O        164.9230   13.6750   19.6170 O.2   193  ASP193     -0.2864
     92  CB       165.7900   15.1600   22.3000 C.3   193  ASP193      0.1436
     93  CG       166.8760   15.7210   23.2040 C.2   193  ASP193      0.3671
     94  OD1      168.0200   15.2410   23.1350 O.co2 193  ASP193     -0.2456
     95  OD2      166.5770   16.6760   23.9720 O.co2 193  ASP193     -0.2456
     96  N        172.9600   16.1660   17.5890 N.3   208  ILE208     -0.1231
     97  CA       173.6420   16.8070   18.7250 C.3   208  ILE208      0.1692
     98  C        172.5520   17.4370   19.5900 C.2   208  ILE208      0.2593
     99  O        172.0020   18.4640   19.2420 O.2   208  ILE208     -0.2718
    100  CB       174.5670   17.9380   18.2790 C.3   208  ILE208      0.0266
    101  CG1      175.6920   17.3990   17.3930 C.3   208  ILE208      0.0019
    102  CG2      175.1400   18.6980   19.4850 C.3   208  ILE208      0.0020
    103  CD1      176.4850   18.5160   16.7280 C.3   208  ILE208      0.0001
    104  N        172.2160   16.8080   20.7030 N.am  209  SER209     -0.1938
    105  CA       171.1340   17.3160   21.5350 C.3   209  SER209      0.2055
    106  C        171.3790   17.0910   23.0160 C.2   209  SER209      0.2642
    107  O        172.0430   16.1090   23.4130 O.2   209  SER209     -0.2714
    108  CB       169.7960   16.7090   21.1120 C.3   209  SER209      0.2130
    109  OG       169.8240   15.2900   21.1360 O.3   209  SER209     -0.2179
    110  N        170.8070   17.9880   23.8260 N.am  210  ALA210     -0.1977
    111  CA       171.0560   17.9810   25.2710 C.3   210  ALA210      0.1597
    112  C        170.8480   16.6220   25.9950 C.2   210  ALA210      0.2287
    113  O        171.6040   16.2810   26.8990 O.2   210  ALA210     -0.2864
    114  CB       170.2370   19.0670   25.9150 C.3   210  ALA210      0.0319
    115  N        163.1870   21.4490   29.2360 N.3   248  TYR248     -0.1241
    116  CA       163.9030   22.6300   28.8130 C.3   248  TYR248      0.1605
    117  C        163.0270   23.8550   28.9940 C.2   248  TYR248      0.2264
    118  O        163.5280   24.9760   28.9260 O.2   248  TYR248     -0.2867
    119  CB       164.4040   22.5180   27.3540 C.3   248  TYR248      0.0534
    120  CG       165.1680   21.2450   27.0700 C.ar  248  TYR248     -0.0201
    121  CD1      165.9130   20.6220   28.0730 C.ar  248  TYR248     -0.0009
    122  CD2      165.1250   20.6410   25.8210 C.ar  248  TYR248     -0.0009
    123  CE1      166.5810   19.4290   27.8440 C.ar  248  TYR248      0.0417
    124  CE2      165.8050   19.4490   25.5690 C.ar  248  TYR248      0.0417
    125  CZ       166.5330   18.8390   26.5820 C.ar  248  TYR248      0.1957
    126  OH       167.2210   17.6510   26.3840 O.3   248  TYR248     -0.2866
    127  N        168.3480   26.9850   29.9150 N.3   254  PHE254     -0.1241
    128  CA       168.0940   25.6460   30.5080 C.3   254  PHE254      0.1605
    129  C        169.3610   24.7930   30.7090 C.2   254  PHE254      0.2264
    130  O        169.2960   23.5850   30.9440 O.2   254  PHE254     -0.2867
    131  CB       167.0550   24.8620   29.7050 C.3   254  PHE254      0.0534
    132  CG       167.3620   24.7420   28.2370 C.ar  254  PHE254     -0.0203
    133  CD1      166.6820   25.5340   27.3070 C.ar  254  PHE254     -0.0042
    134  CD2      168.2920   23.8180   27.7860 C.ar  254  PHE254     -0.0042
    135  CE1      166.9210   25.4180   25.9480 C.ar  254  PHE254     -0.0003
    136  CE2      168.5530   23.7010   26.4310 C.ar  254  PHE254     -0.0003
    137  CZ       167.8600   24.4980   25.5070 C.ar  254  PHE254     -0.0000
@<TRIPOS>BOND
     1    56    57    1
     2    33    34    1
     3    58    59    2
     4    58    57    1
     5    35    36    2
     6    35    34    1
     7    57    60    1
     8    34    37    1
     9    65    66    1
    10    45    46    1
    11    60    61    1
    12    37    38    1
    13    67    68    2
    14    67    66    1
    15    47    46    1
    16    47    48    2
    17    66    69    1
    18    46    49    1
    19    61    62    1
    20    72    73    1
    21    38    40   ar
    22    38    39   ar
    23    40    42   ar
    24   103   101    1
    25    69    70    1
    26    69    71    1
    27    49    50    1
    28    62    63    1
    29   101   100    1
    30    39    41   ar
    31    42    43   ar
    32    73    74    1
    33    96    97    1
    34    76    74   am
    35    76    77    1
    36   100    97    1
    37   100   102    1
    38    79    78    2
    39    83    85   ar
    40    83    81   ar
    41    50    51   ar
    42    50    52   ar
    43    51    53   ar
    44    63    64    1
    45    74    75    2
    46    41    43   ar
    47    43    44    1
    48    85    86   ar
    49    97    98    1
    50    80    77    1
    51    80    81    1
    52    99    98    2
    53    77    78    1
    54    81    82   ar
    55    78    88   am
    56    18    16   ar
    57    18    17   ar
    58    52    54   ar
    59    16    14   ar
    60    98   104   am
    61    91    90    2
    62    53    55   ar
    63    17    15   ar
    64    14    13   ar
    65    86    87    1
    66    86    84   ar
    67    15    13   ar
    68    90    89    1
    69    13    12    1
    70    12     9    1
    71    88    89    1
    72    82    84   ar
    73    54    55   ar
    74   104   105    1
    75    89    92    1
    76   108   109    1
    77   108   105    1
    78     9     8    1
    79     9    10    1
    80   105   106    1
    81    28    27    1
    82    92    93    1
    83    20    19    1
    84    20    21    1
    85    10    11    2
    86     1     7    1
    87     1     2    1
    88     5     6    1
    89     5     2    1
    90    23    21   am
    91    23    24    1
    92    27    24    1
    93   106   107    2
    94   106   110   am
    95     7     6    1
    96    94    93   ar
    97    93    95   ar
    98     2     3    1
    99    21    22    2
   100    24    25    1
   101   110   111    1
   102     3     4    2
   103    25    29   am
   104    25    26    2
   105    29    30    1
   106   111   114    1
   107   111   112    1
   108   137   135   ar
   109   137   136   ar
   110   124   122   ar
   111   124   125   ar
   112   122   120   ar
   113   135   133   ar
   114   112   113    2
   115   126   125    1
   116   136   134   ar
   117    30    31    1
   118   125   123   ar
   119   120   119    1
   120   120   121   ar
   121    31    32    2
   122   133   132   ar
   123   119   116    1
   124   134   132   ar
   125   123   121   ar
   126   132   131    1
   127   116   117    1
   128   116   115    1
   129   118   117    2
   130   131   128    1
   131   127   128    1
   132   128   129    1
   133   129   130    2
