@<TRIPOS>MOLECULE
tmp/4onyB00.pdb
 91 89 0 0 0
SMALL
GASTEIGER

@<TRIPOS>ATOM
      1  N         54.8660   94.0370   71.4360 N.3    51  VAL51      -0.1231
      2  CA        54.5900   94.0480   72.8720 C.3    51  VAL51       0.1692
      3  C         55.1690   95.2830   73.5440 C.2    51  VAL51       0.2592
      4  O         56.0500   95.9380   72.9710 O.2    51  VAL51      -0.2718
      5  CB        55.1450   92.7830   73.5560 C.3    51  VAL51       0.0266
      6  CG1       54.5480   91.5310   72.8990 C.3    51  VAL51       0.0020
      7  CG2       56.6590   92.7110   73.4730 C.3    51  VAL51       0.0020
      8  N         54.6640   95.6160   74.7370 N.am   52  LEU52      -0.1966
      9  CA        55.1170   96.8120   75.4470 C.3    52  LEU52       0.1728
     10  C         56.5870   96.7530   75.8370 C.2    52  LEU52       0.2616
     11  O         57.2870   97.7330   75.6490 O.2    52  LEU52      -0.2715
     12  CB        54.3030   97.0820   76.7140 C.3    52  LEU52       0.0311
     13  CG        52.9320   97.7190   76.5340 C.3    52  LEU52       0.0022
     14  CD1       52.1760   97.6810   77.8660 C.3    52  LEU52       0.0001
     15  CD2       53.0400   99.1570   76.0250 C.3    52  LEU52       0.0001
     16  N         57.0510   95.6250   76.3700 N.am   53  LYS53      -0.1977
     17  CA        58.4330   95.5530   76.8760 C.3    53  LYS53       0.1596
     18  C         59.4050   95.7440   75.7240 C.2    53  LYS53       0.2287
     19  O         59.2580   95.0990   74.6710 O.2    53  LYS53      -0.2864
     20  CB        58.7180   94.2470   77.6110 C.3    53  LYS53       0.0298
     21  CG        58.0890   94.1620   78.9740 C.3    53  LYS53       0.0038
     22  CD        58.2780   92.7690   79.5460 C.3    53  LYS53       0.0206
     23  CE        57.8770   92.7260   81.0010 C.3    53  LYS53       0.1093
     24  NZ        57.7540   91.3180   81.4720 N.3    53  LYS53      -0.1314
     25  N         45.5110   89.6030   73.8590 N.3   134  GLU134     -0.1231
     26  CA        45.8500   89.3130   75.2340 C.3   134  GLU134      0.1699
     27  C         47.1790   89.9520   75.6510 C.2   134  GLU134      0.2592
     28  O         47.3000   90.4660   76.7660 O.2   134  GLU134     -0.2718
     29  CB        45.9160   87.7960   75.4260 C.3   134  GLU134      0.0402
     30  CG        45.9270   87.3140   76.8730 C.3   134  GLU134      0.1161
     31  CD        46.6160   85.9670   77.0520 C.2   134  GLU134      0.3649
     32  OE1       47.3030   85.4670   76.1280 O.co2 134  GLU134     -0.2457
     33  OE2       46.5000   85.3840   78.1430 O.co2 134  GLU134     -0.2457
     34  N         48.1750   89.9320   74.7710 N.am  135  LYS135     -0.1980
     35  CA        49.5350   90.2870   75.1640 C.3   135  LYS135      0.1596
     36  C         50.1860   91.4220   74.3930 C.2   135  LYS135      0.2287
     37  O         51.2370   91.9020   74.7970 O.2   135  LYS135     -0.2864
     38  CB        50.4340   89.0560   75.0790 C.3   135  LYS135      0.0298
     39  CG        49.9120   87.8590   75.8600 C.3   135  LYS135      0.0038
     40  CD        49.9360   88.0990   77.3600 C.3   135  LYS135      0.0206
     41  CE        51.1980   87.6080   78.0610 C.3   135  LYS135      0.1093
     42  NZ        51.1820   88.0270   79.4970 N.3   135  LYS135     -0.1314
     43  N         54.0680   80.7610   74.3110 N.3   188  ARG188     -0.1231
     44  CA        53.0640   81.6480   74.8590 C.3   188  ARG188      0.1694
     45  C         53.4390   82.0490   76.2720 C.2   188  ARG188      0.2592
     46  O         53.0650   83.1230   76.6970 O.2   188  ARG188     -0.2718
     47  CB        51.6740   80.9990   74.8790 C.3   188  ARG188      0.0321
     48  CG        50.8910   81.1330   73.5840 C.3   188  ARG188      0.0489
     49  CD        49.3770   81.0240   73.7590 C.3   188  ARG188      0.2205
     50  NE        48.7210   82.3130   74.0790 N.pl3 188  ARG188     -0.0865
     51  CZ        47.5280   82.7080   73.6020 C.cat 188  ARG188      0.5346
     52  NH1       46.8620   81.9610   72.7380 N.pl3 188  ARG188      0.1354
     53  NH2       47.0060   83.8790   73.9400 N.pl3 188  ARG188      0.1354
     54  N         54.1550   81.1940   77.0010 N.am  189  ASP189     -0.1960
     55  CA        54.5280   81.5210   78.3680 C.3   189  ASP189      0.1840
     56  C         55.4540   82.7200   78.3750 C.2   189  ASP189      0.2623
     57  O         55.3320   83.5600   79.2670 O.2   189  ASP189     -0.2715
     58  CB        55.2050   80.3620   79.1060 C.3   189  ASP189      0.1450
     59  CG        54.2880   79.1740   79.3100 C.2   189  ASP189      0.3671
     60  OD1       53.0510   79.3770   79.2810 O.co2 189  ASP189     -0.2456
     61  OD2       54.8010   78.0460   79.5060 O.co2 189  ASP189     -0.2456
     62  N         56.3650   82.8330   77.4090 N.am  190  THR190     -0.1937
     63  CA        57.2800   83.9820   77.4100 C.3   190  THR190      0.2028
     64  C         56.8970   85.1330   76.4840 C.2   190  THR190      0.2642
     65  O         57.5020   86.1860   76.5790 O.2   190  THR190     -0.2714
     66  CB        58.7310   83.5780   77.0860 C.3   190  THR190      0.1808
     67  OG1       58.8090   83.0450   75.7590 O.3   190  THR190     -0.2208
     68  CG2       59.2550   82.5380   78.1060 C.3   190  THR190      0.0379
     69  N         55.9040   84.9600   75.6170 N.am  191  PHE191     -0.1959
     70  CA        55.5470   86.0180   74.6480 C.3   191  PHE191      0.1771
     71  C         55.1090   87.2700   75.4260 C.2   191  PHE191      0.2620
     72  O         54.2130   87.2090   76.2530 O.2   191  PHE191     -0.2715
     73  CB        54.4340   85.5840   73.6890 C.3   191  PHE191      0.0574
     74  CG        54.1590   86.5720   72.5630 C.ar  191  PHE191     -0.0200
     75  CD1       53.2730   87.6060   72.7290 C.ar  191  PHE191     -0.0042
     76  CD2       54.7730   86.4340   71.3420 C.ar  191  PHE191     -0.0042
     77  CE1       53.0270   88.5240   71.7050 C.ar  191  PHE191     -0.0003
     78  CE2       54.5150   87.3290   70.3140 C.ar  191  PHE191     -0.0003
     79  CZ        53.6430   88.3730   70.4970 C.ar  191  PHE191     -0.0000
     80  N         55.7880   88.3900   75.1960 N.am  192  GLY192     -0.1940
     81  CA        55.5840   89.5810   76.0240 C.3   192  GLY192      0.2014
     82  C         56.8200   90.0750   76.7460 C.2   192  GLY192      0.2638
     83  O         56.9130   91.2530   77.0550 O.2   192  GLY192     -0.2714
     84  N         57.7690   89.1760   77.0140 N.am  193  ASN193     -0.1972
     85  CA        59.0730   89.5650   77.5610 C.3   193  ASN193      0.1688
     86  C         60.0120   90.1370   76.5070 C.2   193  ASN193      0.2292
     87  O         59.8620   89.8560   75.3240 O.2   193  ASN193     -0.2864
     88  CB        59.7400   88.3420   78.2190 C.3   193  ASN193      0.1181
     89  CG        58.9980   87.8830   79.4620 C.2   193  ASN193      0.2629
     90  OD1       58.1120   88.5640   79.9560 O.2   193  ASN193     -0.2716
     91  ND2       59.3300   86.7010   79.9430 N.am  193  ASN193     -0.0877
@<TRIPOS>BOND
     1    78    79   ar
     2    78    76   ar
     3    79    77   ar
     4    76    74   ar
     5     1     2    1
     6    77    75   ar
     7    74    75   ar
     8    74    73    1
     9    52    51    1
    10     2     3    1
    11     2     5    1
    12     6     5    1
    13     4     3    2
    14     7     5    1
    15     3     8   am
    16    48    49    1
    17    48    47    1
    18    51    53    1
    19    51    50    2
    20    73    70    1
    21    49    50    1
    22    25    26    1
    23    43    44    1
    24    36    37    2
    25    36    35    1
    26    70    71    1
    27    70    69    1
    28    19    18    2
    29     8     9    1
    30    34    35    1
    31    34    27   am
    32    44    47    1
    33    44    45    1
    34    38    35    1
    35    38    39    1
    36    80    71   am
    37    80    81    1
    38    26    29    1
    39    26    27    1
    40    87    86    2
    41    29    30    1
    42    71    72    2
    43     9    10    1
    44     9    12    1
    45    69    64   am
    46    11    10    2
    47    27    28    2
    48    18    17    1
    49    67    66    1
    50    10    16   am
    51    39    40    1
    52    81    82    1
    53    15    13    1
    54    32    31   ar
    55    45    46    2
    56    45    54   am
    57    16    17    1
    58    64    65    2
    59    64    63    1
    60    86    85    1
    61    13    12    1
    62    13    14    1
    63    82    84   am
    64    82    83    2
    65    30    31    1
    66    17    20    1
    67    54    55    1
    68    84    85    1
    69    31    33   ar
    70    66    63    1
    71    66    68    1
    72    40    41    1
    73    62    63    1
    74    62    56   am
    75    85    88    1
    76    20    21    1
    77    41    42    1
    78    88    89    1
    79    55    56    1
    80    55    58    1
    81    56    57    2
    82    21    22    1
    83    58    59    1
    84    60    59   ar
    85    59    61   ar
    86    89    91   am
    87    89    90    2
    88    22    23    1
    89    23    24    1
