@<TRIPOS>MOLECULE
tmp/4oo6A00.pdb
 224 212 0 0 0
SMALL
GASTEIGER

@<TRIPOS>ATOM
      1  N         46.2510   59.4450   36.3650 N.3   306  TYR306     -0.1241
      2  CA        45.0520   60.3020   36.2800 C.3   306  TYR306      0.1605
      3  C         45.3570   61.6130   35.5430 C.2   306  TYR306      0.2264
      4  O         46.3620   62.2550   35.8340 O.2   306  TYR306     -0.2867
      5  CB        44.5610   60.6850   37.6680 C.3   306  TYR306      0.0534
      6  CG        43.6520   59.6950   38.3460 C.ar  306  TYR306     -0.0201
      7  CD1       42.4130   59.3860   37.8090 C.ar  306  TYR306     -0.0009
      8  CD2       44.0010   59.1150   39.5640 C.ar  306  TYR306     -0.0009
      9  CE1       41.5590   58.5080   38.4360 C.ar  306  TYR306      0.0417
     10  CE2       43.1580   58.2220   40.1940 C.ar  306  TYR306      0.0417
     11  CZ        41.9350   57.9330   39.6300 C.ar  306  TYR306      0.1957
     12  OH        41.0870   57.0560   40.2410 O.3   306  TYR306     -0.2866
     13  N         35.0530   56.3020   29.8970 N.3   319  TRP319     -0.1241
     14  CA        36.1780   55.8090   29.0690 C.3   319  TRP319      0.1605
     15  C         37.2340   56.7870   28.5070 C.2   319  TRP319      0.2264
     16  O         36.9200   57.7270   27.7870 O.2   319  TRP319     -0.2867
     17  CB        35.5960   55.0480   27.9070 C.3   319  TRP319      0.0550
     18  CG        36.5610   54.2900   27.1410 C.ar  319  TRP319      0.0003
     19  CD1       37.0250   54.5960   25.9150 C.ar  319  TRP319      0.0946
     20  CD2       37.1750   53.0550   27.5140 C.ar  319  TRP319      0.0152
     21  NE1       37.8990   53.6280   25.4800 N.ar  319  TRP319     -0.2442
     22  CE2       38.0060   52.6710   26.4530 C.ar  319  TRP319      0.0810
     23  CE3       37.0950   52.2350   28.6360 C.ar  319  TRP319      0.0012
     24  CZ2       38.7630   51.5130   26.4830 C.ar  319  TRP319      0.0191
     25  CZ3       37.8390   51.0680   28.6620 C.ar  319  TRP319      0.0001
     26  CH2       38.6590   50.7170   27.5920 C.ar  319  TRP319      0.0015
     27  N         43.4300   56.6620   30.4870 N.3   322  ARG322     -0.1231
     28  CA        43.8220   55.8300   31.6370 C.3   322  ARG322      0.1694
     29  C         43.1480   54.4840   31.5400 C.2   322  ARG322      0.2591
     30  O         43.7890   53.4450   31.6240 O.2   322  ARG322     -0.2718
     31  CB        43.4280   56.5050   32.9270 C.3   322  ARG322      0.0321
     32  CG        43.4260   55.6550   34.1820 C.3   322  ARG322      0.0489
     33  CD        43.2490   56.5690   35.3880 C.3   322  ARG322      0.2205
     34  NE        42.8890   55.8420   36.5890 N.pl3 322  ARG322     -0.0865
     35  CZ        43.7160   55.5540   37.5890 C.cat 322  ARG322      0.5346
     36  NH1       44.9800   55.9160   37.5450 N.pl3 322  ARG322      0.1354
     37  NH2       43.2710   54.8860   38.6440 N.pl3 322  ARG322      0.1354
     38  N         41.8420   54.5010   31.3450 N.am  323  LYS323     -0.1980
     39  CA        41.0990   53.2690   31.3940 C.3   323  LYS323      0.1596
     40  C         41.5270   52.3710   30.2650 C.2   323  LYS323      0.2287
     41  O         41.7320   51.1820   30.4480 O.2   323  LYS323     -0.2864
     42  CB        39.6210   53.5490   31.2910 C.3   323  LYS323      0.0298
     43  CG        39.0400   54.2300   32.5060 C.3   323  LYS323      0.0038
     44  CD        37.5960   53.7930   32.6990 C.3   323  LYS323      0.0206
     45  CE        36.8490   54.6940   33.6470 C.3   323  LYS323      0.1093
     46  NZ        36.9840   56.1050   33.1720 N.3   323  LYS323     -0.1314
     47  N         45.0080   50.9230   30.9310 N.3   326  ALA326     -0.1231
     48  CA        44.9510   49.8840   31.9510 C.3   326  ALA326      0.1694
     49  C         44.3600   48.5890   31.3950 C.2   326  ALA326      0.2591
     50  O         44.8410   47.4820   31.6770 O.2   326  ALA326     -0.2718
     51  CB        44.1160   50.3750   33.1130 C.3   326  ALA326      0.0304
     52  N         43.2990   48.7420   30.6110 N.am  327  ALA327     -0.1980
     53  CA        42.6710   47.6200   29.9530 C.3   327  ALA327      0.1597
     54  C         43.6920   46.9550   29.0500 C.2   327  ALA327      0.2287
     55  O         43.8450   45.7440   29.0740 O.2   327  ALA327     -0.2864
     56  CB        41.4900   48.0910   29.1630 C.3   327  ALA327      0.0319
     57  N         46.1670   44.9710   31.1800 N.3   330  ASP330     -0.1239
     58  CA        45.5870   43.7740   31.7840 C.3   330  ASP330      0.1674
     59  C         45.5450   42.6400   30.7490 C.2   330  ASP330      0.2266
     60  O         45.9700   41.5240   31.0160 O.2   330  ASP330     -0.2867
     61  CB        44.2000   44.0990   32.3330 C.3   330  ASP330      0.1410
     62  CG        43.4650   42.8820   32.8550 C.2   330  ASP330      0.3668
     63  OD1       43.2870   41.9240   32.0850 O.co2 330  ASP330     -0.2456
     64  OD2       43.0120   42.8960   34.0130 O.co2 330  ASP330     -0.2456
     65  N         47.6480   50.8950   40.4680 N.3   365  LEU365     -0.1245
     66  CA        46.7690   50.4580   39.4010 C.3   365  LEU365      0.1561
     67  C         47.4500   49.4320   38.5220 C.2   365  LEU365      0.2260
     68  O         46.8370   48.4220   38.1660 O.2   365  LEU365     -0.2867
     69  CB        46.3620   51.6120   38.5250 C.3   365  LEU365      0.0270
     70  CG        45.5840   51.2950   37.2510 C.3   365  LEU365      0.0019
     71  CD1       44.2360   50.6860   37.5520 C.3   365  LEU365      0.0001
     72  CD2       45.3920   52.6100   36.5150 C.3   365  LEU365      0.0001
     73  N         46.3660   45.7930   37.6800 N.3   369  ALA369     -0.1245
     74  CA        46.0400   45.5100   36.2760 C.3   369  ALA369      0.1562
     75  C         46.6940   44.2380   35.7870 C.2   369  ALA369      0.2260
     76  O         46.0850   43.4450   35.0790 O.2   369  ALA369     -0.2867
     77  CB        46.4300   46.6520   35.3810 C.3   369  ALA369      0.0290
     78  N         41.1560   54.2030   47.4460 N.3   402  SER402     -0.1202
     79  CA        40.2480   53.3880   46.6460 C.3   402  SER402      0.2020
     80  C         40.9870   52.4250   45.7350 C.2   402  SER402      0.2618
     81  O         40.6440   51.2460   45.6710 O.2   402  SER402     -0.2717
     82  CB        39.3160   54.2470   45.8280 C.3   402  SER402      0.2103
     83  OG        40.0560   55.1750   45.0770 O.3   402  SER402     -0.2182
     84  N         42.0370   52.8810   45.0670 N.am  403  ILE403     -0.1979
     85  CA        42.7260   51.9780   44.1530 C.3   403  ILE403      0.1595
     86  C         43.4120   50.8780   44.9290 C.2   403  ILE403      0.2287
     87  O         43.6500   49.7940   44.4170 O.2   403  ILE403     -0.2864
     88  CB        43.6580   52.7260   43.1370 C.3   403  ILE403      0.0276
     89  CG1       44.0340   51.8090   41.9690 C.3   403  ILE403      0.0022
     90  CG2       44.9120   53.2600   43.7900 C.3   403  ILE403      0.0022
     91  CD1       42.8550   51.5080   41.0850 C.3   403  ILE403      0.0001
     92  N         41.0540   47.9570   45.5460 N.3   406  TRP406     -0.1241
     93  CA        40.8400   47.1400   44.3610 C.3   406  TRP406      0.1605
     94  C         41.9970   46.2540   44.0930 C.2   406  TRP406      0.2264
     95  O         41.8130   45.0740   43.8330 O.2   406  TRP406     -0.2867
     96  CB        40.6390   48.0110   43.1590 C.3   406  TRP406      0.0550
     97  CG        40.4820   47.2430   41.8680 C.ar  406  TRP406      0.0003
     98  CD1       39.3860   46.5730   41.4540 C.ar  406  TRP406      0.0946
     99  CD2       41.4370   47.1450   40.8100 C.ar  406  TRP406      0.0152
    100  NE1       39.6070   46.0210   40.2290 N.ar  406  TRP406     -0.2442
    101  CE2       40.8650   46.3640   39.8090 C.ar  406  TRP406      0.0810
    102  CE3       42.7290   47.6310   40.6220 C.ar  406  TRP406      0.0012
    103  CZ2       41.5450   46.0430   38.6320 C.ar  406  TRP406      0.0191
    104  CZ3       43.3970   47.3220   39.4370 C.ar  406  TRP406      0.0001
    105  CH2       42.8100   46.5220   38.4730 C.ar  406  TRP406      0.0015
    106  N         42.2110   43.4500   46.4260 N.3   409  SER409     -0.1202
    107  CA        41.2010   42.4590   46.0760 C.3   409  SER409      0.2020
    108  C         41.6200   41.5790   44.8960 C.2   409  SER409      0.2618
    109  O         41.1680   40.4470   44.7540 O.2   409  SER409     -0.2717
    110  CB        39.8800   43.1480   45.7660 C.3   409  SER409      0.2103
    111  OG        39.8010   43.5770   44.4140 O.3   409  SER409     -0.2182
    112  N         42.4820   42.1080   44.0400 N.am  410  ARG410     -0.1979
    113  CA        43.0020   41.3310   42.9170 C.3   410  ARG410      0.1597
    114  C         44.0560   40.2940   43.3130 C.2   410  ARG410      0.2287
    115  O         44.5250   39.5340   42.4540 O.2   410  ARG410     -0.2864
    116  CB        43.6160   42.2480   41.8820 C.3   410  ARG410      0.0334
    117  CG        42.6360   43.2100   41.2660 C.3   410  ARG410      0.0492
    118  CD        42.0570   42.6360   40.0140 C.3   410  ARG410      0.2205
    119  NE        43.0700   42.4430   38.9980 N.pl3 410  ARG410     -0.0865
    120  CZ        42.8110   42.0350   37.7710 C.cat 410  ARG410      0.5346
    121  NH1       41.5950   41.7720   37.4060 N.pl3 410  ARG410      0.1354
    122  NH2       43.7810   41.9140   36.8920 N.pl3 410  ARG410      0.1354
    123  N         33.9200   57.1640   46.5210 N.3   441  ARG441     -0.1245
    124  CA        34.7180   56.2780   45.6690 C.3   441  ARG441      0.1563
    125  C         35.3640   55.2160   46.5470 C.2   441  ARG441      0.2260
    126  O         35.4210   54.0560   46.1910 O.2   441  ARG441     -0.2867
    127  CB        35.7490   57.0780   44.8760 C.3   441  ARG441      0.0307
    128  CG        36.6720   56.2740   43.9760 C.3   441  ARG441      0.0489
    129  CD        36.0670   55.9560   42.6140 C.3   441  ARG441      0.2205
    130  NE        37.0830   55.4370   41.6750 N.pl3 441  ARG441     -0.0865
    131  CZ        36.8850   55.1960   40.3730 C.cat 441  ARG441      0.5346
    132  NH1       35.7010   55.4230   39.8100 N.pl3 441  ARG441      0.1354
    133  NH2       37.8810   54.7300   39.6220 N.pl3 441  ARG441      0.1354
    134  N         32.8620   52.5640   47.6040 N.3   444  GLU444     -0.1231
    135  CA        32.4590   51.5770   46.6320 C.3   444  GLU444      0.1699
    136  C         33.6100   50.6480   46.4000 C.2   444  GLU444      0.2592
    137  O         33.4390   49.4400   46.2800 O.2   444  GLU444     -0.2718
    138  CB        31.8890   52.1940   45.3420 C.3   444  GLU444      0.0402
    139  CG        32.8340   52.9350   44.4200 C.3   444  GLU444      0.1161
    140  CD        32.1180   53.5490   43.2030 C.2   444  GLU444      0.3649
    141  OE1       32.1840   52.9330   42.0870 O.co2 444  GLU444     -0.2457
    142  OE2       31.4990   54.6520   43.3810 O.co2 444  GLU444     -0.2457
    143  N         34.8080   51.1910   46.4170 N.am  445  ALA445     -0.1980
    144  CA        35.9640   50.3670   46.1710 C.3   445  ALA445      0.1597
    145  C         36.1180   49.3320   47.2700 C.2   445  ALA445      0.2287
    146  O         36.3700   48.1590   46.9960 O.2   445  ALA445     -0.2864
    147  CB        37.1970   51.2300   46.0550 C.3   445  ALA445      0.0319
    148  N         33.1800   46.6940   47.4020 N.3   448  SER448     -0.1217
    149  CA        33.4100   45.7240   46.3310 C.3   448  SER448      0.1889
    150  C         34.5900   44.8290   46.6020 C.2   448  SER448      0.2288
    151  O         34.5340   43.6120   46.3760 O.2   448  SER448     -0.2866
    152  CB        33.6220   46.3780   44.9800 C.3   448  SER448      0.2089
    153  OG        33.5700   45.3740   43.9800 O.3   448  SER448     -0.2183
    154  N         33.6380   42.2830   49.1070 N.3   451  ALA451     -0.1231
    155  CA        32.8300   41.2120   48.4900 C.3   451  ALA451      0.1694
    156  C         33.6700   40.1550   47.7790 C.2   451  ALA451      0.2592
    157  O         33.3830   38.9860   47.8550 O.2   451  ALA451     -0.2718
    158  CB        31.8060   41.7930   47.5410 C.3   451  ALA451      0.0304
    159  N         34.7240   40.5810   47.1050 N.am  452  THR452     -0.1953
    160  CA        35.6000   39.6810   46.3800 C.3   452  THR452      0.1897
    161  C         36.3930   38.8800   47.3680 C.2   452  THR452      0.2313
    162  O         36.6550   37.6840   47.1530 O.2   452  THR452     -0.2863
    163  CB        36.5770   40.4880   45.5270 C.3   452  THR452      0.1794
    164  OG1       35.8470   41.2830   44.5880 O.3   452  THR452     -0.2208
    165  CG2       37.4880   39.6040   44.7970 C.3   452  THR452      0.0378
    166  N         23.8380   49.1900   45.9870 N.3   485  LEU485     -0.1231
    167  CA        23.8130   48.0240   45.1020 C.3   485  LEU485      0.1693
    168  C         24.9910   47.1280   45.3270 C.2   485  LEU485      0.2591
    169  O         24.8870   45.9150   45.2250 O.2   485  LEU485     -0.2718
    170  CB        23.8090   48.4450   43.6420 C.3   485  LEU485      0.0284
    171  CG        22.6790   49.3640   43.1790 C.3   485  LEU485      0.0019
    172  CD1       22.7770   49.5110   41.6880 C.3   485  LEU485      0.0001
    173  CD2       21.3180   48.8420   43.5900 C.3   485  LEU485      0.0001
    174  N         26.1160   47.7390   45.6360 N.am  486  ILE486     -0.1980
    175  CA        27.3210   47.0040   45.9720 C.3   486  ILE486      0.1595
    176  C         27.2350   46.3860   47.3620 C.2   486  ILE486      0.2287
    177  O         27.7430   45.3070   47.6080 O.2   486  ILE486     -0.2864
    178  CB        28.5160   47.9330   45.8720 C.3   486  ILE486      0.0276
    179  CG1       28.6490   48.4050   44.4200 C.3   486  ILE486      0.0022
    180  CG2       29.7810   47.2220   46.2940 C.3   486  ILE486      0.0022
    181  CD1       29.7580   49.4000   44.2050 C.3   486  ILE486      0.0001
    182  N         25.5050   43.2340   47.0850 N.3   489  ASP489     -0.1239
    183  CA        26.3890   42.1650   46.6060 C.3   489  ASP489      0.1674
    184  C         27.2400   41.6120   47.7500 C.2   489  ASP489      0.2266
    185  O         27.3470   40.4020   47.9240 O.2   489  ASP489     -0.2867
    186  CB        27.2450   42.6070   45.4210 C.3   489  ASP489      0.1410
    187  CG        28.2660   41.5500   45.0030 C.2   489  ASP489      0.3668
    188  OD1       27.9030   40.3580   45.0030 O.co2 489  ASP489     -0.2456
    189  OD2       29.4350   41.9080   44.6700 O.co2 489  ASP489     -0.2456
    190  N         17.2240   44.0130   41.1160 N.3   530  PHE530     -0.1228
    191  CA        18.0110   42.8440   40.7270 C.3   530  PHE530      0.1721
    192  C         19.0430   42.4750   41.8140 C.2   530  PHE530      0.2437
    193  O         19.0220   41.3730   42.3280 O.2   530  PHE530     -0.2733
    194  CB        18.6550   43.0010   39.3520 C.3   530  PHE530      0.0547
    195  CG        17.6870   43.3140   38.2610 C.ar  530  PHE530     -0.0202
    196  CD1       16.3380   43.0450   38.3930 C.ar  530  PHE530     -0.0042
    197  CD2       18.1350   43.8620   37.0620 C.ar  530  PHE530     -0.0042
    198  CE1       15.4560   43.3220   37.3520 C.ar  530  PHE530     -0.0003
    199  CE2       17.2560   44.1500   36.0240 C.ar  530  PHE530     -0.0003
    200  CZ        15.9160   43.8690   36.1710 C.ar  530  PHE530     -0.0000
    201  N         19.9010   43.4130   42.2140 N.am  531  PRO531     -0.2729
    202  CA        20.9010   43.0590   43.2180 C.3   531  PRO531      0.1401
    203  C         20.2920   42.7560   44.5740 C.2   531  PRO531      0.2269
    204  O         20.8370   41.9150   45.3110 O.2   531  PRO531     -0.2865
    205  CB        21.7640   44.3150   43.3220 C.3   531  PRO531      0.0296
    206  CG        21.3820   45.1490   42.1410 C.3   531  PRO531      0.0237
    207  CD        19.9560   44.8380   41.8880 C.3   531  PRO531      0.0939
    208  N         18.8160   39.1230   44.3760 N.3   534  GLU534     -0.1245
    209  CA        19.8920   38.1310   44.3020 C.3   534  GLU534      0.1567
    210  C         20.4130   37.9920   45.7270 C.2   534  GLU534      0.2260
    211  O         20.7910   36.9080   46.1730 O.2   534  GLU534     -0.2867
    212  CB        21.0710   38.5140   43.3810 C.3   534  GLU534      0.0388
    213  CG        20.7780   38.9740   41.9580 C.3   534  GLU534      0.1160
    214  CD        20.5370   37.8620   40.9400 C.2   534  GLU534      0.3649
    215  OE1       20.1690   36.7180   41.3170 O.co2 534  GLU534     -0.2457
    216  OE2       20.6860   38.1690   39.7280 O.co2 534  GLU534     -0.2457
    217  N         14.6750   40.1500   32.8670 N.3   585  ASP585     -0.1239
    218  CA        15.5210   39.9730   34.0450 C.3   585  ASP585      0.1674
    219  C         14.7080   40.0490   35.3480 C.2   585  ASP585      0.2266
    220  O         15.1240   39.4910   36.3350 O.2   585  ASP585     -0.2867
    221  CB        16.7180   40.9590   34.0790 C.3   585  ASP585      0.1410
    222  CG        17.8550   40.5980   33.0630 C.2   585  ASP585      0.3668
    223  OD1       18.0230   39.4170   32.6690 O.co2 585  ASP585     -0.2456
    224  OD2       18.5990   41.5230   32.6590 O.co2 585  ASP585     -0.2456
@<TRIPOS>BOND
     1    21    19   ar
     2    21    22   ar
     3    19    18   ar
     4    22    24   ar
     5    22    20   ar
     6    24    26   ar
     7    18    20   ar
     8    18    17    1
     9    20    23   ar
    10    26    25   ar
    11    16    15    2
    12    17    14    1
    13    15    14    1
    14    23    25   ar
    15    54    55    2
    16    54    53    1
    17    14    13    1
    18    56    53    1
    19    53    52    1
    20    40    41    2
    21    40    39    1
    22    27    28    1
    23    52    49   am
    24    59    60    2
    25    59    58    1
    26    47    48    1
    27    57    58    1
    28    42    39    1
    29    42    43    1
    30    38    39    1
    31    38    29   am
    32    49    50    2
    33    49    48    1
    34    29    30    2
    35    29    28    1
    36    28    31    1
    37    58    61    1
    38    48    51    1
    39    63    62   ar
    40    61    62    1
    41    43    44    1
    42   224   222   ar
    43   223   222   ar
    44    44    45    1
    45    62    64   ar
    46   217   218    1
    47    31    32    1
    48   222   221    1
    49    46    45    1
    50   218   221    1
    51   218   219    1
    52    32    33    1
    53    76    75    2
    54   219   220    2
    55    77    74    1
    56    33    34    1
    57     3     4    2
    58     3     2    1
    59    75    74    1
    60   199   200   ar
    61   199   197   ar
    62   200   198   ar
    63    74    73    1
    64     2     1    1
    65     2     5    1
    66    72    70    1
    67    34    35    2
    68   122   120    1
    69   197   195   ar
    70    70    71    1
    71    70    69    1
    72   198   196   ar
    73   121   120    1
    74    36    35    1
    75    35    37    1
    76     5     6    1
    77   120   119    2
    78     7     6   ar
    79     7     9   ar
    80    68    67    2
    81   195   196   ar
    82   195   194    1
    83     6     8   ar
    84     9    11   ar
    85   105   103   ar
    86   105   104   ar
    87    67    66    1
    88    69    66    1
    89   103   101   ar
    90   119   118    1
    91   194   191    1
    92    66    65    1
    93   104   102   ar
    94     8    10   ar
    95   133   131    1
    96    11    10   ar
    97    11    12    1
    98   216   214   ar
    99   101   100   ar
   100   101    99   ar
   101   132   131    1
   102   118   117    1
   103   100    98   ar
   104   131   130    2
   105   102    99   ar
   106   191   190    1
   107   191   192    1
   108    99    97   ar
   109   214   215   ar
   110   214   213    1
   111    91    89    1
   112   117   116    1
   113    98    97   ar
   114   130   129    1
   115   172   171    1
   116   192   201   am
   117   192   193    2
   118    97    96    1
   119   116   113    1
   120   207   206    1
   121   207   201    1
   122   213   212    1
   123    89    88    1
   124   141   140   ar
   125   206   205    1
   126   201   202    1
   127   115   114    2
   128   129   128    1
   129   113   114    1
   130   113   112    1
   131    88    90    1
   132    88    85    1
   133    96    93    1
   134   171   173    1
   135   171   170    1
   136   140   142   ar
   137   140   139    1
   138   202   205    1
   139   202   203    1
   140   212   209    1
   141   170   167    1
   142    95    94    2
   143   128   127    1
   144   153   152    1
   145   112   108   am
   146    94    93    1
   147    85    86    1
   148    85    84    1
   149   181   179    1
   150   209   208    1
   151   209   210    1
   152    93    92    1
   153   111   110    1
   154    87    86    2
   155   179   178    1
   156   139   138    1
   157   203   204    2
   158   164   163    1
   159   189   187   ar
   160   109   108    2
   161   165   163    1
   162   127   124    1
   163   108   107    1
   164   152   149    1
   165   188   187   ar
   166   187   186    1
   167    84    80   am
   168    83    82    1
   169   167   168    1
   170   167   166    1
   171   169   168    2
   172   168   174   am
   173   138   135    1
   174   186   183    1
   175   163   160    1
   176   174   175    1
   177   124   123    1
   178   124   125    1
   179    81    80    2
   180   210   211    2
   181    80    79    1
   182   110   107    1
   183    82    79    1
   184   178   175    1
   185   178   180    1
   186   175   176    1
   187   147   144    1
   188   107   106    1
   189   144   143    1
   190   144   145    1
   191   126   125    2
   192   137   136    2
   193   149   150    1
   194   149   148    1
   195   151   150    2
   196   160   159    1
   197   160   161    1
   198   136   143   am
   199   136   135    1
   200   183   182    1
   201   183   184    1
   202   135   134    1
   203    79    78    1
   204   146   145    2
   205   159   156   am
   206   162   161    2
   207   176   177    2
   208   158   155    1
   209   184   185    2
   210   156   157    2
   211   156   155    1
   212   155   154    1
