@<TRIPOS>MOLECULE
tmp/4oo9A04.pdb
 178 168 0 0 0
SMALL
GASTEIGER

@<TRIPOS>ATOM
      1  N        -25.1920  -14.8910   37.5200 N.3    57  GLY57      -0.1210
      2  CA       -24.6790  -13.8810   38.4270 C.3    57  GLY57       0.1956
      3  C        -25.7820  -13.0380   39.0350 C.2    57  GLY57       0.2611
      4  O        -25.7100  -12.6490   40.2000 O.2    57  GLY57      -0.2717
      5  N        -26.8080  -12.7570   38.2390 N.am   58  ILE58      -0.1979
      6  CA       -27.9510  -11.9720   38.6940 C.3    58  ILE58       0.1595
      7  C        -28.8090  -12.7720   39.6740 C.2    58  ILE58       0.2287
      8  O        -29.3270  -12.2290   40.6500 O.2    58  ILE58      -0.2864
      9  CB       -28.8100  -11.5010   37.5040 C.3    58  ILE58       0.0276
     10  CG1      -27.9970  -10.5720   36.6000 C.3    58  ILE58       0.0022
     11  CG2      -30.0610  -10.7900   37.9850 C.3    58  ILE58       0.0022
     12  CD1      -28.7730  -10.0350   35.4160 C.3    58  ILE58       0.0001
     13  N        -27.3560  -12.6690   42.8710 N.3    61  GLY61      -0.1225
     14  CA       -27.5530  -11.3190   43.3650 C.3    61  GLY61       0.1811
     15  C        -28.8160  -11.2030   44.1950 C.2    61  GLY61       0.2280
     16  O        -28.8200  -10.5670   45.2480 O.2    61  GLY61      -0.2866
     17  N        -22.0380  -11.2380   47.6270 N.3    83  ILE83      -0.1231
     18  CA       -22.0100   -9.8220   47.2780 C.3    83  ILE83       0.1692
     19  C        -20.7750   -9.4880   46.4370 C.2    83  ILE83       0.2592
     20  O        -20.7740   -8.5320   45.6600 O.2    83  ILE83      -0.2718
     21  CB       -22.0670   -8.9430   48.5440 C.3    83  ILE83       0.0266
     22  CG1      -23.3150   -9.2850   49.3610 C.3    83  ILE83       0.0019
     23  CG2      -22.0850   -7.4690   48.1850 C.3    83  ILE83       0.0020
     24  CD1      -23.3650   -8.6210   50.7160 C.3    83  ILE83       0.0001
     25  N        -19.7300  -10.2950   46.5780 N.am   84  GLY84      -0.1957
     26  CA       -18.5150  -10.0890   45.8150 C.3    84  GLY84       0.1869
     27  C        -18.5430  -10.7460   44.4490 C.2    84  GLY84       0.2309
     28  O        -18.2290  -10.1120   43.4420 O.2    84  GLY84      -0.2863
     29  N        -21.2010  -12.2670   42.7250 N.3    86  SER86      -0.1203
     30  CA       -22.3690  -12.0860   41.8600 C.3    86  SER86       0.2005
     31  C        -22.2390  -10.9480   40.8340 C.2    86  SER86       0.2460
     32  O        -22.6030  -11.1320   39.6730 O.2    86  SER86      -0.2732
     33  CB       -23.6770  -11.9920   42.6600 C.3    86  SER86       0.2103
     34  OG       -23.5600  -11.1270   43.7760 O.3    86  SER86      -0.2182
     35  N        -21.7210   -9.7740   41.2450 N.am   87  PRO87      -0.2728
     36  CA       -21.4580   -8.7970   40.1830 C.3    87  PRO87       0.1401
     37  C        -20.2920   -9.2490   39.3120 C.2    87  PRO87       0.2269
     38  O        -20.2940   -9.0100   38.1040 O.2    87  PRO87      -0.2865
     39  CB       -21.0780   -7.5290   40.9560 C.3    87  PRO87       0.0296
     40  CG       -21.6520   -7.7220   42.3210 C.3    87  PRO87       0.0237
     41  CD       -21.5170   -9.1880   42.5810 C.3    87  PRO87       0.0939
     42  N        -21.3780  -11.3670   36.4770 N.3    90  SER90      -0.1202
     43  CA       -22.1260  -10.6470   35.4530 C.3    90  SER90       0.2020
     44  C        -21.2480   -9.7250   34.6090 C.2    90  SER90       0.2618
     45  O        -21.2500   -9.8100   33.3820 O.2    90  SER90      -0.2717
     46  CB       -23.2810   -9.8580   36.0770 C.3    90  SER90       0.2103
     47  OG       -24.2850  -10.7300   36.5680 O.3    90  SER90      -0.2182
     48  N        -20.4940   -8.8510   35.2680 N.am   91  TYR91      -0.1975
     49  CA       -19.7080   -7.8420   34.5620 C.3    91  TYR91       0.1639
     50  C        -18.4630   -8.3990   33.8720 C.2    91  TYR91       0.2290
     51  O        -18.0970   -7.9410   32.7890 O.2    91  TYR91      -0.2864
     52  CB       -19.3310   -6.6930   35.5010 C.3    91  TYR91       0.0560
     53  CG       -20.5270   -6.0000   36.1140 C.ar   91  TYR91      -0.0198
     54  CD1      -21.3590   -5.2000   35.3450 C.ar   91  TYR91      -0.0009
     55  CD2      -20.8210   -6.1440   37.4630 C.ar   91  TYR91      -0.0009
     56  CE1      -22.4540   -4.5660   35.9010 C.ar   91  TYR91       0.0417
     57  CE2      -21.9120   -5.5160   38.0280 C.ar   91  TYR91       0.0417
     58  CZ       -22.7250   -4.7280   37.2450 C.ar   91  TYR91       0.1957
     59  OH       -23.8130   -4.1010   37.8060 O.3    91  TYR91      -0.2866
     60  N        -13.0540   -5.5870   54.0240 N.3   314  GLY314     -0.1210
     61  CA       -13.7590   -6.7610   53.5440 C.3   314  GLY314      0.1956
     62  C        -14.7880   -6.4040   52.4870 C.2   314  GLY314      0.2611
     63  O        -15.2550   -7.2670   51.7450 O.2   314  GLY314     -0.2717
     64  N        -15.1420   -5.1240   52.4220 N.am  315  VAL315     -0.1979
     65  CA       -16.1010   -4.6380   51.4370 C.3   315  VAL315      0.1595
     66  C        -15.4010   -3.8550   50.3290 C.2   315  VAL315      0.2287
     67  O        -15.6920   -4.0470   49.1500 O.2   315  VAL315     -0.2864
     68  CB       -17.1740   -3.7370   52.0850 C.3   315  VAL315      0.0276
     69  CG1      -18.1580   -3.2470   51.0360 C.3   315  VAL315      0.0022
     70  CG2      -17.9010   -4.4830   53.1930 C.3   315  VAL315      0.0022
     71  N        -13.3770   -6.0740   47.2740 N.3   318  PRO318     -0.2102
     72  CA       -14.1870   -6.6100   46.1740 C.3   318  PRO318      0.1504
     73  C        -15.0410   -5.5380   45.4900 C.2   318  PRO318      0.2575
     74  O        -15.4560   -5.7320   44.3480 O.2   318  PRO318     -0.2718
     75  CB       -15.0810   -7.6400   46.8700 C.3   318  PRO318      0.0282
     76  CG       -15.1830   -7.1570   48.2690 C.3   318  PRO318      0.0208
     77  CD       -13.8350   -6.5810   48.5820 C.3   318  PRO318      0.0893
     78  N        -15.2980   -4.4300   46.1790 N.am  319  LEU319     -0.1980
     79  CA       -16.0360   -3.3170   45.5890 C.3   319  LEU319      0.1596
     80  C        -15.1760   -2.6000   44.5570 C.2   319  LEU319      0.2287
     81  O        -15.6750   -2.1240   43.5380 O.2   319  LEU319     -0.2864
     82  CB       -16.4760   -2.3260   46.6690 C.3   319  LEU319      0.0297
     83  CG       -17.3200   -1.1280   46.2250 C.3   319  LEU319      0.0022
     84  CD1      -18.6350   -1.5880   45.6160 C.3   319  LEU319      0.0001
     85  CD2      -17.5710   -0.1890   47.3950 C.3   319  LEU319      0.0001
     86  N        -14.7990   -4.9470   41.3900 N.3   322  ASN322     -0.1240
     87  CA       -16.0380   -4.8540   40.6250 C.3   322  ASN322      0.1653
     88  C        -16.1420   -3.5110   39.9140 C.2   322  ASN322      0.2266
     89  O        -16.7070   -3.4170   38.8260 O.2   322  ASN322     -0.2867
     90  CB       -17.2570   -5.0600   41.5290 C.3   322  ASN322      0.1155
     91  CG       -17.4210   -6.5010   41.9710 C.2   322  ASN322      0.2627
     92  OD1      -17.0250   -7.4280   41.2660 O.2   322  ASN322     -0.2716
     93  ND2      -18.0130   -6.6960   43.1430 N.am  322  ASN322     -0.0877
     94  N        -16.6870   -2.8410   35.9430 N.3   326  ILE326     -0.1245
     95  CA       -17.7010   -1.9090   35.4670 C.3   326  ILE326      0.1561
     96  C        -17.0730   -0.8360   34.5820 C.2   326  ILE326      0.2260
     97  O        -17.6020   -0.5000   33.5210 O.2   326  ILE326     -0.2867
     98  CB       -18.4410   -1.2450   36.6480 C.3   326  ILE326      0.0252
     99  CG1      -19.2830   -2.2790   37.3960 C.3   326  ILE326      0.0019
    100  CG2      -19.3190   -0.1040   36.1650 C.3   326  ILE326      0.0019
    101  CD1      -19.7940   -1.7920   38.7330 C.3   326  ILE326      0.0001
    102  N        -25.2440    1.7540   36.0040 N.3   356  THR356     -0.1218
    103  CA       -24.4340    0.9840   36.9440 C.3   356  THR356      0.1862
    104  C        -23.2730    1.8030   37.5090 C.2   356  THR356      0.2287
    105  O        -22.9020    1.6510   38.6750 O.2   356  THR356     -0.2866
    106  CB       -23.8840   -0.2960   36.2850 C.3   356  THR356      0.1770
    107  OG1      -24.9750   -1.1050   35.8300 O.3   356  THR356     -0.2211
    108  CG2      -23.0530   -1.0930   37.2720 C.3   356  THR356      0.0375
    109  N        -24.9250    4.0210   39.9270 N.3   359  ILE359     -0.1231
    110  CA       -25.2650    3.1650   41.0610 C.3   359  ILE359      0.1692
    111  C        -24.0460    2.8740   41.9320 C.2   359  ILE359      0.2592
    112  O        -24.1060    2.9910   43.1560 O.2   359  ILE359     -0.2718
    113  CB       -25.9000    1.8410   40.5900 C.3   359  ILE359      0.0266
    114  CG1      -27.3100    2.0990   40.0480 C.3   359  ILE359      0.0019
    115  CG2      -25.9430    0.8280   41.7240 C.3   359  ILE359      0.0020
    116  CD1      -28.0230    0.8560   39.5640 C.3   359  ILE359      0.0001
    117  N        -22.9410    2.5070   41.2910 N.am  360  TRP360     -0.1976
    118  CA       -21.6970    2.2320   41.9980 C.3   360  TRP360      0.1640
    119  C        -21.1740    3.4840   42.6970 C.2   360  TRP360      0.2290
    120  O        -20.8040    3.4410   43.8720 O.2   360  TRP360     -0.2864
    121  CB       -20.6420    1.6960   41.0300 C.3   360  TRP360      0.0576
    122  CG       -19.4160    1.1690   41.7070 C.ar  360  TRP360      0.0006
    123  CD1      -19.1670   -0.1270   42.0570 C.ar  360  TRP360      0.0946
    124  CD2      -18.2680    1.9200   42.1180 C.ar  360  TRP360      0.0152
    125  NE1      -17.9360   -0.2280   42.6580 N.ar  360  TRP360     -0.2442
    126  CE2      -17.3630    1.0200   42.7080 C.ar  360  TRP360      0.0810
    127  CE3      -17.9170    3.2740   42.0420 C.ar  360  TRP360      0.0012
    128  CZ2      -16.1320    1.4190   43.2220 C.ar  360  TRP360      0.0191
    129  CZ3      -16.6940    3.6720   42.5520 C.ar  360  TRP360      0.0001
    130  CH2      -15.8160    2.7480   43.1350 C.ar  360  TRP360      0.0015
    131  N        -23.2630    4.3720   45.5410 N.3   363  PHE363     -0.1241
    132  CA       -23.1700    3.3590   46.5870 C.3   363  PHE363      0.1605
    133  C        -22.1530    3.7190   47.6670 C.2   363  PHE363      0.2264
    134  O        -22.3890    3.4790   48.8500 O.2   363  PHE363     -0.2867
    135  CB       -22.8270    1.9920   45.9840 C.3   363  PHE363      0.0534
    136  CG       -22.5900    0.9180   47.0100 C.ar  363  PHE363     -0.0203
    137  CD1      -23.6490    0.1970   47.5340 C.ar  363  PHE363     -0.0042
    138  CD2      -21.3050    0.6270   47.4460 C.ar  363  PHE363     -0.0042
    139  CE1      -23.4340   -0.7920   48.4780 C.ar  363  PHE363     -0.0003
    140  CE2      -21.0840   -0.3590   48.3910 C.ar  363  PHE363     -0.0003
    141  CZ       -22.1490   -1.0700   48.9060 C.ar  363  PHE363     -0.0000
    142  N        -27.7500   -2.7090   51.3430 N.3   377  MET377     -0.1245
    143  CA       -26.9850   -3.6380   50.5190 C.3   377  MET377      0.1570
    144  C        -27.9270   -4.5430   49.7280 C.2   377  MET377      0.2261
    145  O        -27.6320   -4.9250   48.5940 O.2   377  MET377     -0.2867
    146  CB       -26.0400   -4.4800   51.3810 C.3   377  MET377      0.0387
    147  CG       -25.1720   -5.4450   50.5870 C.3   377  MET377      0.0595
    148  SD       -23.9630   -4.6240   49.5240 S.3   377  MET377     -0.1393
    149  CE       -22.7510   -4.0990   50.7350 C.3   377  MET377      0.0692
    150  N        -29.3970   -2.2710   46.8840 N.3   380  SER380     -0.1202
    151  CA       -28.3530   -1.9230   45.9260 C.3   380  SER380      0.2020
    152  C        -28.0590   -3.0680   44.9610 C.2   380  SER380      0.2618
    153  O        -28.0150   -2.8730   43.7460 O.2   380  SER380     -0.2717
    154  CB       -27.0730   -1.5160   46.6600 C.3   380  SER380      0.2103
    155  OG       -26.0740   -1.0970   45.7480 O.3   380  SER380     -0.2182
    156  N        -27.8620   -4.2620   45.5100 N.am  381  VAL381     -0.1979
    157  CA       -27.5680   -5.4370   44.6990 C.3   381  VAL381      0.1595
    158  C        -28.7690   -5.8270   43.8410 C.2   381  VAL381      0.2287
    159  O        -28.6180   -6.1850   42.6740 O.2   381  VAL381     -0.2864
    160  CB       -27.1290   -6.6310   45.5740 C.3   381  VAL381      0.0276
    161  CG1      -26.9740   -7.8870   44.7330 C.3   381  VAL381      0.0022
    162  CG2      -25.8260   -6.3090   46.2870 C.3   381  VAL381      0.0022
    163  N        -29.1860   -2.9860   40.7700 N.3   384  SER384     -0.1202
    164  CA       -28.2630   -3.1210   39.6460 C.3   384  SER384      0.2020
    165  C        -28.3990   -4.4640   38.9260 C.2   384  SER384      0.2618
    166  O        -28.0230   -4.5900   37.7590 O.2   384  SER384     -0.2717
    167  CB       -26.8210   -2.9000   40.1100 C.3   384  SER384      0.2103
    168  OG       -26.5750   -3.5850   41.3220 O.3   384  SER384     -0.2182
    169  N        -28.9350   -5.4610   39.6230 N.am  385  ALA385     -0.1979
    170  CA       -29.2330   -6.7500   39.0080 C.3   385  ALA385      0.1597
    171  C        -30.4960   -6.6500   38.1570 C.2   385  ALA385      0.2287
    172  O        -30.5990   -7.2780   37.1020 O.2   385  ALA385     -0.2864
    173  CB       -29.3970   -7.8220   40.0710 C.3   385  ALA385      0.0319
    174  N        -29.7190   -4.6720   34.8410 N.3   388  ALA388     -0.1245
    175  CA       -29.0490   -5.5200   33.8620 C.3   388  ALA388      0.1562
    176  C        -30.0310   -6.5090   33.2450 C.2   388  ALA388      0.2260
    177  O        -29.8890   -6.9040   32.0870 O.2   388  ALA388     -0.2867
    178  CB       -27.8840   -6.2560   34.5040 C.3   388  ALA388      0.0290
@<TRIPOS>BOND
     1   177   176    2
     2    51    50    2
     3   176   175    1
     4    45    44    2
     5    97    96    2
     6   175   178    1
     7   175   174    1
     8    50    49    1
     9    49    48    1
    10    49    52    1
    11    96    95    1
    12    44    48   am
    13    44    43    1
    14    54    56   ar
    15    54    53   ar
    16    12    10    1
    17    43    46    1
    18    43    42    1
    19    95    94    1
    20    95    98    1
    21    52    53    1
    22   107   106    1
    23    56    58   ar
    24   102   103    1
    25    46    47    1
    26    53    55   ar
    27   100    98    1
    28   106   103    1
    29   106   108    1
    30    10     9    1
    31    98    99    1
    32   103   104    1
    33   172   171    2
    34    58    59    1
    35    58    57   ar
    36    99   101    1
    37    55    57   ar
    38     9    11    1
    39     9     6    1
    40   104   105    2
    41     1     2    1
    42   166   165    2
    43    38    37    2
    44   171   170    1
    45     5     6    1
    46     5     3   am
    47     2     3    1
    48     6     7    1
    49    89    88    2
    50   165   169   am
    51   165   164    1
    52   170   169    1
    53   170   173    1
    54     3     4    2
    55    37    36    1
    56   116   114    1
    57   164   167    1
    58   164   163    1
    59    32    31    2
    60     7     8    2
    61    88    87    1
    62   109   110    1
    63   114   113    1
    64   167   168    1
    65    36    39    1
    66    36    35    1
    67   113   110    1
    68   113   115    1
    69    87    86    1
    70    87    90    1
    71    31    35   am
    72    31    30    1
    73    39    40    1
    74   121   122    1
    75   121   118    1
    76   110   111    1
    77    35    41    1
    78    92    91    2
    79   117   111   am
    80   117   118    1
    81    90    91    1
    82   122   123   ar
    83   122   124   ar
    84    30    33    1
    85    30    29    1
    86   111   112    2
    87    91    93   am
    88   118   119    1
    89   127   124   ar
    90   127   129   ar
    91   123   125   ar
    92   124   126   ar
    93    40    41    1
    94   129   130   ar
    95   125   126   ar
    96    33    34    1
    97   159   158    2
    98   119   120    2
    99   126   128   ar
   100    13    14    1
   101   130   128   ar
   102    14    15    1
   103    28    27    2
   104    81    80    2
   105   153   152    2
   106   158   157    1
   107    15    16    2
   108    74    73    2
   109    27    26    1
   110    80    79    1
   111   157   156    1
   112   157   160    1
   113   161   160    1
   114   152   156   am
   115   152   151    1
   116    73    72    1
   117    73    78   am
   118   131   132    1
   119   160   162    1
   120    79    78    1
   121    79    82    1
   122    84    83    1
   123    20    19    2
   124   155   154    1
   125    26    25    1
   126   151   154    1
   127   151   150    1
   128   135   132    1
   129   135   136    1
   130    72    75    1
   131    72    71    1
   132    83    82    1
   133    83    85    1
   134    19    25   am
   135    19    18    1
   136   132   133    1
   137    75    76    1
   138   136   138   ar
   139   136   137   ar
   140    71    77    1
   141    18    17    1
   142    18    21    1
   143   138   140   ar
   144   137   139   ar
   145   133   134    2
   146    23    21    1
   147    76    77    1
   148   140   141   ar
   149   139   141   ar
   150    21    22    1
   151   145   144    2
   152    67    66    2
   153    22    24    1
   154   148   147    1
   155   148   149    1
   156   144   143    1
   157    66    65    1
   158   143   142    1
   159   143   146    1
   160   147   146    1
   161    69    68    1
   162    65    68    1
   163    65    64    1
   164    63    62    2
   165    68    70    1
   166    64    62   am
   167    62    61    1
   168    61    60    1
