@<TRIPOS>MOLECULE
tmp/4oojB03.pdb
 90 84 0 0 0
SMALL
GASTEIGER

@<TRIPOS>ATOM
      1  N        -24.4390   66.2990   39.5380 N.3    18  TYR18      -0.1241
      2  CA       -25.0690   66.4900   38.2250 C.3    18  TYR18       0.1605
      3  C        -26.2130   65.6080   37.9240 C.2    18  TYR18       0.2264
      4  O        -26.7540   65.6940   36.8430 O.2    18  TYR18      -0.2867
      5  CB       -24.0700   66.2930   37.0660 C.3    18  TYR18       0.0534
      6  CG       -22.7570   67.0220   37.2650 C.ar   18  TYR18      -0.0201
      7  CD1      -22.7220   68.3860   37.5110 C.ar   18  TYR18      -0.0009
      8  CD2      -21.5370   66.3290   37.2120 C.ar   18  TYR18      -0.0009
      9  CE1      -21.4850   69.0640   37.6800 C.ar   18  TYR18       0.0417
     10  CE2      -20.3200   66.9860   37.3770 C.ar   18  TYR18       0.0417
     11  CZ       -20.2970   68.3410   37.6060 C.ar   18  TYR18       0.1957
     12  OH       -19.0780   68.9340   37.7360 O.3    18  TYR18      -0.2866
     13  N        -21.8260   78.4570   39.1400 N.3    35  GLY35      -0.1225
     14  CA       -22.1930   78.1070   40.5010 C.3    35  GLY35       0.1811
     15  C        -23.1500   79.1080   41.0570 C.2    35  GLY35       0.2280
     16  O        -23.0890   80.2830   40.6800 O.2    35  GLY35      -0.2866
     17  N        -22.4080   82.9050   41.1730 N.3    41  LEU41      -0.1245
     18  CA       -21.2570   83.3380   41.9370 C.3    41  LEU41       0.1561
     19  C        -20.0720   83.4600   41.0430 C.2    41  LEU41       0.2260
     20  O        -19.0870   84.0060   41.4390 O.2    41  LEU41      -0.2867
     21  CB       -20.9610   82.3200   43.0560 C.3    41  LEU41       0.0270
     22  CG       -22.2000   81.9730   43.9290 C.3    41  LEU41       0.0019
     23  CD1      -22.1790   80.5220   44.6460 C.3    41  LEU41       0.0001
     24  CD2      -22.4050   83.1260   44.9530 C.3    41  LEU41       0.0001
     25  N        -15.9060   77.9040   34.6850 N.3    49  VAL49      -0.1231
     26  CA       -15.3590   76.9430   35.6300 C.3    49  VAL49       0.1692
     27  C        -16.2000   75.6830   35.8300 C.2    49  VAL49       0.2591
     28  O        -15.6980   74.5650   35.7920 O.2    49  VAL49      -0.2718
     29  CB       -15.0890   77.6210   36.9860 C.3    49  VAL49       0.0266
     30  CG1      -15.0840   76.6360   38.1120 C.3    49  VAL49       0.0020
     31  CG2      -13.7300   78.2650   36.9100 C.3    49  VAL49       0.0020
     32  N        -17.4870   75.8470   35.9970 N.am   50  GLU50      -0.1979
     33  CA       -18.3640   74.6960   36.1210 C.3    50  GLU50       0.1602
     34  C        -18.2930   73.7850   34.8960 C.2    50  GLU50       0.2287
     35  O        -18.1650   72.5840   35.0300 O.2    50  GLU50      -0.2864
     36  CB       -19.7610   75.1560   36.4200 C.3    50  GLU50       0.0415
     37  CG       -19.8700   75.7410   37.8240 C.3    50  GLU50       0.1163
     38  CD       -19.6610   74.7120   38.9240 C.2    50  GLU50       0.3649
     39  OE1      -19.7780   73.4880   38.6450 O.co2  50  GLU50      -0.2457
     40  OE2      -19.3830   75.1400   40.0740 O.co2  50  GLU50      -0.2457
     41  N        -15.1160   71.7590   34.7550 N.3    53  THR53      -0.1218
     42  CA       -15.1270   70.6020   35.6150 C.3    53  THR53       0.1862
     43  C        -16.0560   69.5160   35.0420 C.2    53  THR53       0.2287
     44  O        -15.6800   68.3250   34.9980 O.2    53  THR53      -0.2866
     45  CB       -15.5900   71.0020   37.0010 C.3    53  THR53       0.1770
     46  OG1      -14.7190   72.0160   37.5160 O.3    53  THR53      -0.2211
     47  CG2      -15.6530   69.7940   37.9370 C.3    53  THR53       0.0375
     48  N         -9.5730   72.1530   42.6250 N.3    60  HIS60      -0.1241
     49  CA       -10.0310   73.3690   43.3410 C.3    60  HIS60       0.1621
     50  C         -9.6630   73.3790   44.8180 C.2    60  HIS60       0.2264
     51  O         -9.9900   72.4230   45.5790 O.2    60  HIS60      -0.2867
     52  CB       -11.5360   73.5330   43.2020 C.3    60  HIS60       0.0745
     53  CG       -11.9260   74.4180   42.0540 C.ar   60  HIS60       0.0817
     54  ND1      -11.8660   75.8010   42.1150 N.ar   60  HIS60      -0.2268
     55  CD2      -12.3540   74.1090   40.8130 C.ar   60  HIS60       0.1154
     56  CE1      -12.2550   76.2960   40.9580 C.ar   60  HIS60       0.1986
     57  NE2      -12.5610   75.2910   40.1530 N.ar   60  HIS60      -0.2212
     58  N        -11.8470   67.6800   41.6260 N.3    65  LYS65      -0.1245
     59  CA       -13.2090   67.4250   41.2080 C.3    65  LYS65       0.1561
     60  C        -13.1780   66.6260   39.9130 C.2    65  LYS65       0.2260
     61  O        -12.3760   66.8930   39.0420 O.2    65  LYS65      -0.2867
     62  CB       -13.9310   68.7500   41.0220 C.3    65  LYS65       0.0271
     63  CG       -14.1160   69.6000   42.3650 C.3    65  LYS65       0.0035
     64  CD       -15.0570   68.8770   43.3570 C.3    65  LYS65       0.0206
     65  CE       -16.0580   69.8300   44.0920 C.3    65  LYS65       0.1093
     66  NZ       -15.6290   70.2950   45.4810 N.3    65  LYS65      -0.1314
     67  N        -27.9620   71.4780   43.3550 N.3   462  GLN462     -0.1231
     68  CA       -26.6750   71.1980   44.0110 C.3   462  GLN462      0.1698
     69  C        -25.8060   72.3940   44.0340 C.2   462  GLN462      0.2593
     70  O        -24.5830   72.3020   43.9600 O.2   462  GLN462     -0.2718
     71  CB       -25.9770   69.9810   43.3630 C.3   462  GLN462      0.0381
     72  CG       -26.8430   68.6760   43.4360 C.3   462  GLN462      0.0905
     73  CD       -26.1390   67.4820   42.8410 C.2   462  GLN462      0.2608
     74  OE1      -25.3070   67.6370   41.9360 O.2   462  GLN462     -0.2717
     75  NE2      -26.4370   66.2880   43.3520 N.am  462  GLN462     -0.0878
     76  N        -26.4180   73.5570   44.1650 N.am  463  GLY463     -0.1942
     77  CA       -25.6450   74.7930   44.1830 C.3   463  GLY463      0.2014
     78  C        -25.0420   75.1490   42.8460 C.2   463  GLY463      0.2638
     79  O        -24.0570   75.8640   42.8100 O.2   463  GLY463     -0.2714
     80  N        -25.6480   74.6530   41.7610 N.am  464  ARG464     -0.1977
     81  CA       -25.3560   75.0740   40.3740 C.3   464  ARG464      0.1597
     82  C        -26.6070   75.5540   39.6520 C.2   464  ARG464      0.2287
     83  O        -27.7090   75.0270   39.8710 O.2   464  ARG464     -0.2864
     84  CB       -24.8070   73.9150   39.5640 C.3   464  ARG464      0.0334
     85  CG       -23.5260   73.4180   40.1080 C.3   464  ARG464      0.0492
     86  CD       -23.0870   72.1810   39.4780 C.3   464  ARG464      0.2205
     87  NE       -22.1000   71.5140   40.3290 N.pl3 464  ARG464     -0.0865
     88  CZ       -22.3100   70.3950   41.0260 C.cat 464  ARG464      0.5346
     89  NH1      -23.4890   69.7830   41.0520 N.pl3 464  ARG464      0.1354
     90  NH2      -21.3260   69.8910   41.7380 N.pl3 464  ARG464      0.1354
@<TRIPOS>BOND
     1    25    26    1
     2    41    42    1
     3    34    35    2
     4    34    33    1
     5    44    43    2
     6    43    42    1
     7    42    45    1
     8    26    27    1
     9    26    29    1
    10    28    27    2
    11    27    32   am
    12    32    33    1
    13    33    36    1
    14    36    37    1
    15     4     3    2
    16    31    29    1
    17    29    30    1
    18    45    46    1
    19    45    47    1
    20     5     6    1
    21     5     2    1
    22     8     6   ar
    23     8    10   ar
    24     6     7   ar
    25    10    11   ar
    26     7     9   ar
    27    11     9   ar
    28    11    12    1
    29    37    38    1
    30     3     2    1
    31     2     1    1
    32    39    38   ar
    33    38    40   ar
    34    61    60    2
    35    13    14    1
    36    86    85    1
    37    86    87    1
    38    84    85    1
    39    84    81    1
    40    82    83    2
    41    82    81    1
    42    60    59    1
    43    57    55   ar
    44    57    56   ar
    45    87    88    2
    46    81    80    1
    47    14    15    1
    48    16    15    2
    49    55    53   ar
    50    56    54   ar
    51    62    59    1
    52    62    63    1
    53    88    89    1
    54    88    90    1
    55    19    20    2
    56    19    18    1
    57    17    18    1
    58    59    58    1
    59    80    78   am
    60    74    73    2
    61    18    21    1
    62    53    54   ar
    63    53    52    1
    64    63    64    1
    65    48    49    1
    66    79    78    2
    67    73    75   am
    68    73    72    1
    69    78    77    1
    70    21    22    1
    71    52    49    1
    72    49    50    1
    73    67    68    1
    74    64    65    1
    75    71    72    1
    76    71    68    1
    77    22    23    1
    78    22    24    1
    79    70    69    2
    80    68    69    1
    81    69    76   am
    82    65    66    1
    83    76    77    1
    84    50    51    2
