@<TRIPOS>MOLECULE
tmp/4oolA00.pdb
 213 208 0 0 0
SMALL
GASTEIGER

@<TRIPOS>ATOM
      1  N         22.4460    8.7280    9.6350 N.3   239  GLU239     -0.1245
      2  CA        22.3240    8.7260   11.0860 C.3   239  GLU239      0.1567
      3  C         23.7090    9.0770   11.6190 C.2   239  GLU239      0.2260
      4  O         24.6910    8.4240   11.2360 O.2   239  GLU239     -0.2867
      5  CB        21.7920    7.3920   11.6120 C.3   239  GLU239      0.0388
      6  CG        20.3330    7.1990   11.2500 C.3   239  GLU239      0.1160
      7  CD        19.8790    5.7580   11.2930 C.2   239  GLU239      0.3649
      8  OE1       20.5900    4.8890   10.7360 O.co2 239  GLU239     -0.2457
      9  OE2       18.7950    5.5000   11.8640 O.co2 239  GLU239     -0.2457
     10  N         25.0610    8.8880   14.5020 N.3   241  GLY241     -0.1210
     11  CA        25.5470    7.9710   15.5190 C.3   241  GLY241      0.1956
     12  C         26.2200    8.6650   16.6770 C.2   241  GLY241      0.2612
     13  O         25.6940    9.6530   17.2030 O.2   241  GLY241     -0.2717
     14  N         27.4060    8.1590   17.0660 N.am  242  SER242     -0.1952
     15  CA        28.1840    8.6510   18.2190 C.3   242  SER242      0.1924
     16  C         28.7470   10.0630   18.1010 C.2   242  SER242      0.2314
     17  O         29.1550   10.6160   19.1280 O.2   242  SER242     -0.2863
     18  CB        29.2820    7.6700   18.6090 C.3   242  SER242      0.2116
     19  OG        28.7980    6.3380   18.5780 O.3   242  SER242     -0.2180
     20  N         12.8140   -3.1000   23.3790 N.3   276  TYR276     -0.1227
     21  CA        14.0580   -2.6920   22.7510 C.3   276  TYR276      0.1736
     22  C         15.3080   -2.8990   23.6090 C.2   276  TYR276      0.2596
     23  O         15.2790   -2.6880   24.8170 O.2   276  TYR276     -0.2718
     24  CB        13.9190   -1.2210   22.3010 C.3   276  TYR276      0.0548
     25  CG        15.1050   -0.6550   21.5490 C.ar  276  TYR276     -0.0200
     26  CD1       15.2500   -0.8600   20.1800 C.ar  276  TYR276     -0.0009
     27  CD2       16.0620    0.1250   22.2000 C.ar  276  TYR276     -0.0009
     28  CE1       16.3400   -0.3340   19.4820 C.ar  276  TYR276      0.0417
     29  CE2       17.1490    0.6630   21.5120 C.ar  276  TYR276      0.0417
     30  CZ        17.2890    0.4240   20.1540 C.ar  276  TYR276      0.1957
     31  OH        18.3600    0.9550   19.4700 O.3   276  TYR276     -0.2866
     32  N         16.4210   -3.2660   22.9590 N.am  277  THR277     -0.1953
     33  CA        17.7240   -3.3980   23.6080 C.3   277  THR277      0.1897
     34  C         18.7990   -2.4450   23.0540 C.2   277  THR277      0.2313
     35  O         19.1200   -2.4810   21.8620 O.2   277  THR277     -0.2863
     36  CB        18.1660   -4.8650   23.8430 C.3   277  THR277      0.1794
     37  OG1       19.3690   -4.8640   24.6190 O.3   277  THR277     -0.2208
     38  CG2       18.3870   -5.6500   22.5560 C.3   277  THR277      0.0378
     39  N         22.4710   -1.5080   22.5970 N.3   279  ARG279     -0.1231
     40  CA        23.6540   -2.3360   22.5340 C.3   279  ARG279      0.1694
     41  C         24.9170   -1.5390   22.2570 C.2   279  ARG279      0.2592
     42  O         24.9610   -0.7200   21.3280 O.2   279  ARG279     -0.2718
     43  CB        23.4390   -3.4550   21.4980 C.3   279  ARG279      0.0321
     44  CG        24.5470   -4.4950   21.4370 C.3   279  ARG279      0.0489
     45  CD        24.3090   -5.4790   20.3120 C.3   279  ARG279      0.2205
     46  NE        25.2260   -6.6180   20.3970 N.pl3 279  ARG279     -0.0865
     47  CZ        25.0370   -7.6860   21.1710 C.cat 279  ARG279      0.5346
     48  NH1       23.9600   -7.7740   21.9450 N.pl3 279  ARG279      0.1354
     49  NH2       25.9240   -8.6710   21.1790 N.pl3 279  ARG279      0.1354
     50  N         25.9570   -1.7720   23.0730 N.am  280  ASP280     -0.1960
     51  CA        27.2480   -1.1140   22.8720 C.3   280  ASP280      0.1840
     52  C         28.0530   -1.8930   21.8570 C.2   280  ASP280      0.2622
     53  O         27.8750   -3.1140   21.7230 O.2   280  ASP280     -0.2715
     54  CB        28.0060   -0.9700   24.1930 C.3   280  ASP280      0.1450
     55  CG        27.5210    0.1880   25.0390 C.2   280  ASP280      0.3671
     56  OD1       26.6190    0.9340   24.5720 O.co2 280  ASP280     -0.2456
     57  OD2       28.0720    0.3820   26.1480 O.co2 280  ASP280     -0.2456
     58  N         28.8870   -1.1970   21.0960 N.am  281  VAL281     -0.1963
     59  CA        29.6900   -1.8430   20.0660 C.3   281  VAL281      0.1727
     60  C         30.8000   -2.7300   20.6930 C.2   281  VAL281      0.2617
     61  O         30.9780   -3.8870   20.2800 O.2   281  VAL281     -0.2715
     62  CB        30.1370   -0.8520   18.9580 C.3   281  VAL281      0.0290
     63  CG1       31.0450    0.2370   19.5230 C.3   281  VAL281      0.0023
     64  CG2       30.7890   -1.5720   17.7830 C.3   281  VAL281      0.0023
     65  N         31.4420   -2.2180   21.7610 N.am  282  SER282     -0.1936
     66  CA        32.4610   -2.9040   22.5620 C.3   282  SER282      0.2055
     67  C         31.7910   -3.1310   23.9130 C.2   282  SER282      0.2642
     68  O         31.2590   -2.1820   24.4900 O.2   282  SER282     -0.2714
     69  CB        33.7040   -2.0200   22.7040 C.3   282  SER282      0.2130
     70  OG        34.5190   -2.3620   23.8200 O.3   282  SER282     -0.2179
     71  N         31.7060   -4.3770   24.3740 N.am  283  ARG283     -0.1977
     72  CA        30.9920   -4.6110   25.6350 C.3   283  ARG283      0.1597
     73  C         31.8970   -5.1780   26.7390 C.2   283  ARG283      0.2287
     74  O         31.6210   -6.2480   27.3030 O.2   283  ARG283     -0.2864
     75  CB        29.6990   -5.4310   25.3960 C.3   283  ARG283      0.0334
     76  CG        28.7830   -4.8290   24.3300 C.3   283  ARG283      0.0492
     77  CD        27.6720   -5.7500   23.8320 C.3   283  ARG283      0.2205
     78  NE        28.1820   -6.9670   23.1930 N.pl3 283  ARG283     -0.0865
     79  CZ        28.6220   -7.0490   21.9390 C.cat 283  ARG283      0.5346
     80  NH1       28.6090   -5.9780   21.1490 N.pl3 283  ARG283      0.1354
     81  NH2       29.0730   -8.2020   21.4620 N.pl3 283  ARG283      0.1354
     82  N         35.0110    8.0790   24.8000 N.3   295  ILE295     -0.1231
     83  CA        36.1510    7.2670   24.3270 C.3   295  ILE295      0.1692
     84  C         35.6970    5.8840   23.8420 C.2   295  ILE295      0.2592
     85  O         36.1050    5.4550   22.7600 O.2   295  ILE295     -0.2718
     86  CB        37.3010    7.1500   25.3810 C.3   295  ILE295      0.0266
     87  CG1       38.0590    8.4750   25.5190 C.3   295  ILE295      0.0019
     88  CG2       38.2810    5.9990   25.0290 C.3   295  ILE295      0.0020
     89  CD1       38.6820    8.7140   26.9300 C.3   295  ILE295      0.0001
     90  N         34.8400    5.2080   24.6390 N.am  296  LYS296     -0.1966
     91  CA        34.3420    3.8560   24.3540 C.3   296  LYS296      0.1728
     92  C         33.0680    3.8750   23.5290 C.2   296  LYS296      0.2616
     93  O         32.5420    2.8040   23.2000 O.2   296  LYS296     -0.2715
     94  CB        34.1110    3.0910   25.6780 C.3   296  LYS296      0.0311
     95  CG        35.3600    2.9520   26.5640 C.3   296  LYS296      0.0038
     96  CD        36.1610    1.7090   26.2230 C.3   296  LYS296      0.0206
     97  CE        37.5220    1.7100   26.8690 C.3   296  LYS296      0.1093
     98  NZ        38.4800    2.5980   26.1490 N.3   296  LYS296     -0.1314
     99  N         32.5580    5.0990   23.1940 N.am  297  SER297     -0.1950
    100  CA        31.3230    5.3180   22.4230 C.3   297  SER297      0.1924
    101  C         30.1530    4.5080   23.0340 C.2   297  SER297      0.2314
    102  O         29.4410    3.8000   22.3280 O.2   297  SER297     -0.2863
    103  CB        31.5410    4.9630   20.9540 C.3   297  SER297      0.2116
    104  OG        31.5780    6.1480   20.1890 O.3   297  SER297     -0.2180
    105  N         26.7340    3.6730   24.0460 N.3   299  ASN299     -0.1240
    106  CA        25.3340    4.0150   23.7710 C.3   299  ASN299      0.1653
    107  C         24.5290    3.8600   25.0540 C.2   299  ASN299      0.2266
    108  O         23.6950    4.7040   25.3540 O.2   299  ASN299     -0.2867
    109  CB        24.7510    3.1290   22.6720 C.3   299  ASN299      0.1155
    110  CG        25.4030    3.2690   21.3240 C.2   299  ASN299      0.2627
    111  OD1       25.8700    4.3480   20.9320 O.2   299  ASN299     -0.2716
    112  ND2       25.3800    2.1850   20.5460 N.am  299  ASN299     -0.0877
    113  N         22.2540    8.8000   21.4140 N.3   355  TYR355     -0.1227
    114  CA        23.3360    8.1730   20.6710 C.3   355  TYR355      0.1736
    115  C         23.2950    8.2580   19.1440 C.2   355  TYR355      0.2596
    116  O         24.0510    7.5430   18.4920 O.2   355  TYR355     -0.2718
    117  CB        23.6860    6.7740   21.2160 C.3   355  TYR355      0.0548
    118  CG        22.6320    5.7010   21.0670 C.ar  355  TYR355     -0.0200
    119  CD1       21.9280    5.2340   22.1720 C.ar  355  TYR355     -0.0009
    120  CD2       22.4280    5.0570   19.8450 C.ar  355  TYR355     -0.0009
    121  CE1       21.0160    4.1820   22.0620 C.ar  355  TYR355      0.0417
    122  CE2       21.5000    4.0220   19.7180 C.ar  355  TYR355      0.0417
    123  CZ        20.8210    3.5630   20.8400 C.ar  355  TYR355      0.1957
    124  OH        19.9020    2.5400   20.7430 O.3   355  TYR355     -0.2866
    125  N         22.4620    9.1500   18.5910 N.am  356  GLY356     -0.1942
    126  CA        22.4150    9.4390   17.1560 C.3   356  GLY356      0.2014
    127  C         21.7190    8.4720   16.2240 C.2   356  GLY356      0.2638
    128  O         22.0170    8.4510   15.0300 O.2   356  GLY356     -0.2714
    129  N         20.7870    7.6720   16.7480 N.am  357  TYR357     -0.1973
    130  CA        19.9930    6.7580   15.9390 C.3   357  TYR357      0.1639
    131  C         18.5980    7.4090   15.7450 C.2   357  TYR357      0.2290
    132  O         18.1540    8.2050   16.5690 O.2   357  TYR357     -0.2864
    133  CB        19.9660    5.3430   16.5660 C.3   357  TYR357      0.0560
    134  CG        19.2250    4.2990   15.7550 C.ar  357  TYR357     -0.0198
    135  CD1       17.9890    3.8110   16.1720 C.ar  357  TYR357     -0.0009
    136  CD2       19.7640    3.7840   14.5770 C.ar  357  TYR357     -0.0009
    137  CE1       17.3010    2.8490   15.4320 C.ar  357  TYR357      0.0417
    138  CE2       19.0840    2.8220   13.8270 C.ar  357  TYR357      0.0417
    139  CZ        17.8510    2.3550   14.2600 C.ar  357  TYR357      0.1957
    140  OH        17.1550    1.4170   13.5230 O.3   357  TYR357     -0.2866
    141  N         35.3060   13.4990   17.7620 N.3   432  LYS432     -0.1231
    142  CA        34.5100   12.3140   18.0420 C.3   432  LYS432      0.1693
    143  C         34.3370   11.4980   16.7730 C.2   432  LYS432      0.2593
    144  O         34.0420   12.0530   15.7280 O.2   432  LYS432     -0.2718
    145  CB        33.1370   12.7560   18.6080 C.3   432  LYS432      0.0285
    146  CG        32.2280   11.6150   19.0940 C.3   432  LYS432      0.0035
    147  CD        32.5680   11.0900   20.5050 C.3   432  LYS432      0.0206
    148  CE        32.0130    9.7020   20.7680 C.3   432  LYS432      0.1093
    149  NZ        32.5790    8.6630   19.8310 N.3   432  LYS432     -0.1314
    150  N         34.5460   10.1780   16.8540 N.am  433  SER433     -0.1938
    151  CA        34.3190    9.2930   15.7180 C.3   433  SER433      0.2055
    152  C         32.8960    8.7400   15.7840 C.2   433  SER433      0.2644
    153  O         32.2150    8.8330   16.8190 O.2   433  SER433     -0.2714
    154  CB        35.3240    8.1360   15.6870 C.3   433  SER433      0.2130
    155  OG        35.1270    7.2650   16.7890 O.3   433  SER433     -0.2179
    156  N         32.4750    8.1540   14.6800 N.am  434  GLY434     -0.1939
    157  CA        31.1830    7.5080   14.5600 C.3   434  GLY434      0.2014
    158  C         31.2280    6.4000   13.5320 C.2   434  GLY434      0.2640
    159  O         31.9620    6.4850   12.5420 O.2   434  GLY434     -0.2714
    160  N         30.4370    5.3620   13.7560 N.am  435  THR435     -0.1936
    161  CA        30.2860    4.2340   12.8300 C.3   435  THR435      0.2028
    162  C         28.7970    3.9320   12.7480 C.2   435  THR435      0.2642
    163  O         28.2360    3.3620   13.6790 O.2   435  THR435     -0.2714
    164  CB        31.0960    3.0160   13.2910 C.3   435  THR435      0.1808
    165  OG1       32.4420    3.4080   13.5490 O.3   435  THR435     -0.2208
    166  CG2       31.0560    1.8590   12.2850 C.3   435  THR435      0.0379
    167  N         28.1560    4.3670   11.6660 N.am  436  ALA436     -0.1963
    168  CA        26.7430    4.1080   11.4080 C.3   436  ALA436      0.1728
    169  C         26.5250    2.8730   10.4820 C.2   436  ALA436      0.2616
    170  O         26.8970    2.9070    9.3020 O.2   436  ALA436     -0.2715
    171  CB        26.0900    5.3410   10.8000 C.3   436  ALA436      0.0334
    172  N         25.9140    1.7940   11.0310 N.am  437  ARG437     -0.1977
    173  CA        25.5280    0.5670   10.3070 C.3   437  ARG437      0.1597
    174  C         24.3010    0.9320    9.4410 C.2   437  ARG437      0.2287
    175  O         23.3510    1.5230    9.9570 O.2   437  ARG437     -0.2864
    176  CB        25.1930   -0.5610   11.3180 C.3   437  ARG437      0.0334
    177  CG        25.0630   -1.9820   10.7270 C.3   437  ARG437      0.0492
    178  CD        24.6640   -3.0300   11.7750 C.3   437  ARG437      0.2205
    179  NE        25.7630   -3.3810   12.6870 N.pl3 437  ARG437     -0.0865
    180  CZ        25.7030   -4.3070   13.6470 C.cat 437  ARG437      0.5346
    181  NH1       24.5890   -5.0050   13.8420 N.pl3 437  ARG437      0.1354
    182  NH2       26.7610   -4.5470   14.4110 N.pl3 437  ARG437      0.1354
    183  N         28.5210   -0.0650    6.3210 N.3   441  TYR441     -0.1241
    184  CA        28.7900    0.9840    7.2940 C.3   441  TYR441      0.1605
    185  C         29.1990    2.3290    6.6760 C.2   441  TYR441      0.2264
    186  O         29.7550    2.3920    5.5710 O.2   441  TYR441     -0.2867
    187  CB        29.8910    0.5320    8.2810 C.3   441  TYR441      0.0534
    188  CG        29.5880   -0.7370    9.0480 C.ar  441  TYR441     -0.0201
    189  CD1       28.9590   -0.6930   10.2910 C.ar  441  TYR441     -0.0009
    190  CD2       29.9870   -1.9810    8.5620 C.ar  441  TYR441     -0.0009
    191  CE1       28.6910   -1.8580   11.0100 C.ar  441  TYR441      0.0417
    192  CE2       29.7250   -3.1550    9.2710 C.ar  441  TYR441      0.0417
    193  CZ        29.0790   -3.0900   10.4970 C.ar  441  TYR441      0.1957
    194  OH        28.8230   -4.2520   11.1940 O.3   441  TYR441     -0.2866
    195  N         35.4860    1.1120   11.4000 N.3   471  PHE471     -0.1227
    196  CA        35.1850    2.1180   12.4330 C.3   471  PHE471      0.1736
    197  C         35.6770    3.5110   12.0350 C.2   471  PHE471      0.2596
    198  O         36.7740    3.6390   11.4710 O.2   471  PHE471     -0.2718
    199  CB        35.7600    1.7390   13.8170 C.3   471  PHE471      0.0547
    200  CG        35.2850    0.4470   14.4500 C.ar  471  PHE471     -0.0202
    201  CD1       34.0280   -0.0780   14.1530 C.ar  471  PHE471     -0.0042
    202  CD2       36.0760   -0.2210   15.3810 C.ar  471  PHE471     -0.0042
    203  CE1       33.5950   -1.2770   14.7380 C.ar  471  PHE471     -0.0003
    204  CE2       35.6370   -1.4150   15.9720 C.ar  471  PHE471     -0.0003
    205  CZ        34.4030   -1.9400   15.6380 C.ar  471  PHE471     -0.0000
    206  N         34.8640    4.5250   12.3350 N.am  472  GLY472     -0.1942
    207  CA        35.1590    5.9340   12.0630 C.3   472  GLY472      0.2014
    208  C         36.5590    6.3850   12.4380 C.2   472  GLY472      0.2639
    209  O         37.2000    7.1140   11.6800 O.2   472  GLY472     -0.2714
    210  N         37.0380    5.8900   13.5790 N.am  473  GLY473     -0.1954
    211  CA        38.3580    6.1680   14.1350 C.3   473  GLY473      0.1869
    212  C         39.5100    5.4880   13.4300 C.2   473  GLY473      0.2309
    213  O         40.6640    5.8970   13.5870 O.2   473  GLY473     -0.2863
@<TRIPOS>BOND
     1   186   185    2
     2   183   184    1
     3   185   184    1
     4   184   187    1
     5   187   188    1
     6   190   188   ar
     7   190   192   ar
     8   188   189   ar
     9   192   193   ar
    10   170   169    2
    11   174   175    2
    12   174   173    1
    13     1     2    1
    14   189   191   ar
    15   173   172    1
    16   173   176    1
    17   169   172   am
    18   169   168    1
    19   193   191   ar
    20   193   194    1
    21   177   176    1
    22   177   178    1
    23     8     7   ar
    24   171   168    1
    25     2     5    1
    26     2     3    1
    27     4     3    2
    28     6     7    1
    29     6     5    1
    30     7     9   ar
    31   195   196    1
    32   168   167    1
    33   198   197    2
    34   167   162   am
    35   209   208    2
    36   178   179    1
    37   197   206   am
    38   197   196    1
    39   207   206    1
    40   207   208    1
    41   166   164    1
    42   196   199    1
    43   208   210   am
    44   159   158    2
    45   179   180    2
    46   162   161    1
    47   162   163    2
    48   161   164    1
    49   161   160    1
    50   164   165    1
    51   212   213    2
    52   212   211    1
    53   140   139    1
    54   158   160   am
    55   158   157    1
    56   210   211    1
    57   180   181    1
    58   180   182    1
    59   199   200    1
    60   138   139   ar
    61   138   136   ar
    62   201   200   ar
    63   201   203   ar
    64   139   137   ar
    65   200   202   ar
    66    10    11    1
    67   157   156    1
    68   136   134   ar
    69   156   152   am
    70   203   205   ar
    71   128   127    2
    72   202   204   ar
    73   137   135   ar
    74    11    12    1
    75   205   204   ar
    76   154   151    1
    77   154   155    1
    78   151   152    1
    79   151   150    1
    80   144   143    2
    81   131   130    1
    82   131   132    2
    83   134   135   ar
    84   134   133    1
    85   152   153    2
    86   130   133    1
    87   130   129    1
    88   127   129   am
    89   127   126    1
    90    12    14   am
    91    12    13    2
    92   143   150   am
    93   143   142    1
    94    14    15    1
    95   126   125    1
    96   141   142    1
    97    64    62    1
    98   142   145    1
    99    16    15    1
   100    16    17    2
   101    15    18    1
   102   116   115    2
   103    19    18    1
   104   125   115   am
   105   145   146    1
   106    62    63    1
   107    62    59    1
   108   146   147    1
   109   115   114    1
   110    31    30    1
   111    28    30   ar
   112    28    26   ar
   113   122   120   ar
   114   122   123   ar
   115   149   148    1
   116   120   118   ar
   117    59    60    1
   118    59    58    1
   119    30    29   ar
   120    26    25   ar
   121   104   103    1
   122    61    60    2
   123    45    46    1
   124    45    44    1
   125    46    47    2
   126   147   148    1
   127   112   110   am
   128   114   117    1
   129   114   113    1
   130    60    65   am
   131   124   123    1
   132   123   121   ar
   133   111   110    2
   134   103   100    1
   135   118   117    1
   136   118   119   ar
   137    58    52   am
   138    80    79    1
   139    47    49    1
   140    47    48    1
   141   110   109    1
   142    42    41    2
   143    44    43    1
   144    81    79    1
   145    43    40    1
   146    29    27   ar
   147    25    27   ar
   148    25    24    1
   149    53    52    2
   150    65    66    1
   151    52    51    1
   152    35    34    2
   153    79    78    2
   154   121   119   ar
   155    41    40    1
   156    41    50   am
   157    24    21    1
   158   102   101    2
   159   100   101    1
   160   100    99    1
   161    40    39    1
   162    38    36    1
   163    66    69    1
   164    66    67    1
   165   109   106    1
   166    69    70    1
   167    21    20    1
   168    21    22    1
   169    85    84    2
   170    51    50    1
   171    51    54    1
   172    32    33    1
   173    32    22   am
   174    34    33    1
   175    78    77    1
   176    99    92   am
   177    93    92    2
   178    92    91    1
   179    33    36    1
   180    22    23    2
   181   106   105    1
   182   106   107    1
   183    77    76    1
   184    84    83    1
   185    84    90   am
   186    36    37    1
   187    67    71   am
   188    67    68    2
   189    54    55    1
   190    83    82    1
   191    83    86    1
   192    76    75    1
   193    91    90    1
   194    91    94    1
   195    71    72    1
   196    56    55   ar
   197    88    86    1
   198    55    57   ar
   199   107   108    2
   200    86    87    1
   201    75    72    1
   202    87    89    1
   203    72    73    1
   204    94    95    1
   205    98    97    1
   206    96    95    1
   207    96    97    1
   208    73    74    2
