@<TRIPOS>MOLECULE
tmp/4oomA00.pdb
 170 164 0 0 0
SMALL
GASTEIGER

@<TRIPOS>ATOM
      1  N         11.9180   -7.8540    8.8300 N.3   238  GLU238     -0.1245
      2  CA        12.0010   -7.8680   10.2890 C.3   238  GLU238      0.1567
      3  C         10.6340   -8.2230   10.8390 C.2   238  GLU238      0.2260
      4  O          9.6660   -7.5430   10.5050 O.2   238  GLU238     -0.2867
      5  CB        12.5020   -6.5300   10.8330 C.3   238  GLU238      0.0388
      6  CG        13.9300   -6.2550   10.4060 C.3   238  GLU238      0.1160
      7  CD        14.3760   -4.8640   10.7770 C.2   238  GLU238      0.3649
      8  OE1       14.0200   -3.9180   10.0360 O.co2 238  GLU238     -0.2457
      9  OE2       15.0280   -4.7120   11.8360 O.co2 238  GLU238     -0.2457
     10  N          9.4430   -7.9600   13.7400 N.3   240  GLY240     -0.1210
     11  CA         8.9670   -7.0140   14.7470 C.3   240  GLY240      0.1956
     12  C          8.1960   -7.6520   15.8920 C.2   240  GLY240      0.2612
     13  O          8.5770   -8.7270   16.3660 O.2   240  GLY240     -0.2717
     14  N          7.0610   -7.0290   16.2990 N.am  241  SER241     -0.1952
     15  CA         6.2340   -7.4700   17.4400 C.3   241  SER241      0.1924
     16  C          5.7130   -8.8980   17.3740 C.2   241  SER241      0.2314
     17  O          5.2860   -9.4220   18.4120 O.2   241  SER241     -0.2863
     18  CB         5.0540   -6.5290   17.6620 C.3   241  SER241      0.2116
     19  OG         5.4870   -5.1820   17.7350 O.3   241  SER241     -0.2180
     20  N          7.4400  -11.3170   19.8420 N.3   244  LYS244     -0.1245
     21  CA         7.1770  -11.1730   21.3000 C.3   244  LYS244      0.1561
     22  C          6.6310  -12.4400   21.9620 C.2   244  LYS244      0.2260
     23  O          7.0620  -12.7540   23.0760 O.2   244  LYS244     -0.2867
     24  CB         6.2950   -9.9540   21.5930 C.3   244  LYS244      0.0271
     25  CG         7.0230   -8.6380   21.2920 C.3   244  LYS244      0.0035
     26  CD         6.1580   -7.4230   21.5490 C.3   244  LYS244      0.0206
     27  CE         6.9360   -6.1760   21.1380 C.3   244  LYS244      0.1093
     28  NZ         6.0630   -4.9980   21.0670 N.3   244  LYS244     -0.1314
     29  N          4.7390    2.5460   21.0310 N.3   280  VAL280     -0.1245
     30  CA         3.8100    3.3000   20.1870 C.3   280  VAL280      0.1561
     31  C          2.8240    4.0760   21.0830 C.2   280  VAL280      0.2260
     32  O          2.6730    5.2860   20.9450 O.2   280  VAL280     -0.2867
     33  CB         3.1090    2.4070   19.1120 C.3   280  VAL280      0.0252
     34  CG1        2.4120    1.1840   19.7300 C.3   280  VAL280      0.0019
     35  CG2        2.1350    3.2250   18.2640 C.3   280  VAL280      0.0019
     36  N          1.5200   -4.2670   23.1200 N.3   296  SER296     -0.1217
     37  CA         2.6930   -4.4910   22.2760 C.3   296  SER296      0.1889
     38  C          3.7970   -3.5420   22.7000 C.2   296  SER296      0.2288
     39  O          4.3090   -2.7460   21.9010 O.2   296  SER296     -0.2866
     40  CB         2.3650   -4.3640   20.7900 C.3   296  SER296      0.2089
     41  OG         3.3140   -5.1370   20.0750 O.3   296  SER296     -0.2183
     42  N          7.3560   -2.5580   23.5390 N.3   298  ASN298     -0.1240
     43  CA         8.7700   -2.8030   23.2540 C.3   298  ASN298      0.1653
     44  C          9.5400   -2.6270   24.5560 C.2   298  ASN298      0.2266
     45  O         10.4830   -3.3730   24.8520 O.2   298  ASN298     -0.2867
     46  CB         9.2630   -1.8070   22.1710 C.3   298  ASN298      0.1155
     47  CG         8.7470   -2.1190   20.7700 C.2   298  ASN298      0.2627
     48  OD1        8.3580   -3.2440   20.4490 O.2   298  ASN298     -0.2716
     49  ND2        8.6480   -1.1170   19.9200 N.am  298  ASN298     -0.0877
     50  N         12.1310   -7.7510   20.7090 N.3   354  TYR354     -0.1227
     51  CA        11.0240   -7.1510   19.9810 C.3   354  TYR354      0.1736
     52  C         11.0870   -7.2380   18.4610 C.2   354  TYR354      0.2596
     53  O         10.3590   -6.5160   17.7640 O.2   354  TYR354     -0.2718
     54  CB        10.5540   -5.7960   20.5330 C.3   354  TYR354      0.0548
     55  CG        11.5680   -4.6860   20.4870 C.ar  354  TYR354     -0.0200
     56  CD1       12.2400   -4.2840   21.6340 C.ar  354  TYR354     -0.0009
     57  CD2       11.7800   -3.9590   19.3190 C.ar  354  TYR354     -0.0009
     58  CE1       13.1320   -3.2190   21.6100 C.ar  354  TYR354      0.0417
     59  CE2       12.6520   -2.8770   19.2900 C.ar  354  TYR354      0.0417
     60  CZ        13.3070   -2.4970   20.4430 C.ar  354  TYR354      0.1957
     61  OH        14.1770   -1.4400   20.3950 O.3   354  TYR354     -0.2866
     62  N         11.9090   -8.1690   17.9770 N.am  355  GLY355     -0.1942
     63  CA        11.9780   -8.5480   16.5650 C.3   355  GLY355      0.2014
     64  C         12.6050   -7.5720   15.6090 C.2   355  GLY355      0.2638
     65  O         12.3600   -7.6380   14.4000 O.2   355  GLY355     -0.2714
     66  N         13.4370   -6.6850   16.1480 N.am  356  TYR356     -0.1973
     67  CA        14.1740   -5.7080   15.3860 C.3   356  TYR356      0.1639
     68  C         15.5530   -6.2960   15.0740 C.2   356  TYR356      0.2290
     69  O         16.1320   -6.9980   15.8920 O.2   356  TYR356     -0.2864
     70  CB        14.2770   -4.3910   16.1730 C.3   356  TYR356      0.0560
     71  CG        15.0220   -3.2940   15.4440 C.ar  356  TYR356     -0.0198
     72  CD1       16.3420   -2.9870   15.7660 C.ar  356  TYR356     -0.0009
     73  CD2       14.4020   -2.5460   14.4490 C.ar  356  TYR356     -0.0009
     74  CE1       17.0250   -1.9540   15.1210 C.ar  356  TYR356      0.0417
     75  CE2       15.0800   -1.5230   13.7840 C.ar  356  TYR356      0.0417
     76  CZ        16.3860   -1.2180   14.1370 C.ar  356  TYR356      0.1957
     77  OH        17.0660   -0.2220   13.4780 O.3   356  TYR356     -0.2866
     78  N         -1.0010  -12.3160   17.1090 N.3   431  LYS431     -0.1231
     79  CA        -0.2150  -11.1450   17.4280 C.3   431  LYS431      0.1693
     80  C          0.0530  -10.3540   16.1760 C.2   431  LYS431      0.2593
     81  O          0.4820  -10.9110   15.1560 O.2   431  LYS431     -0.2718
     82  CB         1.1190  -11.5840   18.0930 C.3   431  LYS431      0.0285
     83  CG         2.0140  -10.4130   18.5320 C.3   431  LYS431      0.0035
     84  CD         1.4090   -9.6020   19.6670 C.3   431  LYS431      0.0206
     85  CE         2.2260   -8.3640   20.0010 C.3   431  LYS431      0.1093
     86  NZ         2.0150   -7.2600   19.0280 N.3   431  LYS431     -0.1314
     87  N         -0.1500   -9.0490   16.2630 N.am  432  SER432     -0.1938
     88  CA         0.1010   -8.1760   15.1280 C.3   432  SER432      0.2055
     89  C          1.5390   -7.6620   15.1920 C.2   432  SER432      0.2644
     90  O          2.2160   -7.7720   16.2300 O.2   432  SER432     -0.2714
     91  CB        -0.9010   -7.0240   15.1260 C.3   432  SER432      0.2130
     92  OG        -0.7050   -6.2670   16.3070 O.3   432  SER432     -0.2179
     93  N          1.9990   -7.1340   14.0730 N.am  433  GLY433     -0.1939
     94  CA         3.3030   -6.5070   13.9780 C.3   433  GLY433      0.2014
     95  C          3.2760   -5.3920   12.9520 C.2   433  GLY433      0.2640
     96  O          2.4700   -5.4160   12.0200 O.2   433  GLY433     -0.2714
     97  N          4.1660   -4.4200   13.1110 N.am  434  THR434     -0.1936
     98  CA         4.3400   -3.3010   12.1910 C.3   434  THR434      0.2028
     99  C          5.8380   -3.0630   12.1410 C.2   434  THR434      0.2642
    100  O          6.4560   -2.7660   13.1680 O.2   434  THR434     -0.2714
    101  CB         3.5300   -2.0690   12.6360 C.3   434  THR434      0.1808
    102  OG1        2.1770   -2.4690   12.8930 O.3   434  THR434     -0.2208
    103  CG2        3.5330   -0.9710   11.5930 C.3   434  THR434      0.0379
    104  N          6.4290   -3.2840   10.9740 N.am  435  ALA435     -0.1963
    105  CA         7.8660   -3.1510   10.8000 C.3   435  ALA435      0.1728
    106  C          8.1990   -2.0400    9.8340 C.2   435  ALA435      0.2616
    107  O          7.9320   -2.1650    8.6300 O.2   435  ALA435     -0.2715
    108  CB         8.4640   -4.4720   10.3280 C.3   435  ALA435      0.0334
    109  N          8.7670   -0.9440   10.3710 N.am  436  ARG436     -0.1977
    110  CA         9.2120    0.2220    9.5970 C.3   436  ARG436      0.1597
    111  C         10.4330   -0.2490    8.8300 C.2   436  ARG436      0.2287
    112  O         11.3680   -0.7680    9.4360 O.2   436  ARG436     -0.2864
    113  CB         9.5680    1.4050   10.5280 C.3   436  ARG436      0.0334
    114  CG         9.4170    2.7730    9.8700 C.3   436  ARG436      0.0492
    115  CD        10.7450    3.5050    9.8140 C.3   436  ARG436      0.2205
    116  NE        10.9190    4.2350    8.5550 N.pl3 436  ARG436     -0.0865
    117  CZ        12.0530    4.8210    8.1740 C.cat 436  ARG436      0.5346
    118  NH1       13.1280    4.7720    8.9510 N.pl3 436  ARG436      0.1354
    119  NH2       12.1160    5.4660    7.0160 N.pl3 436  ARG436      0.1354
    120  N          7.5750    7.3710    5.0480 N.3   438  ASN438     -0.1240
    121  CA         7.8930    6.1860    5.8400 C.3   438  ASN438      0.1653
    122  C          7.1460    4.9590    5.3430 C.2   438  ASN438      0.2266
    123  O          5.9100    4.9500    5.3370 O.2   438  ASN438     -0.2867
    124  CB         7.6470    6.4330    7.3360 C.3   438  ASN438      0.1155
    125  CG         8.7370    7.2360    8.0100 C.2   438  ASN438      0.2627
    126  OD1        9.5720    6.6940    8.7390 O.2   438  ASN438     -0.2716
    127  ND2        8.7510    8.5510    7.7920 N.am  438  ASN438     -0.0877
    128  N          6.3320    0.7940    5.5280 N.3   440  TYR440     -0.1241
    129  CA         6.0900   -0.2420    6.5260 C.3   440  TYR440      0.1605
    130  C          5.6020   -1.5410    5.9040 C.2   440  TYR440      0.2264
    131  O          5.1020   -1.5520    4.7790 O.2   440  TYR440     -0.2867
    132  CB         4.9710    0.2190    7.4930 C.3   440  TYR440      0.0534
    133  CG         5.2170    1.5080    8.2480 C.ar  440  TYR440     -0.0201
    134  CD1        5.6350    1.4910    9.5750 C.ar  440  TYR440     -0.0009
    135  CD2        4.9080    2.7420    7.6810 C.ar  440  TYR440     -0.0009
    136  CE1        5.8280    2.6750   10.2910 C.ar  440  TYR440      0.0417
    137  CE2        5.0890    3.9330    8.3900 C.ar  440  TYR440      0.0417
    138  CZ         5.5430    3.8940    9.6980 C.ar  440  TYR440      0.1957
    139  OH         5.7200    5.0610   10.4040 O.3   440  TYR440     -0.2866
    140  N         -1.7970    1.7610    8.8590 N.3   469  TYR469     -0.1227
    141  CA        -0.6830    0.9100    8.4130 C.3   469  TYR469      0.1736
    142  C         -0.3480   -0.1920    9.4280 C.2   469  TYR469      0.2595
    143  O          0.2730   -1.1890    9.0540 O.2   469  TYR469     -0.2718
    144  CB         0.5690    1.7230    8.0180 C.3   469  TYR469      0.0548
    145  CG         1.1260    2.5980    9.1210 C.ar  469  TYR469     -0.0200
    146  CD1        1.9790    2.0760   10.0900 C.ar  469  TYR469     -0.0009
    147  CD2        0.8430    3.9610    9.1680 C.ar  469  TYR469     -0.0009
    148  CE1        2.4830    2.8720   11.1150 C.ar  469  TYR469      0.0417
    149  CE2        1.3700    4.7750   10.1690 C.ar  469  TYR469      0.0417
    150  CZ         2.1940    4.2260   11.1390 C.ar  469  TYR469      0.1957
    151  OH         2.7140    5.0160   12.1380 O.3   469  TYR469     -0.2866
    152  N         -0.7450   -0.0080   10.7100 N.am  470  PHE470     -0.1962
    153  CA        -0.5030   -0.9940   11.7650 C.3   470  PHE470      0.1771
    154  C         -1.0440   -2.3840   11.3960 C.2   470  PHE470      0.2620
    155  O         -2.0750   -2.4850   10.7140 O.2   470  PHE470     -0.2715
    156  CB        -1.0750   -0.5360   13.1200 C.3   470  PHE470      0.0574
    157  CG        -0.4250    0.6920   13.7200 C.ar  470  PHE470     -0.0200
    158  CD1        0.9090    0.6680   14.1260 C.ar  470  PHE470     -0.0042
    159  CD2       -1.1630    1.8530   13.9390 C.ar  470  PHE470     -0.0042
    160  CE1        1.5090    1.8020   14.6800 C.ar  470  PHE470     -0.0003
    161  CE2       -0.5630    2.9900   14.5000 C.ar  470  PHE470     -0.0003
    162  CZ         0.7680    2.9550   14.8660 C.ar  470  PHE470     -0.0000
    163  N         -0.3250   -3.4230   11.8440 N.am  471  GLY471     -0.1940
    164  CA        -0.6670   -4.8290   11.6410 C.3   471  GLY471      0.2014
    165  C         -2.0560   -5.1960   12.1240 C.2   471  GLY471      0.2639
    166  O         -2.7530   -5.9870   11.4870 O.2   471  GLY471     -0.2714
    167  N         -2.4690   -4.5620   13.2180 N.am  472  GLY472     -0.1954
    168  CA        -3.7830   -4.7540   13.8130 C.3   472  GLY472      0.1869
    169  C         -4.9100   -4.1680   12.9920 C.2   472  GLY472      0.2309
    170  O         -6.0620   -4.5730   13.1480 O.2   472  GLY472     -0.2863
@<TRIPOS>BOND
     1   131   130    2
     2   120   121    1
     3   123   122    2
     4   122   121    1
     5   128   129    1
     6   121   124    1
     7   130   129    1
     8   129   132    1
     9   119   117    1
    10   124   125    1
    11   132   133    1
    12   135   133   ar
    13   135   137   ar
    14   127   125   am
    15   125   126    2
    16   144   141    1
    17   144   145    1
    18   117   116    2
    19   117   118    1
    20   133   134   ar
    21   137   138   ar
    22   141   140    1
    23   141   142    1
    24   116   115    1
    25   107   106    2
    26   111   112    2
    27   111   110    1
    28     1     2    1
    29   143   142    2
    30   145   147   ar
    31   145   146   ar
    32   147   149   ar
    33   142   152   am
    34   134   136   ar
    35   110   109    1
    36   110   113    1
    37   138   136   ar
    38   138   139    1
    39   115   114    1
    40   106   109   am
    41   106   105    1
    42   114   113    1
    43     8     7   ar
    44   146   148   ar
    45   149   150   ar
    46     2     5    1
    47     2     3    1
    48   108   105    1
    49     6     7    1
    50     6     5    1
    51     4     3    2
    52   152   153    1
    53   155   154    2
    54     7     9   ar
    55   105   104    1
    56   104    99   am
    57   148   150   ar
    58   150   151    1
    59   154   153    1
    60   154   163   am
    61   166   165    2
    62   103   101    1
    63   164   163    1
    64   164   165    1
    65   153   156    1
    66    96    95    2
    67   165   167   am
    68    99    98    1
    69    99   100    2
    70    98   101    1
    71    98    97    1
    72   101   102    1
    73    95    97   am
    74    95    94    1
    75   169   170    2
    76   169   168    1
    77   156   157    1
    78   167   168    1
    79    77    76    1
    80   157   159   ar
    81   157   158   ar
    82    10    11    1
    83    75    76   ar
    84    75    73   ar
    85   159   161   ar
    86    94    93    1
    87    93    89   am
    88   158   160   ar
    89    76    74   ar
    90    65    64    2
    91    73    71   ar
    92   161   162   ar
    93   160   162   ar
    94    11    12    1
    95    68    67    1
    96    68    69    2
    97    74    72   ar
    98    91    88    1
    99    91    92    1
   100    88    89    1
   101    88    87    1
   102    81    80    2
   103    89    90    2
   104    67    66    1
   105    67    70    1
   106    71    72   ar
   107    71    70    1
   108    64    66   am
   109    64    63    1
   110    12    14   am
   111    12    13    2
   112    80    87   am
   113    80    79    1
   114    14    15    1
   115    63    62    1
   116    78    79    1
   117    16    15    1
   118    16    17    2
   119    79    82    1
   120    15    18    1
   121    18    19    1
   122    53    52    2
   123    62    52   am
   124    82    83    1
   125    35    33    1
   126    52    51    1
   127    83    84    1
   128    86    85    1
   129    33    34    1
   130    33    30    1
   131    59    57   ar
   132    59    60   ar
   133    57    55   ar
   134    84    85    1
   135    20    21    1
   136    49    47   am
   137    51    54    1
   138    51    50    1
   139    41    40    1
   140    30    29    1
   141    30    31    1
   142    61    60    1
   143    60    58   ar
   144    48    47    2
   145    55    54    1
   146    55    56   ar
   147    47    46    1
   148    40    37    1
   149    32    31    2
   150    28    27    1
   151    27    26    1
   152    25    26    1
   153    25    24    1
   154    21    24    1
   155    21    22    1
   156    58    56   ar
   157    39    38    2
   158    22    23    2
   159    46    43    1
   160    37    38    1
   161    37    36    1
   162    43    42    1
   163    43    44    1
   164    44    45    2
