@<TRIPOS>MOLECULE
tmp/4oonA00.pdb
 173 163 0 0 0
SMALL
GASTEIGER

@<TRIPOS>ATOM
      1  N        -30.6980   18.2790   11.0520 N.3   221  GLN221     -0.1245
      2  CA       -30.4910   16.9000   10.5900 C.3   221  GLN221      0.1566
      3  C        -30.2840   16.8710    9.0450 C.2   221  GLN221      0.2260
      4  O        -31.1680   17.3170    8.2820 O.2   221  GLN221     -0.2867
      5  CB       -31.6210   15.9600   11.0250 C.3   221  GLN221      0.0367
      6  CG       -31.5830   15.5520   12.4810 C.3   221  GLN221      0.0905
      7  CD       -32.6660   14.5610   12.8090 C.2   221  GLN221      0.2608
      8  OE1      -33.1460   13.8040   11.9650 O.2   221  GLN221     -0.2717
      9  NE2      -33.0430   14.5090   14.0600 N.am  221  GLN221     -0.0878
     10  N        -30.0900   14.2960    7.0100 N.3   223  GLY223     -0.1210
     11  CA       -30.7850   13.1870    6.3760 C.3   223  GLY223      0.1956
     12  C        -29.8900   12.4360    5.4050 C.2   223  GLY223      0.2612
     13  O        -28.7840   12.0200    5.7650 O.2   223  GLY223     -0.2717
     14  N        -30.3440   12.3220    4.1440 N.am  224  SER224     -0.1952
     15  CA       -29.6230   11.6170    3.0980 C.3   224  SER224      0.1924
     16  C        -28.4440   12.4050    2.5820 C.2   224  SER224      0.2314
     17  O        -27.5320   11.8110    2.0020 O.2   224  SER224     -0.2863
     18  CB       -30.5570   11.2710    1.9530 C.3   224  SER224      0.2116
     19  OG       -31.6780   10.5770    2.4710 O.3   224  SER224     -0.2180
     20  N        -25.3900   10.5430    3.8470 N.3   227  LYS227     -0.1245
     21  CA       -24.9890    9.2100    3.3670 C.3   227  LYS227      0.1561
     22  C        -23.5620    9.1170    2.7780 C.2   227  LYS227      0.2260
     23  O        -22.8260    8.2300    3.2140 O.2   227  LYS227     -0.2867
     24  CB       -26.0450    8.5670    2.4330 C.3   227  LYS227      0.0271
     25  CG       -27.3810    8.3400    3.1150 C.3   227  LYS227      0.0035
     26  CD       -28.2530    7.4520    2.2660 C.3   227  LYS227      0.0206
     27  CE       -29.6520    7.3360    2.8010 C.3   227  LYS227      0.1093
     28  NZ       -29.6500    6.7700    4.1730 N.3   227  LYS227     -0.1314
     29  N        -29.8580    6.1510   -4.9910 N.3   271  LYS271     -0.1231
     30  CA       -31.2630    5.8750   -4.7090 C.3   271  LYS271      0.1693
     31  C        -31.6760    6.1310   -3.2640 C.2   271  LYS271      0.2592
     32  O        -32.8470    5.8980   -2.9550 O.2   271  LYS271     -0.2718
     33  CB       -31.6760    4.4690   -5.1790 C.3   271  LYS271      0.0285
     34  CG       -31.9760    4.4040   -6.6690 C.3   271  LYS271      0.0035
     35  CD       -32.4390    3.0300   -7.1080 C.3   271  LYS271      0.0206
     36  CE       -32.8950    3.0410   -8.5470 C.3   271  LYS271      0.1093
     37  NZ       -33.4150    1.7140   -8.9850 N.3   271  LYS271     -0.1314
     38  N        -30.7430    6.6310   -2.3820 N.am  272  SER272     -0.1952
     39  CA       -30.9860    6.9390   -0.9480 C.3   272  SER272      0.1924
     40  C        -31.6710    5.7540   -0.1980 C.2   272  SER272      0.2314
     41  O        -32.6450    5.9520    0.5400 O.2   272  SER272     -0.2863
     42  CB       -31.8230    8.2180   -0.7980 C.3   272  SER272      0.2116
     43  OG       -31.0670    9.4150   -0.8700 O.3   272  SER272     -0.2180
     44  N        -32.1440    3.5820    2.5960 N.3   274  ASN274     -0.1240
     45  CA       -31.8260    3.5490    4.0240 C.3   274  ASN274      0.1653
     46  C        -31.4730    2.1710    4.5560 C.2   274  ASN274      0.2266
     47  O        -30.5900    2.0540    5.4130 O.2   274  ASN274     -0.2867
     48  CB       -32.9530    4.1200    4.8210 C.3   274  ASN274      0.1155
     49  CG       -33.0810    5.5940    4.6820 C.2   274  ASN274      0.2627
     50  OD1      -32.1180    6.3320    4.8380 O.2   274  ASN274     -0.2716
     51  ND2      -34.2890    6.0660    4.4420 N.am  274  ASN274     -0.0877
     52  N        -28.7580    7.1370    8.7560 N.3   311  LEU311     -0.1231
     53  CA       -29.8870    7.8880    8.2110 C.3   311  LEU311      0.1693
     54  C        -29.6690    9.4210    8.2490 C.2   311  LEU311      0.2593
     55  O        -30.5230   10.1680    7.7710 O.2   311  LEU311     -0.2718
     56  CB       -31.1830    7.4920    8.9410 C.3   311  LEU311      0.0284
     57  CG       -31.3310    6.0250    9.3180 C.3   311  LEU311      0.0019
     58  CD1      -32.2920    5.8530   10.4520 C.3   311  LEU311      0.0001
     59  CD2      -31.7460    5.2050    8.1540 C.3   311  LEU311      0.0001
     60  N        -28.5310    9.8630    8.7810 N.am  312  GLY312     -0.1942
     61  CA       -28.1930   11.2770    8.8860 C.3   312  GLY312      0.2014
     62  C        -29.0510   12.0120    9.8990 C.2   312  GLY312      0.2639
     63  O        -29.7250   12.9970    9.5580 O.2   312  GLY312     -0.2714
     64  N        -29.0310   11.5190   11.1610 N.am  313  THR313     -0.1950
     65  CA       -29.8160   12.0590   12.2720 C.3   313  THR313      0.1897
     66  C        -28.9590   12.9200   13.1620 C.2   313  THR313      0.2313
     67  O        -29.4310   13.3940   14.2000 O.2   313  THR313     -0.2863
     68  CB       -30.5640   10.9640   13.0310 C.3   313  THR313      0.1794
     69  OG1      -29.6320   10.1990   13.7990 O.3   313  THR313     -0.2208
     70  CG2      -31.3690   10.0620   12.1180 C.3   313  THR313      0.0378
     71  N        -31.9150   11.4550   -7.5950 N.3   390  THR390     -0.1218
     72  CA       -32.7130   12.5930   -7.0890 C.3   390  THR390      0.1862
     73  C        -32.3480   14.0110   -7.5510 C.2   390  THR390      0.2287
     74  O        -33.1150   14.9460   -7.3060 O.2   390  THR390     -0.2866
     75  CB       -32.8470   12.5440   -5.5710 C.3   390  THR390      0.1770
     76  OG1      -31.7420   11.8230   -4.9910 O.3   390  THR390     -0.2211
     77  CG2      -34.2130   12.0230   -5.1220 C.3   390  THR390      0.0375
     78  N        -33.1530   17.3540  -11.6670 N.3   393  ARG393     -0.1245
     79  CA       -33.5110   18.7420  -11.9810 C.3   393  ARG393      0.1563
     80  C        -32.2410   19.5710  -12.3230 C.2   393  ARG393      0.2260
     81  O        -32.3270   20.5560  -13.0690 O.2   393  ARG393     -0.2867
     82  CB       -34.2480   19.3990  -10.8140 C.3   393  ARG393      0.0307
     83  CG       -35.4990   18.7020  -10.3380 C.3   393  ARG393      0.0489
     84  CD       -36.0680   19.4060   -9.1190 C.3   393  ARG393      0.2205
     85  NE       -37.5130   19.2180   -8.9870 N.pl3 393  ARG393     -0.0865
     86  CZ       -38.0880   18.1700   -8.4030 C.cat 393  ARG393      0.5346
     87  NH1      -37.3440   17.2000   -7.8780 N.pl3 393  ARG393      0.1354
     88  NH2      -39.4090   18.0810   -8.3410 N.pl3 393  ARG393      0.1354
     89  N        -29.5720   15.2280   -2.4430 N.3   406  THR406     -0.1203
     90  CA       -30.7660   15.7490   -1.7710 C.3   406  THR406      0.1994
     91  C        -30.8590   15.1020   -0.3650 C.2   406  THR406      0.2618
     92  O        -30.2900   14.0290   -0.1350 O.2   406  THR406     -0.2717
     93  CB       -32.0150   15.3140   -2.5370 C.3   406  THR406      0.1784
     94  OG1      -31.7880   13.9970   -3.0240 O.3   406  THR406     -0.2211
     95  CG2      -32.3560   16.2290   -3.6650 C.3   406  THR406      0.0376
     96  N        -31.5930   15.7460    0.5340 N.am  407  GLY407     -0.1942
     97  CA       -31.8460   15.2630    1.8830 C.3   407  GLY407      0.2014
     98  C        -33.2050   15.7580    2.3250 C.2   407  GLY407      0.2640
     99  O        -33.5210   16.9420    2.1340 O.2   407  GLY407     -0.2714
    100  N        -34.0480   14.8400    2.8480 N.am  408  THR408     -0.1936
    101  CA       -35.3810   15.1610    3.3690 C.3   408  THR408      0.2028
    102  C        -35.5180   14.4610    4.6940 C.2   408  THR408      0.2643
    103  O        -35.4440   13.2370    4.7500 O.2   408  THR408     -0.2714
    104  CB       -36.5330   14.7490    2.4140 C.3   408  THR408      0.1808
    105  OG1      -36.2000   15.0740    1.0700 O.3   408  THR408     -0.2208
    106  CG2      -37.8750   15.4100    2.7780 C.3   408  THR408      0.0379
    107  N        -35.7060   15.2240    5.7640 N.am  409  THR409     -0.1936
    108  CA       -35.8970   14.6180    7.0740 C.3   409  THR409      0.2028
    109  C        -37.3510   14.2120    7.2020 C.2   409  THR409      0.2642
    110  O        -38.2020   14.6960    6.4480 O.2   409  THR409     -0.2714
    111  CB       -35.5000   15.5580    8.2080 C.3   409  THR409      0.1808
    112  OG1      -36.1960   16.7750    8.0410 O.3   409  THR409     -0.2208
    113  CG2      -34.0350   15.8250    8.2520 C.3   409  THR409      0.0379
    114  N        -37.6280   13.3280    8.1760 N.am  410  ASN410     -0.1957
    115  CA       -38.9410   12.8290    8.5470 C.3   410  ASN410      0.1819
    116  C        -39.9470   13.9750    8.5290 C.2   410  ASN410      0.2621
    117  O        -39.6380   15.0690    9.0110 O.2   410  ASN410     -0.2715
    118  CB       -38.8620   12.2080    9.9480 C.3   410  ASN410      0.1195
    119  CG       -40.1390   12.3290   10.7510 C.2   410  ASN410      0.2630
    120  OD1      -41.1720   11.7120   10.4260 O.2   410  ASN410     -0.2716
    121  ND2      -40.1160   13.1990   11.7630 N.am  410  ASN410     -0.0877
    122  N        -41.1420   13.7090    7.9670 N.am  411  ASP411     -0.1957
    123  CA       -42.2640   14.6490    7.8440 C.3   411  ASP411      0.1840
    124  C        -41.9160   15.9300    7.0960 C.2   411  ASP411      0.2622
    125  O        -42.6180   16.9280    7.2560 O.2   411  ASP411     -0.2715
    126  CB       -42.9360   14.9480    9.2060 C.3   411  ASP411      0.1450
    127  CG       -44.3710   14.4640    9.2620 C.2   411  ASP411      0.3671
    128  OD1      -44.5810   13.2420    9.5020 O.co2 411  ASP411     -0.2456
    129  OD2      -45.2900   15.2930    9.0190 O.co2 411  ASP411     -0.2456
    130  N        -40.8370   15.9030    6.2650 N.am  412  SER412     -0.1950
    131  CA       -40.3470   17.0480    5.4810 C.3   412  SER412      0.1924
    132  C        -40.0540   18.2390    6.4170 C.2   412  SER412      0.2314
    133  O        -40.3590   19.3900    6.0830 O.2   412  SER412     -0.2863
    134  CB       -41.3440   17.4250    4.3850 C.3   412  SER412      0.2116
    135  OG       -41.8060   16.2720    3.7010 O.3   412  SER412     -0.2180
    136  N        -46.6680   17.8350    2.7390 N.3   440  ARG440     -0.1245
    137  CA       -46.7600   16.4450    2.2630 C.3   440  ARG440      0.1563
    138  C        -45.9840   16.2110    0.9650 C.2   440  ARG440      0.2260
    139  O        -45.1990   15.2710    0.8870 O.2   440  ARG440     -0.2867
    140  CB       -48.2490   16.0320    2.0850 C.3   440  ARG440      0.0307
    141  CG       -48.7040   14.8630    2.9830 C.3   440  ARG440      0.0489
    142  CD       -48.9370   13.5330    2.2490 C.3   440  ARG440      0.2205
    143  NE       -47.9950   13.2960    1.1410 N.pl3 440  ARG440     -0.0865
    144  CZ       -47.0680   12.3400    1.1100 C.cat 440  ARG440      0.5346
    145  NH1      -46.9420   11.4910    2.1270 N.pl3 440  ARG440      0.1354
    146  NH2      -46.2680   12.2180    0.0560 N.pl3 440  ARG440      0.1354
    147  N        -40.0080   18.0870   -0.6580 N.3   443  TYR443     -0.1227
    148  CA       -38.7720   17.3270   -0.4250 C.3   443  TYR443      0.1736
    149  C        -37.5580   18.2360   -0.6550 C.2   443  TYR443      0.2596
    150  O        -37.7190   19.3690   -1.1190 O.2   443  TYR443     -0.2718
    151  CB       -38.7070   16.0450   -1.3120 C.3   443  TYR443      0.0548
    152  CG       -39.9860   15.2330   -1.3070 C.ar  443  TYR443     -0.0200
    153  CD1      -40.2350   14.2870   -0.3150 C.ar  443  TYR443     -0.0009
    154  CD2      -40.9850   15.4680   -2.2490 C.ar  443  TYR443     -0.0009
    155  CE1      -41.4410   13.5830   -0.2700 C.ar  443  TYR443      0.0417
    156  CE2      -42.2110   14.8010   -2.1860 C.ar  443  TYR443      0.0417
    157  CZ       -42.4260   13.8400   -1.2110 C.ar  443  TYR443      0.1957
    158  OH       -43.6200   13.1540   -1.2030 O.3   443  TYR443     -0.2866
    159  N        -36.3600   17.7420   -0.3400 N.am  444  GLY444     -0.1942
    160  CA       -35.1360   18.4980   -0.5490 C.3   444  GLY444      0.2014
    161  C        -35.0420   18.9770   -1.9870 C.2   444  GLY444      0.2639
    162  O        -34.6410   20.1130   -2.2510 O.2   444  GLY444     -0.2714
    163  N        -35.4730   18.1180   -2.9040 N.am  445  GLY445     -0.1939
    164  CA       -35.4900   18.3860   -4.3330 C.3   445  GLY445      0.2014
    165  C        -36.5040   19.4190   -4.7760 C.2   445  GLY445      0.2639
    166  O        -36.3370   19.9990   -5.8480 O.2   445  GLY445     -0.2714
    167  N        -37.5500   19.6700   -3.9760 N.am  446  THR446     -0.1950
    168  CA       -38.6100   20.6180   -4.3390 C.3   446  THR446      0.1897
    169  C        -38.4310   21.9970   -3.6940 C.2   446  THR446      0.2313
    170  O        -39.0550   22.9730   -4.1340 O.2   446  THR446     -0.2863
    171  CB       -40.0020   20.0130   -4.0600 C.3   446  THR446      0.1794
    172  OG1      -40.2720   20.0140   -2.6560 O.3   446  THR446     -0.2208
    173  CG2      -40.1610   18.6050   -4.6130 C.3   446  THR446      0.0378
@<TRIPOS>BOND
     1    81    80    2
     2    80    79    1
     3    79    78    1
     4    79    82    1
     5    82    83    1
     6    83    84    1
     7    84    85    1
     8    85    86    2
     9    37    36    1
    10    36    35    1
    11    86    88    1
    12    86    87    1
    13    71    72    1
    14    73    74    2
    15    73    72    1
    16    35    34    1
    17    72    75    1
    18    34    33    1
    19   166   165    2
    20    75    77    1
    21    75    76    1
    22    33    30    1
    23    29    30    1
    24   165   164    1
    25   165   167   am
    26    30    31    1
    27   173   171    1
    28   168   171    1
    29   168   167    1
    30   168   169    1
    31   164   163    1
    32   170   169    2
    33   171   172    1
    34    95    93    1
    35    31    32    2
    36    31    38   am
    37    94    93    1
    38   163   161   am
    39    93    90    1
    40    89    90    1
    41    38    39    1
    42   162   161    2
    43   154   156   ar
    44   154   152   ar
    45   156   157   ar
    46   161   160    1
    47    90    91    1
    48   151   152    1
    49   151   148    1
    50   152   153   ar
    51   157   158    1
    52   157   155   ar
    53   150   149    2
    54    39    42    1
    55    39    40    1
    56    43    42    1
    57   147   148    1
    58   149   148    1
    59   149   159   am
    60   160   159    1
    61    91    92    2
    62    91    96   am
    63   153   155   ar
    64    40    41    2
    65   146   144    1
    66    96    97    1
    67   139   138    2
    68   138   137    1
    69   105   104    1
    70   144   143    2
    71   144   145    1
    72   143   142    1
    73    97    98    1
    74    18    19    1
    75    18    15    1
    76    17    16    2
    77   140   137    1
    78   140   141    1
    79    99    98    2
    80   142   141    1
    81   137   136    1
    82    26    27    1
    83    26    25    1
    84    98   100   am
    85   104   106    1
    86   104   101    1
    87    24    25    1
    88    24    21    1
    89    16    15    1
    90    44    45    1
    91    22    23    2
    92    22    21    1
    93    27    28    1
    94   100   101    1
    95    15    14    1
    96    21    20    1
    97   101   102    1
    98   135   134    1
    99    45    46    1
   100    45    48    1
   101    14    12   am
   102   134   131    1
   103    51    49   am
   104    46    47    2
   105    49    48    1
   106    49    50    2
   107   102   103    2
   108   102   107   am
   109    12    13    2
   110    12    11    1
   111   131   130    1
   112   131   132    1
   113   107   108    1
   114   133   132    2
   115   130   124   am
   116    11    10    1
   117   110   109    2
   118   108   109    1
   119   108   111    1
   120   124   125    2
   121   124   123    1
   122   109   114   am
   123    55    54    2
   124   123   122    1
   125   123   126    1
   126   122   116   am
   127   112   111    1
   128    59    57    1
   129   114   115    1
   130   111   113    1
   131    53    54    1
   132    53    52    1
   133    53    56    1
   134    54    60   am
   135     4     3    2
   136   116   115    1
   137   116   117    2
   138   115   118    1
   139    60    61    1
   140    61    62    1
   141    56    57    1
   142   129   127   ar
   143     3     2    1
   144   126   127    1
   145   127   128   ar
   146    57    58    1
   147    63    62    2
   148    62    64   am
   149   118   119    1
   150   120   119    2
   151     2     5    1
   152     2     1    1
   153   119   121   am
   154     5     6    1
   155    64    65    1
   156     8     7    2
   157    70    68    1
   158    65    68    1
   159    65    66    1
   160     6     7    1
   161     7     9   am
   162    68    69    1
   163    66    67    2
