@<TRIPOS>MOLECULE
tmp/4oopB01.pdb
 90 86 0 0 0
SMALL
GASTEIGER

@<TRIPOS>ATOM
      1  N        -12.1200    0.4110  -15.7530 N.3    44  LEU44      -0.1245
      2  CA       -12.8460   -0.7200  -15.2080 C.3    44  LEU44       0.1561
      3  C        -11.8950   -1.4270  -14.2420 C.2    44  LEU44       0.2260
      4  O        -10.8620   -1.9730  -14.6580 O.2    44  LEU44      -0.2867
      5  CB       -13.2710   -1.6590  -16.3390 C.3    44  LEU44       0.0270
      6  CG       -13.9890   -2.9440  -15.9490 C.3    44  LEU44       0.0019
      7  CD1      -15.2260   -2.6420  -15.1240 C.3    44  LEU44       0.0001
      8  CD2      -14.3550   -3.7170  -17.2070 C.3    44  LEU44       0.0001
      9  N        -23.0590   -0.4780   -6.7400 N.3    61  ILE61      -0.1245
     10  CA       -21.7120    0.0510   -6.5230 C.3    61  ILE61       0.1561
     11  C        -21.8320    1.5660   -6.3840 C.2    61  ILE61       0.2260
     12  O        -22.3080    2.2360   -7.2980 O.2    61  ILE61      -0.2867
     13  CB       -20.7630   -0.2990   -7.6820 C.3    61  ILE61       0.0252
     14  CG1      -20.8220   -1.8020   -7.9670 C.3    61  ILE61       0.0019
     15  CG2      -19.3310    0.1660   -7.3550 C.3    61  ILE61       0.0019
     16  CD1      -19.8220   -2.2700   -8.9930 C.3    61  ILE61       0.0001
     17  N        -19.4460    4.9600  -12.1630 N.3    76  GLY76      -0.1210
     18  CA       -20.3970    4.8180  -13.2570 C.3    76  GLY76       0.1956
     19  C        -21.1020    3.4780  -13.1660 C.2    76  GLY76       0.2612
     20  O        -20.7480    2.6440  -12.3290 O.2    76  GLY76      -0.2717
     21  N        -22.0880    3.2820  -14.0160 N.am   77  ALA77      -0.1965
     22  CA       -22.8180    2.0180  -14.0380 C.3    77  ALA77       0.1728
     23  C        -23.3100    1.6090  -12.6540 C.2    77  ALA77       0.2617
     24  O        -24.0050    2.3440  -12.0730 O.2    77  ALA77      -0.2715
     25  CB       -21.9740    0.9280  -14.6840 C.3    77  ALA77       0.0334
     26  N        -22.9210    0.4520  -12.1620 N.am   78  GLY78      -0.1940
     27  CA       -23.0940    0.1410  -10.7540 C.3    78  GLY78       0.2014
     28  C        -24.2560   -0.7340  -10.3360 C.2    78  GLY78       0.2639
     29  O        -24.4280   -1.0110   -9.1490 O.2    78  GLY78      -0.2714
     30  N        -25.0660   -1.1740  -11.2910 N.am   79  VAL79      -0.1963
     31  CA       -26.2120   -2.0090  -10.9700 C.3    79  VAL79       0.1727
     32  C        -25.8740   -3.4910  -11.0820 C.2    79  VAL79       0.2616
     33  O        -25.8120   -4.0370  -12.1810 O.2    79  VAL79      -0.2715
     34  CB       -27.3950   -1.6610  -11.8800 C.3    79  VAL79       0.0290
     35  CG1      -28.6090   -2.4990  -11.5030 C.3    79  VAL79       0.0023
     36  CG2      -27.7090   -0.1700  -11.7660 C.3    79  VAL79       0.0023
     37  N        -25.6260   -4.1360   -9.9440 N.am   80  ILE80      -0.1963
     38  CA       -25.3290   -5.5640   -9.9370 C.3    80  ILE80       0.1727
     39  C        -26.6040   -6.3360   -9.6210 C.2    80  ILE80       0.2616
     40  O        -27.1400   -6.2640   -8.5130 O.2    80  ILE80      -0.2715
     41  CB       -24.2360   -5.9470   -8.9020 C.3    80  ILE80       0.0290
     42  CG1      -23.0520   -4.9820   -8.9670 C.3    80  ILE80       0.0022
     43  CG2      -23.8090   -7.4050   -9.1050 C.3    80  ILE80       0.0023
     44  CD1      -22.2940   -4.9920  -10.2670 C.3    80  ILE80       0.0001
     45  N        -27.0840   -7.0960  -10.5960 N.am   81  ASP81      -0.1971
     46  CA       -28.3330   -7.8260  -10.4160 C.3    81  ASP81       0.1709
     47  C        -28.1720   -8.9730   -9.4130 C.2    81  ASP81       0.2293
     48  O        -27.0900   -9.5450   -9.2930 O.2    81  ASP81      -0.2864
     49  CB       -28.8090   -8.3540  -11.7720 C.3    81  ASP81       0.1436
     50  CG       -29.0320   -7.2410  -12.7800 C.2    81  ASP81       0.3671
     51  OD1      -29.8990   -6.3900  -12.5160 O.co2  81  ASP81      -0.2456
     52  OD2      -28.3390   -7.2040  -13.8240 O.co2  81  ASP81      -0.2456
     53  N        -26.7120  -12.0850  -10.8790 N.3    84  TYR84      -0.1241
     54  CA       -25.4320  -11.9990  -11.5600 C.3    84  TYR84       0.1605
     55  C        -24.3310  -12.7290  -10.8010 C.2    84  TYR84       0.2264
     56  O        -24.0700  -12.4310   -9.6340 O.2    84  TYR84      -0.2867
     57  CB       -25.0260  -10.5450  -11.7560 C.3    84  TYR84       0.0534
     58  CG       -23.6810  -10.3650  -12.4240 C.ar   84  TYR84      -0.0201
     59  CD1      -23.5360  -10.5630  -13.7930 C.ar   84  TYR84      -0.0009
     60  CD2      -22.5590   -9.9930  -11.6910 C.ar   84  TYR84      -0.0009
     61  CE1      -22.3130  -10.3880  -14.4140 C.ar   84  TYR84       0.0417
     62  CE2      -21.3330   -9.8160  -12.3020 C.ar   84  TYR84       0.0417
     63  CZ       -21.2150  -10.0140  -13.6700 C.ar   84  TYR84       0.1957
     64  OH       -20.0120   -9.8370  -14.3050 O.3    84  TYR84      -0.2866
     65  N        -17.8180  -11.8510  -12.7030 N.3    87  PRO87      -0.2102
     66  CA       -16.9000  -10.9980  -11.9380 C.3    87  PRO87       0.1504
     67  C        -17.4720   -9.5960  -11.7720 C.2    87  PRO87       0.2576
     68  O        -18.0300   -9.0480  -12.7230 O.2    87  PRO87      -0.2718
     69  CB       -15.6470  -10.9660  -12.8090 C.3    87  PRO87       0.0282
     70  CG       -16.1530  -11.2440  -14.2040 C.3    87  PRO87       0.0208
     71  CD       -17.3000  -12.1860  -14.0400 C.3    87  PRO87       0.0893
     72  N        -17.3360   -9.0310  -10.5750 N.am   88  VAL88      -0.1966
     73  CA       -17.8670   -7.7050  -10.2860 C.3    88  VAL88       0.1727
     74  C        -16.7990   -6.6540  -10.5840 C.2    88  VAL88       0.2616
     75  O        -15.7290   -6.6500   -9.9700 O.2    88  VAL88      -0.2715
     76  CB       -18.3480   -7.6250   -8.8240 C.3    88  VAL88       0.0290
     77  CG1      -18.6880   -6.1920   -8.4330 C.3    88  VAL88       0.0023
     78  CG2      -19.5390   -8.5500   -8.6110 C.3    88  VAL88       0.0023
     79  N        -17.0850   -5.7840  -11.5510 N.am   89  GLY89      -0.1955
     80  CA       -16.1770   -4.7190  -11.9270 C.3    89  GLY89       0.1869
     81  C        -16.6930   -3.3700  -11.4770 C.2    89  GLY89       0.2309
     82  O        -17.9100   -3.1330  -11.4530 O.2    89  GLY89      -0.2863
     83  N        -16.6910    0.5490  -12.3430 N.3    91  ILE91      -0.1245
     84  CA       -16.4050    1.5750  -13.3320 C.3    91  ILE91       0.1561
     85  C        -16.2340    2.9000  -12.6300 C.2    91  ILE91       0.2260
     86  O        -17.1400    3.3540  -11.9450 O.2    91  ILE91      -0.2867
     87  CB       -17.5140    1.6630  -14.3910 C.3    91  ILE91       0.0252
     88  CG1      -17.5840    0.3380  -15.1390 C.3    91  ILE91       0.0019
     89  CG2      -17.2340    2.8130  -15.3560 C.3    91  ILE91       0.0019
     90  CD1      -18.6990    0.2530  -16.1520 C.3    91  ILE91       0.0001
@<TRIPOS>BOND
     1     8     6    1
     2     5     6    1
     3     5     2    1
     4    90    88    1
     5     6     7    1
     6     1     2    1
     7    89    87    1
     8     2     3    1
     9    88    87    1
    10    25    22    1
    11     4     3    2
    12    61    59   ar
    13    61    63   ar
    14    87    84    1
    15    64    63    1
    16    70    71    1
    17    70    69    1
    18    71    65    1
    19    22    21    1
    20    22    23    1
    21    21    19   am
    22    52    50   ar
    23    59    58   ar
    24    63    62   ar
    25    84    85    1
    26    84    83    1
    27    18    19    1
    28    18    17    1
    29    19    20    2
    30    69    66    1
    31    50    51   ar
    32    50    49    1
    33    68    67    2
    34    65    66    1
    35    23    26   am
    36    23    24    2
    37    85    86    2
    38    58    57    1
    39    58    60   ar
    40    62    60   ar
    41    33    32    2
    42    26    27    1
    43    66    67    1
    44    80    79    1
    45    80    81    1
    46    34    36    1
    47    34    35    1
    48    34    31    1
    49    67    72   am
    50    49    46    1
    51    57    54    1
    52    54    53    1
    53    54    55    1
    54    79    74   am
    55    81    82    2
    56    30    31    1
    57    30    28   am
    58    32    31    1
    59    32    37   am
    60    55    56    2
    61    27    28    1
    62    45    46    1
    63    45    39   am
    64    74    73    1
    65    74    75    2
    66    72    73    1
    67    46    47    1
    68    28    29    2
    69    73    76    1
    70    44    42    1
    71    37    38    1
    72    38    39    1
    73    38    41    1
    74    39    40    2
    75    47    48    2
    76    43    41    1
    77    16    14    1
    78    42    41    1
    79    76    78    1
    80    76    77    1
    81    14    13    1
    82    13    15    1
    83    13    10    1
    84    12    11    2
    85     9    10    1
    86    10    11    1
