@<TRIPOS>MOLECULE
tmp/4oouA00.pdb
 113 113 0 0 0
SMALL
GASTEIGER

@<TRIPOS>ATOM
      1  N         22.6650  -14.9630    0.9510 N.3    27  TRP27      -0.1241
      2  CA        23.0990  -15.2870    2.2990 C.3    27  TRP27       0.1605
      3  C         22.6120  -16.6910    2.6530 C.2    27  TRP27       0.2264
      4  O         21.9120  -17.3350    1.8870 O.2    27  TRP27      -0.2867
      5  CB        22.5760  -14.2440    3.2810 C.3    27  TRP27       0.0550
      6  CG        21.1010  -14.1220    3.2510 C.ar   27  TRP27       0.0003
      7  CD1       20.2060  -14.9370    3.8800 C.ar   27  TRP27       0.0946
      8  CD2       20.3340  -13.1590    2.5310 C.ar   27  TRP27       0.0152
      9  NE1       18.9270  -14.5290    3.6120 N.ar   27  TRP27      -0.2442
     10  CE2       18.9710  -13.4350    2.7870 C.ar   27  TRP27       0.0810
     11  CE3       20.6580  -12.0750    1.7000 C.ar   27  TRP27       0.0012
     12  CZ2       17.9240  -12.6730    2.2320 C.ar   27  TRP27       0.0191
     13  CZ3       19.6070  -11.2980    1.1640 C.ar   27  TRP27       0.0001
     14  CH2       18.2590  -11.6100    1.4440 C.ar   27  TRP27       0.0015
     15  N         26.4180  -11.4100    0.4970 N.3    64  TRP64      -0.1241
     16  CA        26.2620  -10.2160    1.3100 C.3    64  TRP64       0.1605
     17  C         27.0430  -10.3440    2.6240 C.2    64  TRP64       0.2264
     18  O         27.1050  -11.4290    3.2040 O.2    64  TRP64      -0.2867
     19  CB        24.7710  -10.0030    1.5810 C.3    64  TRP64       0.0550
     20  CG        23.9450   -9.5430    0.3960 C.ar   64  TRP64       0.0003
     21  CD1       24.1890   -9.7560   -0.9330 C.ar   64  TRP64       0.0946
     22  CD2       22.7300   -8.8070    0.4530 C.ar   64  TRP64       0.0152
     23  NE1       23.2200   -9.1720   -1.6930 N.ar   64  TRP64      -0.2442
     24  CE2       22.3100   -8.5900   -0.8650 C.ar   64  TRP64       0.0810
     25  CE3       21.9640   -8.2990    1.4970 C.ar   64  TRP64       0.0012
     26  CZ2       21.1720   -7.8840   -1.1640 C.ar   64  TRP64       0.0191
     27  CZ3       20.8340   -7.5960    1.2030 C.ar   64  TRP64       0.0001
     28  CH2       20.4420   -7.3930   -0.1110 C.ar   64  TRP64       0.0015
     29  N         18.6740   -1.3500    0.3290 N.3   116  ALA116     -0.1245
     30  CA        17.2380   -1.6690    0.1490 C.3   116  ALA116      0.1562
     31  C         16.4920   -1.4510    1.4680 C.2   116  ALA116      0.2260
     32  O         15.5340   -0.7040    1.5480 O.2   116  ALA116     -0.2867
     33  CB        17.0520   -3.1150   -0.3430 C.3   116  ALA116      0.0290
     34  N         23.8660   -2.0460   -1.7760 N.3   161  ASN161     -0.1225
     35  CA        22.8980   -2.7330   -2.6290 C.3   161  ASN161      0.1785
     36  C         21.5970   -1.9150   -2.6390 C.2   161  ASN161      0.2597
     37  O         21.1040   -1.5170   -1.5660 O.2   161  ASN161     -0.2718
     38  CB        22.6160   -4.1360   -2.0850 C.3   161  ASN161      0.1169
     39  CG        21.3600   -4.7770   -2.7120 C.2   161  ASN161      0.2627
     40  OD1       21.4260   -5.3270   -3.8170 O.2   161  ASN161     -0.2716
     41  ND2       20.2190   -4.6910   -2.0220 N.am  161  ASN161     -0.0877
     42  N         21.0450   -1.6780   -3.8220 N.am  162  GLU162     -0.1979
     43  CA        19.7920   -0.9180   -3.9620 C.3   162  GLU162      0.1602
     44  C         19.7380    0.3480   -3.0680 C.2   162  GLU162      0.2287
     45  O         18.9160    0.4770   -2.1560 O.2   162  GLU162     -0.2864
     46  CB        18.5630   -1.8450   -3.7790 C.3   162  GLU162      0.0415
     47  CG        18.6320   -3.0600   -4.7150 C.3   162  GLU162      0.1163
     48  CD        17.3040   -3.7840   -4.9510 C.2   162  GLU162      0.3649
     49  OE1       16.3060   -3.5840   -4.1870 O.co2 162  GLU162     -0.2457
     50  OE2       17.2740   -4.5820   -5.9340 O.co2 162  GLU162     -0.2457
     51  N         11.2580    2.8740   -0.5090 N.3   189  TRP189     -0.1241
     52  CA        10.3850    1.8440    0.0750 C.3   189  TRP189      0.1605
     53  C         10.9030    1.3500    1.4520 C.2   189  TRP189      0.2264
     54  O         10.1200    0.8480    2.3000 O.2   189  TRP189     -0.2867
     55  CB        10.1740    0.6710   -0.9210 C.3   189  TRP189      0.0550
     56  CG        11.3270   -0.2850   -1.0830 C.ar  189  TRP189      0.0003
     57  CD1       11.5670   -1.4190   -0.3520 C.ar  189  TRP189      0.0946
     58  CD2       12.3840   -0.2060   -2.0400 C.ar  189  TRP189      0.0152
     59  NE1       12.7160   -2.0290   -0.7880 N.ar  189  TRP189     -0.2442
     60  CE2       13.2330   -1.3070   -1.8200 C.ar  189  TRP189      0.0810
     61  CE3       12.7030    0.6920   -3.0480 C.ar  189  TRP189      0.0012
     62  CZ2       14.3760   -1.5310   -2.5730 C.ar  189  TRP189      0.0191
     63  CZ3       13.8510    0.4620   -3.8080 C.ar  189  TRP189      0.0001
     64  CH2       14.6650   -0.6410   -3.5650 C.ar  189  TRP189      0.0015
     65  N         13.2100   -6.8390  -12.3440 N.3   263  TYR263     -0.1241
     66  CA        12.0750   -7.6490  -11.9950 C.3   263  TYR263      0.1605
     67  C         10.7840   -7.0890  -12.6660 C.2   263  TYR263      0.2264
     68  O         10.5140   -5.8790  -12.6480 O.2   263  TYR263     -0.2867
     69  CB        11.9190   -7.6550  -10.4580 C.3   263  TYR263      0.0534
     70  CG        13.1010   -8.2000   -9.6600 C.ar  263  TYR263     -0.0201
     71  CD1       13.2430   -9.5530   -9.4200 C.ar  263  TYR263     -0.0009
     72  CD2       14.0470   -7.3550   -9.1140 C.ar  263  TYR263     -0.0009
     73  CE1       14.3110  -10.0510   -8.6900 C.ar  263  TYR263      0.0417
     74  CE2       15.1260   -7.8510   -8.3800 C.ar  263  TYR263      0.0417
     75  CZ        15.2530   -9.2040   -8.1790 C.ar  263  TYR263      0.1957
     76  OH        16.3190   -9.6980   -7.4530 O.3   263  TYR263     -0.2866
     77  N         20.8910   -8.7920  -10.3490 N.3   293  GLU293     -0.1245
     78  CA        19.8500   -9.7180   -9.9210 C.3   293  GLU293      0.1567
     79  C         18.7330   -9.8040  -10.9470 C.2   293  GLU293      0.2260
     80  O         18.4160   -8.8310  -11.6340 O.2   293  GLU293     -0.2867
     81  CB        19.1960   -9.2570   -8.6400 C.3   293  GLU293      0.0388
     82  CG        20.0860   -8.8890   -7.4630 C.3   293  GLU293      0.1160
     83  CD        19.2620   -8.2780   -6.3430 C.2   293  GLU293      0.3649
     84  OE1       18.0030   -8.2430   -6.4650 O.co2 293  GLU293     -0.2457
     85  OE2       19.8630   -7.8080   -5.3530 O.co2 293  GLU293     -0.2457
     86  N         18.3310  -14.4130   -8.6210 N.3   322  TRP322     -0.1241
     87  CA        18.0060  -14.1880   -7.2360 C.3   322  TRP322      0.1605
     88  C         16.9980  -15.2750   -6.7760 C.2   322  TRP322      0.2264
     89  O         15.9850  -15.4250   -7.4240 O.2   322  TRP322     -0.2867
     90  CB        17.3830  -12.7910   -7.0560 C.3   322  TRP322      0.0550
     91  CG        17.1050  -12.5110   -5.6150 C.ar  322  TRP322      0.0003
     92  CD1       15.9930  -12.8570   -4.9290 C.ar  322  TRP322      0.0946
     93  CD2       17.9910  -11.8980   -4.6630 C.ar  322  TRP322      0.0152
     94  NE1       16.1210  -12.5090   -3.6060 N.ar  322  TRP322     -0.2442
     95  CE2       17.3360  -11.9090   -3.4210 C.ar  322  TRP322      0.0810
     96  CE3       19.2620  -11.3280   -4.7480 C.ar  322  TRP322      0.0012
     97  CZ2       17.9040  -11.3630   -2.2730 C.ar  322  TRP322      0.0191
     98  CZ3       19.8320  -10.8000   -3.6100 C.ar  322  TRP322      0.0001
     99  CH2       19.1510  -10.8150   -2.3850 C.ar  322  TRP322      0.0015
    100  N         10.4640  -12.7780   -1.7760 N.3   329  ASP329     -0.1225
    101  CA         9.7370  -12.3940   -2.9490 C.3   329  ASP329      0.1805
    102  C         10.6620  -12.4120   -4.1520 C.2   329  ASP329      0.2598
    103  O         11.8470  -12.0550   -4.0680 O.2   329  ASP329     -0.2718
    104  CB         9.0580  -11.0530   -2.7080 C.3   329  ASP329      0.1424
    105  CG         8.1730  -11.0880   -1.4610 C.2   329  ASP329      0.3668
    106  OD1        7.6230  -12.1850   -1.1610 O.co2 329  ASP329     -0.2456
    107  OD2        8.0750  -10.0510   -0.7650 O.co2 329  ASP329     -0.2456
    108  N         10.0980  -12.8930   -5.2590 N.am  330  CYS330     -0.1970
    109  CA        10.7720  -12.9670   -6.5500 C.3   330  CYS330      0.1712
    110  C         12.1080  -13.6750   -6.4030 C.2   330  CYS330      0.2296
    111  O         13.1480  -13.0930   -6.6620 O.2   330  CYS330     -0.2864
    112  CB        10.9150  -11.5670   -7.1890 C.3   330  CYS330      0.0983
    113  SG         9.3450  -10.8900   -7.8500 S.3   330  CYS330     -0.0798
@<TRIPOS>BOND
     1    67    68    2
     2    67    66    1
     3    65    66    1
     4    66    69    1
     5    80    79    2
     6    79    78    1
     7    69    70    1
     8    77    78    1
     9    78    81    1
    10    70    71   ar
    11    70    72   ar
    12    71    73   ar
    13    72    74   ar
    14    73    75   ar
    15    81    82    1
    16    86    87    1
    17    74    75   ar
    18    75    76    1
    19   113   112    1
    20    82    83    1
    21    89    88    2
    22    87    90    1
    23    87    88    1
    24   112   109    1
    25    90    91    1
    26   111   110    2
    27   109   110    1
    28   109   108    1
    29    84    83   ar
    30    83    85   ar
    31    50    48   ar
    32    91    92   ar
    33    91    93   ar
    34   108   102   am
    35    48    47    1
    36    48    49   ar
    37    92    94   ar
    38    96    93   ar
    39    96    98   ar
    40    47    46    1
    41    93    95   ar
    42   102   103    2
    43   102   101    1
    44    43    42    1
    45    43    46    1
    46    43    44    1
    47    42    36   am
    48    40    39    2
    49    63    64   ar
    50    63    61   ar
    51    98    99   ar
    52    94    95   ar
    53    64    62   ar
    54    95    97   ar
    55    44    45    2
    56    61    58   ar
    57   101   104    1
    58   101   100    1
    59    39    38    1
    60    39    41   am
    61   104   105    1
    62    36    35    1
    63    36    37    2
    64    35    38    1
    65    35    34    1
    66    62    60   ar
    67    99    97   ar
    68    58    60   ar
    69    58    56   ar
    70    60    59   ar
    71    23    21   ar
    72    23    24   ar
    73   105   106   ar
    74   105   107   ar
    75    26    24   ar
    76    26    28   ar
    77    56    55    1
    78    56    57   ar
    79    21    20   ar
    80    55    52    1
    81    24    22   ar
    82    59    57   ar
    83    51    52    1
    84    33    30    1
    85    28    27   ar
    86    52    53    1
    87    30    29    1
    88    30    31    1
    89    20    22   ar
    90    20    19    1
    91    22    25   ar
    92    15    16    1
    93     1     2    1
    94    13    14   ar
    95    13    11   ar
    96    27    25   ar
    97    16    19    1
    98    16    17    1
    99    14    12   ar
   100    53    54    2
   101    31    32    2
   102    11     8   ar
   103     4     3    2
   104    12    10   ar
   105     2     3    1
   106     2     5    1
   107     8    10   ar
   108     8     6   ar
   109    17    18    2
   110    10     9   ar
   111     6     5    1
   112     6     7   ar
   113     9     7   ar
