@<TRIPOS>MOLECULE
tmp/4ooyA00.pdb
 123 116 0 0 0
SMALL
GASTEIGER

@<TRIPOS>ATOM
      1  N         -7.2790   -8.1670   16.6090 N.3    62  SER62      -0.1217
      2  CA        -6.8510   -7.3960   17.7460 C.3    62  SER62       0.1889
      3  C         -6.6010   -5.9350   17.4980 C.2    62  SER62       0.2288
      4  O         -6.4770   -5.1920   18.4700 O.2    62  SER62      -0.2866
      5  CB        -5.5690   -7.9420   18.2970 C.3    62  SER62       0.2089
      6  OG        -5.6720   -9.2780   18.8790 O.3    62  SER62      -0.2183
      7  N         -4.0710  -15.7040   27.2320 N.3   117  LEU117     -0.1231
      8  CA        -4.2290  -15.1350   25.9030 C.3   117  LEU117      0.1693
      9  C         -5.6370  -15.1040   25.4350 C.2   117  LEU117      0.2591
     10  O         -6.1630  -14.1100   24.9360 O.2   117  LEU117     -0.2718
     11  CB        -3.3830  -15.9500   24.9080 C.3   117  LEU117      0.0284
     12  CG        -3.4050  -15.4630   23.4740 C.3   117  LEU117      0.0019
     13  CD1       -2.8710  -14.1020   23.2710 C.3   117  LEU117      0.0001
     14  CD2       -2.6940  -16.4480   22.5730 C.3   117  LEU117      0.0001
     15  N         -6.3140  -16.2340   25.5900 N.am  118  GLN118     -0.1979
     16  CA        -7.7340  -16.4350   25.2380 C.3   118  GLN118      0.1601
     17  C         -8.4970  -16.9110   26.4470 C.2   118  GLN118      0.2287
     18  O         -7.9410  -17.5650   27.2960 O.2   118  GLN118     -0.2864
     19  CB        -7.9020  -17.4420   24.1350 C.3   118  GLN118      0.0394
     20  CG        -7.1180  -17.1400   22.8870 C.3   118  GLN118      0.0908
     21  CD        -7.4960  -15.9550   22.0570 C.2   118  GLN118      0.2608
     22  OE1       -6.7560  -15.6410   21.0640 O.2   118  GLN118     -0.2717
     23  NE2       -8.5240  -15.3250   22.3590 N.am  118  GLN118     -0.0878
     24  N          0.0040  -10.7470   27.2280 N.3   149  TYR149     -0.1241
     25  CA        -1.0140  -10.2820   26.3250 C.3   149  TYR149      0.1605
     26  C         -2.2750  -11.1440   26.4750 C.2   149  TYR149      0.2264
     27  O         -2.2070  -12.3730   26.4740 O.2   149  TYR149     -0.2867
     28  CB        -0.4970  -10.3190   24.9070 C.3   149  TYR149      0.0534
     29  CG        -1.3790   -9.6670   23.9100 C.ar  149  TYR149     -0.0201
     30  CD1       -2.5530  -10.2720   23.4620 C.ar  149  TYR149     -0.0009
     31  CD2       -1.1850   -8.3860   23.4620 C.ar  149  TYR149     -0.0009
     32  CE1       -3.4010   -9.6030   22.5470 C.ar  149  TYR149      0.0417
     33  CE2       -1.9950   -7.7990   22.5280 C.ar  149  TYR149      0.0417
     34  CZ        -3.0200   -8.4170   22.0020 C.ar  149  TYR149      0.1957
     35  OH        -3.8070   -7.8630   21.0380 O.3   149  TYR149     -0.2866
     36  N         -6.6920  -11.3840   25.6850 N.3   151  ASN151     -0.1240
     37  CA        -8.0340  -10.9980   25.2510 C.3   151  ASN151      0.1653
     38  C         -9.0070  -10.8870   26.4180 C.2   151  ASN151      0.2266
     39  O         -9.7340   -9.9140   26.5240 O.2   151  ASN151     -0.2867
     40  CB        -8.5290  -11.9330   24.1960 C.3   151  ASN151      0.1155
     41  CG        -7.9720  -11.6680   22.8260 C.2   151  ASN151      0.2627
     42  OD1       -8.0970  -12.5420   21.8770 O.2   151  ASN151     -0.2716
     43  ND2       -7.4180  -10.5850   22.5860 N.am  151  ASN151     -0.0877
     44  N        -11.5530   -8.3700   19.5320 N.3   221  TYR221     -0.1241
     45  CA       -11.1480   -8.7200   18.1930 C.3   221  TYR221      0.1605
     46  C        -12.2620   -8.6590   17.1810 C.2   221  TYR221      0.2264
     47  O        -12.0240   -9.2280   16.0660 O.2   221  TYR221     -0.2867
     48  CB       -10.4850  -10.0850   18.1140 C.3   221  TYR221      0.0534
     49  CG       -11.3250  -11.2330   18.6830 C.ar  221  TYR221     -0.0201
     50  CD1      -12.2090  -11.8910   17.8630 C.ar  221  TYR221     -0.0009
     51  CD2      -11.2230  -11.6460   19.9890 C.ar  221  TYR221     -0.0009
     52  CE1      -12.9700  -12.9750   18.3670 C.ar  221  TYR221      0.0417
     53  CE2      -11.9680  -12.7080   20.4760 C.ar  221  TYR221      0.0417
     54  CZ       -12.8100  -13.3330   19.6560 C.ar  221  TYR221      0.1957
     55  OH       -13.5850  -14.4030   20.1570 O.3   221  TYR221     -0.2866
     56  N          6.6420   -9.7960   17.8340 N.3   287  SER287     -0.1217
     57  CA         6.9550  -11.2160   17.6660 C.3   287  SER287      0.1889
     58  C          6.1130  -12.1380   18.5220 C.2   287  SER287      0.2288
     59  O          5.4120  -11.7180   19.4070 O.2   287  SER287     -0.2866
     60  CB         8.4130  -11.4620   18.0280 C.3   287  SER287      0.2089
     61  OG         8.6760  -11.3030   19.2850 O.3   287  SER287     -0.2183
     62  N          3.5190  -12.0340   22.1510 N.3   291  ALA291     -0.1231
     63  CA         2.1370  -12.3650   22.2470 C.3   291  ALA291      0.1694
     64  C          1.9780  -13.4290   23.2840 C.2   291  ALA291      0.2591
     65  O          0.8970  -13.5530   23.9230 O.2   291  ALA291     -0.2718
     66  CB         1.6410  -12.9450   20.9290 C.3   291  ALA291      0.0304
     67  N          2.9900  -14.3300   23.4880 N.am  292  LEU292     -0.1980
     68  CA         2.7170  -15.5370   24.1880 C.3   292  LEU292      0.1596
     69  C          3.3640  -15.7090   25.5290 C.2   292  LEU292      0.2287
     70  O          2.9000  -16.5650   26.2930 O.2   292  LEU292     -0.2864
     71  CB         3.1240  -16.7320   23.3130 C.3   292  LEU292      0.0297
     72  CG         2.3970  -16.8280   21.9260 C.3   292  LEU292      0.0022
     73  CD1        2.7900  -18.1720   21.3860 C.3   292  LEU292      0.0001
     74  CD2        0.8820  -16.6320   21.9470 C.3   292  LEU292      0.0001
     75  N         -0.4540   -1.3820   15.8640 N.3   314  LYS314     -0.1231
     76  CA        -1.1560   -2.5470   16.3960 C.3   314  LYS314      0.1693
     77  C         -1.3070   -3.5790   15.2640 C.2   314  LYS314      0.2593
     78  O         -1.7270   -3.2730   14.1830 O.2   314  LYS314     -0.2718
     79  CB        -2.5250   -2.1650   16.9570 C.3   314  LYS314      0.0285
     80  CG        -3.1840   -3.2850   17.7500 C.3   314  LYS314      0.0035
     81  CD        -2.4330   -3.6660   19.0430 C.3   314  LYS314      0.0206
     82  CE        -3.0060   -4.8490   19.7640 C.3   314  LYS314      0.1093
     83  NZ        -2.5750   -6.1630   19.1510 N.3   314  LYS314     -0.1314
     84  N         -0.9560   -4.8060   15.6350 N.am  315  THR315     -0.1939
     85  CA        -1.2750   -5.9700   14.8490 C.3   315  THR315      0.2028
     86  C         -2.5990   -6.5920   15.2090 C.2   315  THR315      0.2643
     87  O         -3.0890   -6.4340   16.3210 O.2   315  THR315     -0.2714
     88  CB        -0.2030   -7.1050   15.1260 C.3   315  THR315      0.1808
     89  OG1       -0.1840   -7.4130   16.5150 O.3   315  THR315     -0.2208
     90  CG2        1.1200   -6.7390   14.6110 C.3   315  THR315      0.0379
     91  N         -3.2080   -7.3340   14.3090 N.am  316  GLY316     -0.1939
     92  CA        -4.3820   -8.1310   14.6360 C.3   316  GLY316      0.2014
     93  C         -4.6180   -9.2030   13.6360 C.2   316  GLY316      0.2640
     94  O         -4.3610   -9.0290   12.4570 O.2   316  GLY316     -0.2714
     95  N         -5.1710  -10.3120   14.1220 N.am  317  SER317     -0.1935
     96  CA        -5.4750  -11.4010   13.1990 C.3   317  SER317      0.2055
     97  C         -6.6820  -12.1470   13.7300 C.2   317  SER317      0.2644
     98  O         -7.0760  -12.0540   14.8800 O.2   317  SER317     -0.2714
     99  CB        -4.2580  -12.3630   12.9280 C.3   317  SER317      0.2130
    100  OG        -3.5820  -12.7080   14.1590 O.3   317  SER317     -0.2179
    101  N         -7.2460  -12.8460   12.8010 N.am  318  THR318     -0.1936
    102  CA        -8.2770  -13.8840   13.0940 C.3   318  THR318      0.2028
    103  C         -7.8010  -15.0910   12.3780 C.2   318  THR318      0.2642
    104  O         -6.7530  -15.1470   11.7280 O.2   318  THR318     -0.2714
    105  CB        -9.6560  -13.4030   12.6450 C.3   318  THR318      0.1808
    106  OG1       -9.6010  -13.1540   11.2430 O.3   318  THR318     -0.2208
    107  CG2      -10.1260  -12.2180   13.4050 C.3   318  THR318      0.0379
    108  N         -8.6120  -16.1730   12.3740 N.am  319  ASN319     -0.1971
    109  CA        -8.1620  -17.3860   11.7350 C.3   319  ASN319      0.1688
    110  C         -7.9000  -17.1700   10.2480 C.2   319  ASN319      0.2292
    111  O         -7.0570  -17.8140    9.6780 O.2   319  ASN319     -0.2864
    112  CB        -9.0790  -18.5950   12.0090 C.3   319  ASN319      0.1181
    113  CG        -9.0910  -19.0310   13.4390 C.2   319  ASN319      0.2629
    114  OD1      -10.1030  -19.6330   13.8400 O.2   319  ASN319     -0.2716
    115  ND2       -8.0900  -18.8520   14.1200 N.am  319  ASN319     -0.0877
    116  N          3.1460  -11.7510   11.5980 N.3   345  ASN345     -0.1240
    117  CA         3.3240  -10.3560   11.9220 C.3   345  ASN345      0.1653
    118  C          4.6170   -9.8180   11.3470 C.2   345  ASN345      0.2266
    119  O          4.6490   -8.6850   10.8790 O.2   345  ASN345     -0.2867
    120  CB         3.4000  -10.1420   13.4320 C.3   345  ASN345      0.1155
    121  CG         2.1030  -10.2890   14.2050 C.2   345  ASN345      0.2627
    122  OD1        1.0560  -10.3000   13.6090 O.2   345  ASN345     -0.2716
    123  ND2        2.1890  -10.2820   15.4830 N.am  345  ASN345     -0.0877
@<TRIPOS>BOND
     1   111   110    2
     2   110   109    1
     3   119   118    2
     4   106   105    1
     5   118   117    1
     6   116   117    1
     7   104   103    2
     8   109   112    1
     9   109   108    1
    10   117   120    1
    11   112   113    1
    12   108   103   am
    13   103   102    1
    14    94    93    2
    15   105   102    1
    16   105   107    1
    17   101   102    1
    18   101    97   am
    19    99    96    1
    20    99   100    1
    21    96    97    1
    22    96    95    1
    23   120   121    1
    24   113   114    2
    25   113   115   am
    26   122   121    2
    27    93    95   am
    28    93    92    1
    29    97    98    2
    30    78    77    2
    31   121   123   am
    32    91    92    1
    33    91    86   am
    34    90    88    1
    35    85    88    1
    36    85    86    1
    37    85    84    1
    38    88    89    1
    39    86    87    2
    40    77    84   am
    41    77    76    1
    42    75    76    1
    43    47    46    2
    44    76    79    1
    45     1     2    1
    46    79    80    1
    47    46    45    1
    48     3     2    1
    49     3     4    2
    50    57    56    1
    51    57    60    1
    52    57    58    1
    53     2     5    1
    54    80    81    1
    55    50    52   ar
    56    50    49   ar
    57    60    61    1
    58    48    45    1
    59    48    49    1
    60    45    44    1
    61     5     6    1
    62    52    54   ar
    63    58    59    2
    64    49    51   ar
    65    81    82    1
    66    83    82    1
    67    54    55    1
    68    54    53   ar
    69    51    53   ar
    70    66    63    1
    71    35    34    1
    72    22    21    2
    73    73    72    1
    74    42    41    2
    75    72    74    1
    76    72    71    1
    77    34    33   ar
    78    34    32   ar
    79    21    23   am
    80    21    20    1
    81    62    63    1
    82    63    64    1
    83    33    31   ar
    84    32    30   ar
    85    14    12    1
    86    43    41   am
    87    41    40    1
    88    20    19    1
    89    13    12    1
    90    64    67   am
    91    64    65    2
    92    71    68    1
    93    31    29   ar
    94    30    29   ar
    95    12    11    1
    96    67    68    1
    97    29    28    1
    98    19    16    1
    99    68    69    1
   100    40    37    1
   101    28    25    1
   102    11     8    1
   103    10     9    2
   104    16    15    1
   105    16    17    1
   106    37    36    1
   107    37    38    1
   108     9    15   am
   109     9     8    1
   110    69    70    2
   111     8     7    1
   112    25    26    1
   113    25    24    1
   114    38    39    2
   115    17    18    2
   116    27    26    2
