@<TRIPOS>MOLECULE
tmp/4oozA01.pdb
 131 132 0 0 0
SMALL
GASTEIGER

@<TRIPOS>ATOM
      1  N        -22.4420  -14.4650   -1.2580 N.3    27  TRP27      -0.1241
      2  CA       -22.7980  -14.9470   -2.5910 C.3    27  TRP27       0.1605
      3  C        -22.3560  -16.3780   -2.8820 C.2    27  TRP27       0.2264
      4  O        -21.5340  -16.9580   -2.1740 O.2    27  TRP27      -0.2867
      5  CB       -22.2130  -14.0260   -3.6670 C.3    27  TRP27       0.0550
      6  CG       -20.7220  -13.9160   -3.6490 C.ar   27  TRP27       0.0003
      7  CD1      -19.8290  -14.7650   -4.2350 C.ar   27  TRP27       0.0946
      8  CD2      -19.9480  -12.8820   -3.0340 C.ar   27  TRP27       0.0152
      9  NE1      -18.5460  -14.3290   -4.0140 N.ar   27  TRP27      -0.2442
     10  CE2      -18.5920  -13.1700   -3.2850 C.ar   27  TRP27       0.0810
     11  CE3      -20.2690  -11.7390   -2.2960 C.ar   27  TRP27       0.0012
     12  CZ2      -17.5580  -12.3650   -2.8120 C.ar   27  TRP27       0.0191
     13  CZ3      -19.2440  -10.9400   -1.8310 C.ar   27  TRP27       0.0001
     14  CH2      -17.9050  -11.2560   -2.0900 C.ar   27  TRP27       0.0015
     15  N        -26.0470  -10.9630   -0.6360 N.3    64  TRP64      -0.1241
     16  CA       -25.9860   -9.7850   -1.5010 C.3    64  TRP64       0.1605
     17  C        -26.8320   -9.9810   -2.7620 C.2    64  TRP64       0.2264
     18  O        -27.0230  -11.1060   -3.2230 O.2    64  TRP64      -0.2867
     19  CB       -24.5360   -9.4640   -1.8800 C.3    64  TRP64       0.0550
     20  CG       -23.6790   -9.0480   -0.7160 C.ar   64  TRP64       0.0003
     21  CD1      -23.9730   -9.1850    0.6090 C.ar   64  TRP64       0.0946
     22  CD2      -22.3910   -8.4210   -0.7750 C.ar   64  TRP64       0.0152
     23  NE1      -22.9510   -8.6870    1.3770 N.ar   64  TRP64      -0.2442
     24  CE2      -21.9670   -8.2120    0.5530 C.ar   64  TRP64       0.0810
     25  CE3      -21.5560   -8.0180   -1.8210 C.ar   64  TRP64       0.0012
     26  CZ2      -20.7460   -7.6190    0.8620 C.ar   64  TRP64       0.0191
     27  CZ3      -20.3450   -7.4290   -1.5120 C.ar   64  TRP64       0.0001
     28  CH2      -19.9500   -7.2360   -0.1820 C.ar   64  TRP64       0.0015
     29  N        -18.0410   -1.2920   -0.8060 N.3   116  ALA116     -0.1245
     30  CA       -16.6020   -1.5030   -0.6920 C.3   116  ALA116      0.1562
     31  C        -15.9740   -1.2430   -2.0480 C.2   116  ALA116      0.2260
     32  O        -14.9640   -0.5500   -2.1710 O.2   116  ALA116     -0.2867
     33  CB       -16.3000   -2.9130   -0.2260 C.3   116  ALA116      0.0290
     34  N        -23.5360   -1.8320    1.5040 N.3   161  ASN161     -0.1225
     35  CA       -22.4930   -2.5340    2.2380 C.3   161  ASN161      0.1785
     36  C        -21.1910   -1.7520    2.2550 C.2   161  ASN161      0.2597
     37  O        -20.5840   -1.5320    1.2140 O.2   161  ASN161     -0.2718
     38  CB       -22.2520   -3.9150    1.6320 C.3   161  ASN161      0.1169
     39  CG       -20.8900   -4.4750    1.9850 C.2   161  ASN161      0.2627
     40  OD1      -20.7080   -5.0710    3.0410 O.2   161  ASN161     -0.2716
     41  ND2      -19.9220   -4.2820    1.0960 N.am  161  ASN161     -0.0877
     42  N        -20.7690   -1.3410    3.4440 N.am  162  GLU162     -0.1979
     43  CA       -19.5220   -0.6030    3.6300 C.3   162  GLU162      0.1602
     44  C        -19.3930    0.6340    2.7480 C.2   162  GLU162      0.2287
     45  O        -18.4910    0.7100    1.9210 O.2   162  GLU162     -0.2864
     46  CB       -18.3360   -1.5290    3.3860 C.3   162  GLU162      0.0415
     47  CG       -18.4240   -2.8090    4.1780 C.3   162  GLU162      0.1163
     48  CD       -17.0690   -3.3550    4.5330 C.2   162  GLU162      0.3649
     49  OE1      -16.0670   -2.8600    3.9830 O.co2 162  GLU162     -0.2457
     50  OE2      -17.0010   -4.2960    5.3510 O.co2 162  GLU162     -0.2457
     51  N        -10.8490    2.8480    0.0320 N.3   189  TRP189     -0.1241
     52  CA        -9.9200    1.8710   -0.5240 C.3   189  TRP189      0.1605
     53  C        -10.4220    1.3340   -1.8570 C.2   189  TRP189      0.2264
     54  O         -9.6830    0.6780   -2.5910 O.2   189  TRP189     -0.2867
     55  CB        -9.6940    0.7160    0.4590 C.3   189  TRP189      0.0550
     56  CG       -10.8480   -0.2340    0.5530 C.ar  189  TRP189      0.0003
     57  CD1      -11.0740   -1.3330   -0.2260 C.ar  189  TRP189      0.0946
     58  CD2      -11.9370   -0.1700    1.4790 C.ar  189  TRP189      0.0152
     59  NE1      -12.2370   -1.9540    0.1560 N.ar  189  TRP189     -0.2442
     60  CE2      -12.7850   -1.2610    1.2030 C.ar  189  TRP189      0.0810
     61  CE3      -12.2760    0.7030    2.5150 C.ar  189  TRP189      0.0012
     62  CZ2      -13.9490   -1.5010    1.9250 C.ar  189  TRP189      0.0191
     63  CZ3      -13.4290    0.4600    3.2330 C.ar  189  TRP189      0.0001
     64  CH2      -14.2540   -0.6300    2.9310 C.ar  189  TRP189      0.0015
     65  N        -17.8030   -0.8540    7.2220 N.3   224  TRP224     -0.1241
     66  CA       -16.4020   -1.0620    7.5440 C.3   224  TRP224      0.1605
     67  C        -16.1440   -0.4470    8.9140 C.2   224  TRP224      0.2264
     68  O        -16.5110    0.7020    9.1520 O.2   224  TRP224     -0.2867
     69  CB       -15.5250   -0.4280    6.4610 C.3   224  TRP224      0.0550
     70  CG       -14.2280    0.1520    6.9290 C.ar  224  TRP224      0.0003
     71  CD1      -13.0020   -0.4440    6.9120 C.ar  224  TRP224      0.0946
     72  CD2      -14.0310    1.4600    7.4750 C.ar  224  TRP224      0.0152
     73  NE1      -12.0540    0.4150    7.4120 N.ar  224  TRP224     -0.2442
     74  CE2      -12.6640    1.5890    7.7670 C.ar  224  TRP224      0.0810
     75  CE3      -14.8830    2.5340    7.7430 C.ar  224  TRP224      0.0012
     76  CZ2      -12.1300    2.7480    8.3170 C.ar  224  TRP224      0.0191
     77  CZ3      -14.3560    3.6730    8.2910 C.ar  224  TRP224      0.0001
     78  CH2      -12.9930    3.7770    8.5710 C.ar  224  TRP224      0.0015
     79  N        -12.5770   -6.5810   11.5730 N.3   263  TYR263     -0.1241
     80  CA       -11.5010   -7.5040   11.2420 C.3   263  TYR263      0.1605
     81  C        -10.2280   -7.0170   11.9130 C.2   263  TYR263      0.2264
     82  O        -10.0810   -5.8270   12.1810 O.2   263  TYR263     -0.2867
     83  CB       -11.3010   -7.6070    9.7220 C.3   263  TYR263      0.0534
     84  CG       -12.5180   -8.0930    8.9670 C.ar  263  TYR263     -0.0201
     85  CD1      -12.7190   -9.4460    8.7330 C.ar  263  TYR263     -0.0009
     86  CD2      -13.4650   -7.1980    8.4900 C.ar  263  TYR263     -0.0009
     87  CE1      -13.8300   -9.8930    8.0510 C.ar  263  TYR263      0.0417
     88  CE2      -14.5790   -7.6350    7.8080 C.ar  263  TYR263      0.0417
     89  CZ       -14.7560   -8.9830    7.5900 C.ar  263  TYR263      0.1957
     90  OH       -15.8650   -9.4230    6.9080 O.3   263  TYR263     -0.2866
     91  N        -20.5480   -9.5190    9.6270 N.3   293  GLU293     -0.1245
     92  CA       -19.1630   -9.6980    9.1900 C.3   293  GLU293      0.1567
     93  C        -18.1240   -9.6990   10.3110 C.2   293  GLU293      0.2260
     94  O        -17.8150   -8.6680   10.9060 O.2   293  GLU293     -0.2867
     95  CB       -18.7860   -8.6270    8.1660 C.3   293  GLU293      0.0388
     96  CG       -19.6480   -8.6480    6.9290 C.3   293  GLU293      0.1160
     97  CD       -19.0180   -7.9020    5.7770 C.2   293  GLU293      0.3649
     98  OE1      -17.7840   -7.7030    5.8040 O.co2 293  GLU293     -0.2457
     99  OE2      -19.7540   -7.5310    4.8370 O.co2 293  GLU293     -0.2457
    100  N        -17.8030  -14.0980    8.4900 N.3   322  TRP322     -0.1241
    101  CA       -17.6480  -13.6330    7.1300 C.3   322  TRP322      0.1605
    102  C        -17.4610  -14.7590    6.1270 C.2   322  TRP322      0.2264
    103  O        -16.6320  -15.6530    6.2930 O.2   322  TRP322     -0.2867
    104  CB       -16.5020  -12.6480    6.9870 C.3   322  TRP322      0.0550
    105  CG       -16.3060  -12.3300    5.5430 C.ar  322  TRP322      0.0003
    106  CD1      -15.2260  -12.6450    4.7780 C.ar  322  TRP322      0.0946
    107  CD2      -17.2600  -11.7190    4.6560 C.ar  322  TRP322      0.0152
    108  NE1      -15.4260  -12.2370    3.4820 N.ar  322  TRP322     -0.2442
    109  CE2      -16.6660  -11.6640    3.3810 C.ar  322  TRP322      0.0810
    110  CE3      -18.5470  -11.1960    4.8210 C.ar  322  TRP322      0.0012
    111  CZ2      -17.3100  -11.1050    2.2800 C.ar  322  TRP322      0.0191
    112  CZ3      -19.1860  -10.6430    3.7230 C.ar  322  TRP322      0.0001
    113  CH2      -18.5650  -10.6020    2.4700 C.ar  322  TRP322      0.0015
    114  N        -11.9400  -15.4960   -0.6330 N.3   328  GLY328     -0.1210
    115  CA       -11.5020  -14.1340   -0.3990 C.3   328  GLY328      0.1956
    116  C        -10.4990  -14.0470    0.7270 C.2   328  GLY328      0.2612
    117  O        -10.0860  -15.0660    1.2700 O.2   328  GLY328     -0.2717
    118  N        -10.0980  -12.8290    1.0720 N.am  329  ASP329     -0.1959
    119  CA        -9.1850  -12.6160    2.1820 C.3   329  ASP329      0.1840
    120  C         -9.9530  -12.2710    3.4550 C.2   329  ASP329      0.2622
    121  O        -10.9480  -11.5480    3.4130 O.2   329  ASP329     -0.2715
    122  CB        -8.1600  -11.5290    1.8440 C.3   329  ASP329      0.1450
    123  CG        -6.9380  -12.0850    1.1460 C.2   329  ASP329      0.3671
    124  OD1       -6.4810  -13.1880    1.5280 O.co2 329  ASP329     -0.2456
    125  OD2       -6.4310  -11.4040    0.2330 O.co2 329  ASP329     -0.2456
    126  N         -9.5020  -12.8340    4.5740 N.am  330  CYS330     -0.1968
    127  CA       -10.1950  -12.7590    5.8610 C.3   330  CYS330      0.1712
    128  C        -11.5550  -13.4440    5.7860 C.2   330  CYS330      0.2296
    129  O        -12.5840  -12.8330    6.0670 O.2   330  CYS330     -0.2864
    130  CB       -10.3580  -11.3070    6.3230 C.3   330  CYS330      0.0983
    131  SG        -8.8120  -10.4020    6.5380 S.3   330  CYS330     -0.0798
@<TRIPOS>BOND
     1     7     9   ar
     2     7     6   ar
     3     9    10   ar
     4     5     6    1
     5     5     2    1
     6     6     8   ar
     7    10     8   ar
     8    10    12   ar
     9    18    17    2
    10     8    11   ar
    11     3     2    1
    12     3     4    2
    13    12    14   ar
    14    17    16    1
    15     2     1    1
    16    54    53    2
    17    11    13   ar
    18    32    31    2
    19    14    13   ar
    20    31    30    1
    21    19    16    1
    22    19    20    1
    23    53    52    1
    24    25    27   ar
    25    25    22   ar
    26    27    28   ar
    27    16    15    1
    28    29    30    1
    29    22    20   ar
    30    22    24   ar
    31    20    21   ar
    32    30    33    1
    33   114   115    1
    34    52    51    1
    35    52    55    1
    36   115   116    1
    37    57    59   ar
    38    57    56   ar
    39    28    26   ar
    40    59    60   ar
    41   125   123   ar
    42    55    56    1
    43    24    26   ar
    44    24    23   ar
    45    56    58   ar
    46    21    23   ar
    47   116   118   am
    48   116   117    2
    49   118   119    1
    50    41    39   am
    51   123   124   ar
    52   123   122    1
    53    60    58   ar
    54    60    62   ar
    55    37    36    2
    56    58    61   ar
    57    34    35    1
    58    38    39    1
    59    38    35    1
    60   122   119    1
    61    45    44    2
    62    62    64   ar
    63    39    40    2
    64   119   120    1
    65    35    36    1
    66    36    42   am
    67   111   113   ar
    68   111   109   ar
    69   113   112   ar
    70    61    63   ar
    71    44    43    1
    72    64    63   ar
    73   109   108   ar
    74   109   107   ar
    75    46    43    1
    76    46    47    1
    77   121   120    2
    78    42    43    1
    79   120   126   am
    80   108   106   ar
    81   112   110   ar
    82    49    48   ar
    83    47    48    1
    84    48    50   ar
    85   126   127    1
    86   107   110   ar
    87   107   105   ar
    88   106   105   ar
    89    99    97   ar
    90   105   104    1
    91    97    98   ar
    92    97    96    1
    93   128   127    1
    94   128   129    2
    95   127   130    1
    96   102   103    2
    97   102   101    1
    98   130   131    1
    99    69    70    1
   100    69    66    1
   101    90    89    1
   102    71    70   ar
   103    71    73   ar
   104    96    95    1
   105    70    72   ar
   106   104   101    1
   107   101   100    1
   108    65    66    1
   109    73    74   ar
   110    72    75   ar
   111    72    74   ar
   112    66    67    1
   113    89    88   ar
   114    89    87   ar
   115    75    77   ar
   116    74    76   ar
   117    88    86   ar
   118    87    85   ar
   119    95    92    1
   120    77    78   ar
   121    76    78   ar
   122    86    84   ar
   123    85    84   ar
   124    67    68    2
   125    84    83    1
   126    92    91    1
   127    92    93    1
   128    83    80    1
   129    93    94    2
   130    80    79    1
   131    80    81    1
   132    81    82    2
