@<TRIPOS>MOLECULE
tmp/4oozA02.pdb
 102 99 0 0 0
SMALL
GASTEIGER

@<TRIPOS>ATOM
      1  N        -29.4050    5.1110  -21.2700 N.3    78  HIS78      -0.1241
      2  CA       -29.1750    6.4140  -20.6550 C.3    78  HIS78       0.1621
      3  C        -28.8090    6.3090  -19.1810 C.2    78  HIS78       0.2264
      4  O        -28.5040    7.3130  -18.5430 O.2    78  HIS78      -0.2867
      5  CB       -30.4100    7.2990  -20.8200 C.3    78  HIS78       0.0745
      6  CG       -30.8370    7.4720  -22.2440 C.ar   78  HIS78       0.0817
      7  ND1      -32.0410    7.0010  -22.7230 N.ar   78  HIS78      -0.2268
      8  CD2      -30.2140    8.0510  -23.2970 C.ar   78  HIS78       0.1154
      9  CE1      -32.1440    7.2900  -24.0080 C.ar   78  HIS78       0.1986
     10  NE2      -31.0490    7.9270  -24.3810 N.ar   78  HIS78      -0.2212
     11  N        -30.8810    4.9160  -16.9010 N.3    80  PHE80      -0.1241
     12  CA       -32.1070    4.8210  -16.1220 C.3    80  PHE80       0.1605
     13  C        -32.4780    3.3540  -15.9410 C.2    80  PHE80       0.2264
     14  O        -32.1890    2.5290  -16.8030 O.2    80  PHE80      -0.2867
     15  CB       -33.2450    5.5880  -16.7990 C.3    80  PHE80       0.0534
     16  CG       -33.1140    7.0840  -16.6980 C.ar   80  PHE80      -0.0203
     17  CD1      -32.1520    7.7610  -17.4260 C.ar   80  PHE80      -0.0042
     18  CD2      -33.9620    7.8130  -15.8820 C.ar   80  PHE80      -0.0042
     19  CE1      -32.0320    9.1350  -17.3350 C.ar   80  PHE80      -0.0003
     20  CE2      -33.8470    9.1880  -15.7900 C.ar   80  PHE80      -0.0003
     21  CZ       -32.8810    9.8490  -16.5170 C.ar   80  PHE80      -0.0000
     22  N        -22.9630    3.8950   -9.8800 N.3   124  GLN124     -0.1231
     23  CA       -22.2550    5.0550   -9.3490 C.3   124  GLN124      0.1698
     24  C        -23.0450    6.3470   -9.5360 C.2   124  GLN124      0.2592
     25  O        -22.9250    7.2750   -8.7420 O.2   124  GLN124     -0.2718
     26  CB       -20.8810    5.1960  -10.0060 C.3   124  GLN124      0.0381
     27  CG       -19.8860    4.1170   -9.6200 C.3   124  GLN124      0.0905
     28  CD       -18.6140    4.1750  -10.4410 C.2   124  GLN124      0.2608
     29  OE1      -18.2660    5.2160  -10.9970 O.2   124  GLN124     -0.2717
     30  NE2      -17.9180    3.0490  -10.5310 N.am  124  GLN124     -0.0878
     31  N        -23.8540    6.4100  -10.5860 N.am  125  ASN125     -0.1974
     32  CA       -24.6300    7.6130  -10.8510 C.3   125  ASN125      0.1688
     33  C        -25.9440    7.6480  -10.0840 C.2   125  ASN125      0.2292
     34  O        -26.6310    8.6700  -10.0680 O.2   125  ASN125     -0.2864
     35  CB       -24.8950    7.7580  -12.3460 C.3   125  ASN125      0.1181
     36  CG       -23.6910    8.2780  -13.0970 C.2   125  ASN125      0.2629
     37  OD1      -22.7280    8.7490  -12.4910 O.2   125  ASN125     -0.2716
     38  ND2      -23.7410    8.2090  -14.4220 N.am  125  ASN125     -0.0877
     39  N        -25.6080   10.2780   -7.5180 N.3   128  TRP128     -0.1227
     40  CA       -25.5360   11.6600   -7.9710 C.3   128  TRP128      0.1737
     41  C        -26.8260   12.1370   -8.6310 C.2   128  TRP128      0.2595
     42  O        -27.3130   13.2260   -8.3320 O.2   128  TRP128     -0.2718
     43  CB       -24.3670   11.8340   -8.9370 C.3   128  TRP128      0.0564
     44  CG       -23.0200   11.6880   -8.3040 C.ar  128  TRP128      0.0003
     45  CD1      -22.2310   10.5760   -8.2970 C.ar  128  TRP128      0.0946
     46  CD2      -22.2970   12.6980   -7.5920 C.ar  128  TRP128      0.0152
     47  NE1      -21.0610   10.8310   -7.6250 N.ar  128  TRP128     -0.2442
     48  CE2      -21.0780   12.1270   -7.1810 C.ar  128  TRP128      0.0810
     49  CE3      -22.5640   14.0300   -7.2630 C.ar  128  TRP128      0.0012
     50  CZ2      -20.1280   12.8410   -6.4580 C.ar  128  TRP128      0.0191
     51  CZ3      -21.6210   14.7360   -6.5470 C.ar  128  TRP128      0.0001
     52  CH2      -20.4180   14.1410   -6.1510 C.ar  128  TRP128      0.0015
     53  N        -27.3760   11.3270   -9.5290 N.am  129  ASP129     -0.1974
     54  CA       -28.5780   11.7150  -10.2580 C.3   129  ASP129      0.1709
     55  C        -29.8360   11.2850   -9.5120 C.2   129  ASP129      0.2293
     56  O        -30.0310   10.1030   -9.2280 O.2   129  ASP129     -0.2864
     57  CB       -28.5690   11.1180  -11.6710 C.3   129  ASP129      0.1436
     58  CG       -29.5990   11.7580  -12.5870 C.2   129  ASP129      0.3671
     59  OD1      -30.7930   11.7910  -12.2250 O.co2 129  ASP129     -0.2456
     60  OD2      -29.2150   12.2390  -13.6710 O.co2 129  ASP129     -0.2456
     61  N        -32.9490   11.5610  -10.6460 N.3   131  SER131     -0.1202
     62  CA       -33.9150   10.9680  -11.5650 C.3   131  SER131      0.2020
     63  C        -33.5790    9.5130  -11.8770 C.2   131  SER131      0.2618
     64  O        -34.4700    8.6940  -12.1090 O.2   131  SER131     -0.2717
     65  CB       -33.9860   11.7830  -12.8560 C.3   131  SER131      0.2103
     66  OG       -32.6970   11.9730  -13.4100 O.3   131  SER131     -0.2182
     67  N        -32.2910    9.1920  -11.8780 N.am  132  LYS132     -0.1979
     68  CA       -31.8640    7.8170  -12.0830 C.3   132  LYS132      0.1596
     69  C        -32.1190    6.9860  -10.8270 C.2   132  LYS132      0.2287
     70  O        -32.5510    5.8320  -10.9110 O.2   132  LYS132     -0.2864
     71  CB       -30.3900    7.7740  -12.4810 C.3   132  LYS132      0.0298
     72  CG       -30.1140    8.4690  -13.8060 C.3   132  LYS132      0.0038
     73  CD       -28.6540    8.3660  -14.1980 C.3   132  LYS132      0.0206
     74  CE       -28.4220    8.8790  -15.6090 C.3   132  LYS132      0.1093
     75  NZ       -26.9950    8.7180  -15.9960 N.3   132  LYS132     -0.1314
     76  N        -15.6020    9.5580   -0.4950 N.3   168  GLN168     -0.1245
     77  CA       -14.6590   10.6390   -0.7420 C.3   168  GLN168      0.1566
     78  C        -14.5430   11.4900    0.5180 C.2   168  GLN168      0.2260
     79  O        -15.3300   12.4150    0.7200 O.2   168  GLN168     -0.2867
     80  CB       -15.1000   11.4920   -1.9340 C.3   168  GLN168      0.0367
     81  CG       -13.9970   12.3680   -2.5100 C.3   168  GLN168      0.0905
     82  CD       -14.4470   13.1490   -3.7330 C.2   168  GLN168      0.2608
     83  OE1      -15.3070   14.0260   -3.6420 O.2   168  GLN168     -0.2717
     84  NE2      -13.8660   12.8310   -4.8850 N.am  168  GLN168     -0.0878
     85  N        -12.2300    6.9230   -4.1680 N.3   192  LYS192     -0.1231
     86  CA       -12.9900    7.9890   -3.5310 C.3   192  LYS192      0.1693
     87  C        -13.9720    8.6540   -4.4860 C.2   192  LYS192      0.2591
     88  O        -13.6550    9.6630   -5.1150 O.2   192  LYS192     -0.2718
     89  CB       -12.0310    9.0200   -2.9380 C.3   192  LYS192      0.0285
     90  CG       -11.2130    8.4520   -1.7910 C.3   192  LYS192      0.0035
     91  CD        -9.9710    9.2610   -1.4950 C.3   192  LYS192      0.0206
     92  CE        -9.1540    8.5740   -0.4140 C.3   192  LYS192      0.1093
     93  NZ        -7.9110    9.3190   -0.0880 N.3   192  LYS192     -0.1314
     94  N        -15.1710    8.0880   -4.5770 N.am  193  LYS193     -0.1980
     95  CA       -16.1750    8.5560   -5.5270 C.3   193  LYS193      0.1596
     96  C        -17.2450    9.4240   -4.8730 C.2   193  LYS193      0.2287
     97  O        -17.5450   10.5160   -5.3520 O.2   193  LYS193     -0.2864
     98  CB       -16.8470    7.3680   -6.2210 C.3   193  LYS193      0.0298
     99  CG       -15.8940    6.2650   -6.6400 C.3   193  LYS193      0.0038
    100  CD       -16.6190    5.1620   -7.3930 C.3   193  LYS193      0.0206
    101  CE       -15.7080    3.9660   -7.6010 C.3   193  LYS193      0.1093
    102  NZ       -14.3790    4.3860   -8.1150 N.3   193  LYS193     -0.1314
@<TRIPOS>BOND
     1    10     9   ar
     2    10     8   ar
     3     9     7   ar
     4     8     6   ar
     5     7     6   ar
     6     6     5    1
     7     1     2    1
     8     5     2    1
     9     2     3    1
    10     3     4    2
    11    17    19   ar
    12    17    16   ar
    13    19    21   ar
    14    11    12    1
    15    14    13    2
    16    15    16    1
    17    15    12    1
    18    16    18   ar
    19    21    20   ar
    20    12    13    1
    21    75    74    1
    22    18    20   ar
    23    74    73    1
    24    38    36   am
    25    73    72    1
    26    72    71    1
    27    60    58   ar
    28    66    65    1
    29    36    37    2
    30    36    35    1
    31    65    62    1
    32    58    59   ar
    33    58    57    1
    34    71    68    1
    35    35    32    1
    36    64    63    2
    37    68    67    1
    38    68    69    1
    39    67    63   am
    40    63    62    1
    41    57    54    1
    42    62    61    1
    43    29    28    2
    44    70    69    2
    45    32    31    1
    46    32    33    1
    47    31    24   am
    48    30    28   am
    49    28    27    1
    50    54    53    1
    51    54    55    1
    52    33    34    2
    53    26    27    1
    54    26    23    1
    55    22    23    1
    56    24    23    1
    57    24    25    2
    58    53    41   am
    59    55    56    2
    60    43    44    1
    61    43    40    1
    62    41    42    2
    63    41    40    1
    64    44    45   ar
    65    44    46   ar
    66    45    47   ar
    67   102   101    1
    68    40    39    1
    69    47    48   ar
    70   101   100    1
    71    46    49   ar
    72    46    48   ar
    73   100    99    1
    74    49    51   ar
    75    48    50   ar
    76    99    98    1
    77    51    52   ar
    78    50    52   ar
    79    98    95    1
    80    95    96    1
    81    95    94    1
    82    97    96    2
    83    88    87    2
    84    84    82   am
    85    94    87   am
    86    87    86    1
    87    85    86    1
    88    82    83    2
    89    82    81    1
    90    86    89    1
    91    89    90    1
    92    81    80    1
    93    80    77    1
    94    90    91    1
    95    91    92    1
    96    77    76    1
    97    77    78    1
    98    92    93    1
    99    78    79    2
