@<TRIPOS>MOLECULE
tmp/4oozA00.pdb
 115 113 0 0 0
SMALL
GASTEIGER

@<TRIPOS>ATOM
      1  N        -20.7690   -1.3410    3.4440 N.3   162  GLU162     -0.1245
      2  CA       -19.5220   -0.6030    3.6300 C.3   162  GLU162      0.1567
      3  C        -19.3930    0.6340    2.7480 C.2   162  GLU162      0.2260
      4  O        -18.4910    0.7100    1.9210 O.2   162  GLU162     -0.2867
      5  CB       -18.3360   -1.5290    3.3860 C.3   162  GLU162      0.0388
      6  CG       -18.4240   -2.8090    4.1780 C.3   162  GLU162      0.1160
      7  CD       -17.0690   -3.3550    4.5330 C.2   162  GLU162      0.3649
      8  OE1      -16.0670   -2.8600    3.9830 O.co2 162  GLU162     -0.2457
      9  OE2      -17.0010   -4.2960    5.3510 O.co2 162  GLU162     -0.2457
     10  N         -7.1000    8.8070    6.8810 N.3   184  ALA184     -0.1231
     11  CA        -5.9400    8.1600    7.4820 C.3   184  ALA184      0.1694
     12  C         -6.2870    6.7800    8.0300 C.2   184  ALA184      0.2592
     13  O         -5.4060    5.9430    8.2280 O.2   184  ALA184     -0.2718
     14  CB        -5.3660    9.0320    8.5810 C.3   184  ALA184      0.0304
     15  N         -7.5720    6.5450    8.2690 N.am  185  GLN185     -0.1966
     16  CA        -8.0220    5.2750    8.8260 C.3   185  GLN185      0.1733
     17  C         -8.1480    4.1960    7.7530 C.2   185  GLN185      0.2616
     18  O         -8.3380    3.0200    8.0650 O.2   185  GLN185     -0.2715
     19  CB        -9.3600    5.4550    9.5480 C.3   185  GLN185      0.0408
     20  CG        -9.4030    6.6230   10.5310 C.3   185  GLN185      0.0908
     21  CD        -8.6440    6.3600   11.8250 C.2   185  GLN185      0.2608
     22  OE1       -7.8140    5.4540   11.9080 O.2   185  GLN185     -0.2717
     23  NE2       -8.9350    7.1570   12.8450 N.am  185  GLN185     -0.0878
     24  N         -8.0480    4.6010    6.4900 N.am  186  GLY186     -0.1955
     25  CA        -8.0540    3.6570    5.3870 C.3   186  GLY186      0.1869
     26  C         -9.3560    3.5920    4.6090 C.2   186  GLY186      0.2309
     27  O         -9.6270    2.6030    3.9270 O.2   186  GLY186     -0.2863
     28  N        -10.8490    2.8480    0.0320 N.3   189  TRP189     -0.1241
     29  CA        -9.9200    1.8710   -0.5240 C.3   189  TRP189      0.1605
     30  C        -10.4220    1.3340   -1.8570 C.2   189  TRP189      0.2264
     31  O         -9.6830    0.6780   -2.5910 O.2   189  TRP189     -0.2867
     32  CB        -9.6940    0.7160    0.4590 C.3   189  TRP189      0.0550
     33  CG       -10.8480   -0.2340    0.5530 C.ar  189  TRP189      0.0003
     34  CD1      -11.0740   -1.3330   -0.2260 C.ar  189  TRP189      0.0946
     35  CD2      -11.9370   -0.1700    1.4790 C.ar  189  TRP189      0.0152
     36  NE1      -12.2370   -1.9540    0.1560 N.ar  189  TRP189     -0.2442
     37  CE2      -12.7850   -1.2610    1.2030 C.ar  189  TRP189      0.0810
     38  CE3      -12.2760    0.7030    2.5150 C.ar  189  TRP189      0.0012
     39  CZ2      -13.9490   -1.5010    1.9250 C.ar  189  TRP189      0.0191
     40  CZ3      -13.4290    0.4600    3.2330 C.ar  189  TRP189      0.0001
     41  CH2      -14.2540   -0.6300    2.9310 C.ar  189  TRP189      0.0015
     42  N        -17.8030   -0.8540    7.2220 N.3   224  TRP224     -0.1227
     43  CA       -16.4020   -1.0620    7.5440 C.3   224  TRP224      0.1737
     44  C        -16.1440   -0.4470    8.9140 C.2   224  TRP224      0.2596
     45  O        -16.5110    0.7020    9.1520 O.2   224  TRP224     -0.2718
     46  CB       -15.5250   -0.4280    6.4610 C.3   224  TRP224      0.0564
     47  CG       -14.2280    0.1520    6.9290 C.ar  224  TRP224      0.0003
     48  CD1      -13.0020   -0.4440    6.9120 C.ar  224  TRP224      0.0946
     49  CD2      -14.0310    1.4600    7.4750 C.ar  224  TRP224      0.0152
     50  NE1      -12.0540    0.4150    7.4120 N.ar  224  TRP224     -0.2442
     51  CE2      -12.6640    1.5890    7.7670 C.ar  224  TRP224      0.0810
     52  CE3      -14.8830    2.5340    7.7430 C.ar  224  TRP224      0.0012
     53  CZ2      -12.1300    2.7480    8.3170 C.ar  224  TRP224      0.0191
     54  CZ3      -14.3560    3.6730    8.2910 C.ar  224  TRP224      0.0001
     55  CH2      -12.9930    3.7770    8.5710 C.ar  224  TRP224      0.0015
     56  N        -15.5850   -1.2350    9.8290 N.am  225  SER225     -0.1952
     57  CA       -15.2040   -0.7680   11.1640 C.3   225  SER225      0.1924
     58  C        -16.3240   -0.0750   11.9440 C.2   225  SER225      0.2314
     59  O        -17.4610    0.0310   11.4910 O.2   225  SER225     -0.2863
     60  CB       -14.0090    0.1830   11.0750 C.3   225  SER225      0.2116
     61  OG       -14.4300    1.4880   10.7240 O.3   225  SER225     -0.2180
     62  N        -18.9780   -3.9860   10.9280 N.3   261  HIS261     -0.1241
     63  CA       -18.0930   -5.0580   10.4850 C.3   261  HIS261      0.1621
     64  C        -16.7610   -4.8860   11.1910 C.2   261  HIS261      0.2264
     65  O        -16.3420   -3.7610   11.4440 O.2   261  HIS261     -0.2867
     66  CB       -17.8840   -5.0330    8.9660 C.3   261  HIS261      0.0745
     67  CG       -19.1510   -5.0030    8.1730 C.ar  261  HIS261      0.0817
     68  ND1      -19.1660   -4.8450    6.8010 N.ar  261  HIS261     -0.2268
     69  CD2      -20.4470   -5.1170    8.5470 C.ar  261  HIS261      0.1154
     70  CE1      -20.4100   -4.8540    6.3730 C.ar  261  HIS261      0.1986
     71  NE2      -21.2110   -5.0200    7.4120 N.ar  261  HIS261     -0.2212
     72  N        -12.5770   -6.5810   11.5730 N.3   263  TYR263     -0.1241
     73  CA       -11.5010   -7.5040   11.2420 C.3   263  TYR263      0.1605
     74  C        -10.2280   -7.0170   11.9130 C.2   263  TYR263      0.2264
     75  O        -10.0810   -5.8270   12.1810 O.2   263  TYR263     -0.2867
     76  CB       -11.3010   -7.6070    9.7220 C.3   263  TYR263      0.0534
     77  CG       -12.5180   -8.0930    8.9670 C.ar  263  TYR263     -0.0201
     78  CD1      -12.7190   -9.4460    8.7330 C.ar  263  TYR263     -0.0009
     79  CD2      -13.4650   -7.1980    8.4900 C.ar  263  TYR263     -0.0009
     80  CE1      -13.8300   -9.8930    8.0510 C.ar  263  TYR263      0.0417
     81  CE2      -14.5790   -7.6350    7.8080 C.ar  263  TYR263      0.0417
     82  CZ       -14.7560   -8.9830    7.5900 C.ar  263  TYR263      0.1957
     83  OH       -15.8650   -9.4230    6.9080 O.3   263  TYR263     -0.2866
     84  N         -6.4630   -6.0220   11.8180 N.3   265  HIS265     -0.1241
     85  CA        -5.4040   -5.6100   10.9090 C.3   265  HIS265      0.1621
     86  C         -4.0610   -5.8670   11.5820 C.2   265  HIS265      0.2264
     87  O         -3.7140   -5.1720   12.5370 O.2   265  HIS265     -0.2867
     88  CB        -5.5570   -4.1340   10.5300 C.3   265  HIS265      0.0745
     89  CG        -6.9680   -3.7300   10.2210 C.ar  265  HIS265      0.0817
     90  ND1       -7.3800   -2.4150   10.2290 N.ar  265  HIS265     -0.2268
     91  CD2       -8.0570   -4.4640    9.8920 C.ar  265  HIS265      0.1154
     92  CE1       -8.6650   -2.3580    9.9240 C.ar  265  HIS265      0.1986
     93  NE2       -9.0990   -3.5860    9.7140 N.ar  265  HIS265     -0.2212
     94  N         -8.7800   -3.2200   16.1650 N.3   270  ASN270     -0.1240
     95  CA        -8.8220   -1.7940   16.3970 C.3   270  ASN270      0.1653
     96  C         -9.1000   -1.6440   17.8790 C.2   270  ASN270      0.2266
     97  O         -9.8600   -2.4270   18.4460 O.2   270  ASN270     -0.2867
     98  CB        -9.8870   -1.1080   15.5430 C.3   270  ASN270      0.1155
     99  CG        -9.4740   -0.9810   14.0870 C.2   270  ASN270      0.2627
    100  OD1       -8.5690   -1.6730   13.6220 O.2   270  ASN270     -0.2716
    101  ND2      -10.1370   -0.0890   13.3630 N.am  270  ASN270     -0.0877
    102  N        -10.0980  -12.8290    1.0720 N.3   329  ASP329     -0.1225
    103  CA        -9.1850  -12.6160    2.1820 C.3   329  ASP329      0.1805
    104  C         -9.9530  -12.2710    3.4550 C.2   329  ASP329      0.2598
    105  O        -10.9480  -11.5480    3.4130 O.2   329  ASP329     -0.2718
    106  CB        -8.1600  -11.5290    1.8440 C.3   329  ASP329      0.1424
    107  CG        -6.9380  -12.0850    1.1460 C.2   329  ASP329      0.3668
    108  OD1       -6.4810  -13.1880    1.5280 O.co2 329  ASP329     -0.2456
    109  OD2       -6.4310  -11.4040    0.2330 O.co2 329  ASP329     -0.2456
    110  N         -9.5020  -12.8340    4.5740 N.am  330  CYS330     -0.1970
    111  CA       -10.1950  -12.7590    5.8610 C.3   330  CYS330      0.1712
    112  C        -11.5550  -13.4440    5.7860 C.2   330  CYS330      0.2296
    113  O        -12.5840  -12.8330    6.0670 O.2   330  CYS330     -0.2864
    114  CB       -10.3580  -11.3070    6.3230 C.3   330  CYS330      0.0983
    115  SG        -8.8120  -10.4020    6.5380 S.3   330  CYS330     -0.0798
@<TRIPOS>BOND
     1    31    30    2
     2    30    29    1
     3    29    28    1
     4    29    32    1
     5    34    36   ar
     6    34    33   ar
     7    36    37   ar
     8   109   107   ar
     9    32    33    1
    10    33    35   ar
    11   102   103    1
    12   107   108   ar
    13   107   106    1
    14    37    35   ar
    15    37    39   ar
    16    35    38   ar
    17   106   103    1
    18     4     3    2
    19    39    41   ar
    20   103   104    1
    21    38    40   ar
    22     3     2    1
    23    41    40   ar
    24     5     2    1
    25     5     6    1
    26   105   104    2
    27     1     2    1
    28   104   110   am
    29    27    26    2
    30     8     7   ar
    31     6     7    1
    32     7     9   ar
    33   110   111    1
    34    26    25    1
    35    25    24    1
    36   112   111    1
    37   112   113    2
    38   111   114    1
    39   114   115    1
    40    70    68   ar
    41    70    71   ar
    42    46    47    1
    43    46    43    1
    44    24    17   am
    45    68    67   ar
    46    10    11    1
    47    83    82    1
    48    48    47   ar
    49    48    50   ar
    50    47    49   ar
    51    42    43    1
    52    50    51   ar
    53    71    69   ar
    54    49    52   ar
    55    49    51   ar
    56    11    12    1
    57    11    14    1
    58    43    44    1
    59    82    81   ar
    60    82    80   ar
    61    52    54   ar
    62    17    18    2
    63    17    16    1
    64    51    53   ar
    65    81    79   ar
    66    12    13    2
    67    12    15   am
    68    80    78   ar
    69    67    69   ar
    70    67    66    1
    71    15    16    1
    72    54    55   ar
    73    53    55   ar
    74    79    77   ar
    75    78    77   ar
    76    16    19    1
    77    44    45    2
    78    44    56   am
    79    66    63    1
    80    77    76    1
    81    19    20    1
    82    93    91   ar
    83    93    92   ar
    84    76    73    1
    85    56    57    1
    86    91    89   ar
    87    92    90   ar
    88    89    90   ar
    89    89    88    1
    90    63    62    1
    91    63    64    1
    92    88    85    1
    93    20    21    1
    94    61    60    1
    95    85    86    1
    96    85    84    1
    97    60    57    1
    98    57    58    1
    99    64    65    2
   100    73    72    1
   101    73    74    1
   102    59    58    2
   103    86    87    2
   104    21    22    2
   105    21    23   am
   106    74    75    2
   107   101    99   am
   108   100    99    2
   109    99    98    1
   110    98    95    1
   111    94    95    1
   112    95    96    1
   113    96    97    2
