@<TRIPOS>MOLECULE
tmp/4op0A00.pdb
 213 202 0 0 0
SMALL
GASTEIGER

@<TRIPOS>ATOM
      1  N         27.9030   -5.5330   36.1280 N.3    38  SER38      -0.1202
      2  CA        26.5190   -5.0400   36.1910 C.3    38  SER38       0.2020
      3  C         26.5540   -3.5320   36.1940 C.2    38  SER38       0.2619
      4  O         27.1840   -2.9210   37.0490 O.2    38  SER38      -0.2717
      5  CB        25.8670   -5.5180   37.4930 C.3    38  SER38       0.2103
      6  OG        24.6150   -4.8990   37.7190 O.3    38  SER38      -0.2182
      7  N         25.8470   -2.9270   35.2470 N.am   39  THR39      -0.1938
      8  CA        25.7160   -1.4910   35.2130 C.3    39  THR39       0.2028
      9  C         25.0120   -0.9740   36.4750 C.2    39  THR39       0.2642
     10  O         25.3520    0.1100   36.9810 O.2    39  THR39      -0.2714
     11  CB        24.9670   -1.0040   33.9620 C.3    39  THR39       0.1808
     12  OG1       23.6510   -1.5720   33.8990 O.3    39  THR39      -0.2208
     13  CG2       25.7370   -1.2900   32.6870 C.3    39  THR39       0.0379
     14  N         24.0010   -1.6770   36.9300 N.am   40  ASN40      -0.1971
     15  CA        23.3400   -1.2960   38.1480 C.3    40  ASN40       0.1688
     16  C         24.3240   -1.3030   39.2840 C.2    40  ASN40       0.2292
     17  O         24.4080   -0.3430   40.0320 O.2    40  ASN40      -0.2864
     18  CB        22.1730   -2.2150   38.4770 C.3    40  ASN40       0.1181
     19  CG        20.8420   -1.7020   37.9780 C.2    40  ASN40       0.2629
     20  OD1       20.7160   -1.0550   36.9480 O.2    40  ASN40      -0.2716
     21  ND2       19.7700   -2.0480   38.7360 N.am   40  ASN40      -0.0877
     22  N         27.7710   -7.3570   29.4300 N.3    63  GLN63      -0.1245
     23  CA        27.5780   -7.4260   30.8850 C.3    63  GLN63       0.1566
     24  C         27.6600   -8.8610   31.3310 C.2    63  GLN63       0.2260
     25  O         26.8420   -9.7080   30.9300 O.2    63  GLN63      -0.2867
     26  CB        26.2180   -6.7980   31.2330 C.3    63  GLN63       0.0367
     27  CG        25.9140   -6.6250   32.7330 C.3    63  GLN63       0.0905
     28  CD        24.5880   -5.9310   32.9560 C.2    63  GLN63       0.2608
     29  OE1       24.5350   -4.7750   33.3750 O.2    63  GLN63      -0.2717
     30  NE2       23.5080   -6.6280   32.6660 N.am   63  GLN63      -0.0878
     31  N         25.0130   -9.9240   35.0790 N.3    66  GLY66      -0.1210
     32  CA        23.7990   -9.1380   35.1390 C.3    66  GLY66       0.1956
     33  C         22.8910   -9.5770   36.2550 C.2    66  GLY66       0.2612
     34  O         22.8330  -10.7660   36.6050 O.2    66  GLY66      -0.2717
     35  N         22.1630   -8.5980   36.7680 N.am   67  ARG67      -0.1965
     36  CA        21.1630   -8.8020   37.8190 C.3    67  ARG67       0.1729
     37  C         19.7510   -8.7880   37.3060 C.2    67  ARG67       0.2617
     38  O         19.3290   -7.8450   36.5990 O.2    67  ARG67      -0.2715
     39  CB        21.3000   -7.6920   38.8610 C.3    67  ARG67       0.0348
     40  CG        22.5940   -7.6540   39.5960 C.3    67  ARG67       0.0492
     41  CD        22.7510   -6.3050   40.2970 C.3    67  ARG67       0.2205
     42  NE        23.8840   -6.3040   41.2120 N.pl3  67  ARG67      -0.0865
     43  CZ        24.1160   -5.3610   42.1250 C.cat  67  ARG67       0.5346
     44  NH1       23.3250   -4.2890   42.2350 N.pl3  67  ARG67       0.1354
     45  NH2       25.1980   -5.4690   42.8850 N.pl3  67  ARG67       0.1354
     46  N         19.0290   -9.8450   37.6800 N.am   68  GLY68      -0.1940
     47  CA        17.5780   -9.8660   37.6270 C.3    68  GLY68       0.2014
     48  C         17.0490   -9.4180   38.9720 C.2    68  GLY68       0.2638
     49  O         17.7560   -8.8270   39.7980 O.2    68  GLY68      -0.2714
     50  N         15.8050   -9.7330   39.2630 N.am   69  ARG69      -0.1977
     51  CA        15.2690   -9.2090   40.4890 C.3    69  ARG69       0.1597
     52  C         15.2560  -10.3350   41.4930 C.2    69  ARG69       0.2287
     53  O         15.1740  -11.5160   41.1210 O.2    69  ARG69      -0.2864
     54  CB        13.8770   -8.5670   40.2650 C.3    69  ARG69       0.0334
     55  CG        13.4150   -7.7190   41.4400 C.3    69  ARG69       0.0492
     56  CD        12.1730   -6.9280   41.0540 C.3    69  ARG69       0.2205
     57  NE        11.7170   -5.9910   42.1010 N.pl3  69  ARG69      -0.0865
     58  CZ        10.6190   -5.2400   42.0020 C.cat  69  ARG69       0.5346
     59  NH1        9.8420   -5.3200   40.9240 N.pl3  69  ARG69       0.1354
     60  NH2       10.2760   -4.4060   42.9880 N.pl3  69  ARG69       0.1354
     61  N         17.7660  -13.4470   40.8930 N.3    72  ARG72      -0.1231
     62  CA        17.8820  -14.0030   39.5660 C.3    72  ARG72       0.1694
     63  C         18.8990  -13.2100   38.7510 C.2    72  ARG72       0.2593
     64  O         19.3200  -12.1020   39.1270 O.2    72  ARG72      -0.2718
     65  CB        16.5480  -13.9570   38.8540 C.3    72  ARG72       0.0321
     66  CG        15.5320  -14.8540   39.5370 C.3    72  ARG72       0.0489
     67  CD        14.5650  -15.4350   38.5620 C.3    72  ARG72       0.2205
     68  NE        13.5510  -14.4680   38.2330 N.pl3  72  ARG72      -0.0865
     69  CZ        12.3270  -14.4250   38.7670 C.cat  72  ARG72       0.5346
     70  NH1       11.9300  -15.3050   39.6650 N.pl3  72  ARG72       0.1354
     71  NH2       11.4900  -13.4820   38.3810 N.pl3  72  ARG72       0.1354
     72  N         19.2290  -13.7620   37.5940 N.am   73  GLY73      -0.1942
     73  CA        20.2790  -13.2090   36.7350 C.3    73  GLY73       0.2014
     74  C         19.7570  -12.4820   35.5090 C.2    73  GLY73       0.2639
     75  O         18.5220  -12.4860   35.2160 O.2    73  GLY73      -0.2714
     76  N         20.6720  -11.8960   34.7490 N.am   74  TRP74      -0.1959
     77  CA        20.3590  -11.3430   33.4450 C.3    74  TRP74       0.1771
     78  C         21.5310  -11.7290   32.5960 C.2    74  TRP74       0.2619
     79  O         22.6710  -11.4720   33.0000 O.2    74  TRP74      -0.2715
     80  CB        20.1780   -9.8240   33.4660 C.3    74  TRP74       0.0590
     81  CG        19.6460   -9.3040   32.1870 C.ar   74  TRP74       0.0006
     82  CD1       20.3100   -8.5930   31.2390 C.ar   74  TRP74       0.0946
     83  CD2       18.3260   -9.4700   31.7210 C.ar   74  TRP74       0.0152
     84  NE1       19.4730   -8.2780   30.1850 N.ar   74  TRP74      -0.2442
     85  CE2       18.2430   -8.8140   30.4450 C.ar   74  TRP74       0.0810
     86  CE3       17.2100  -10.1120   32.2250 C.ar   74  TRP74       0.0012
     87  CZ2       17.0640   -8.7630   29.7150 C.ar   74  TRP74       0.0191
     88  CZ3       16.0480  -10.0810   31.4620 C.ar   74  TRP74       0.0001
     89  CH2       15.9990   -9.4220   30.2370 C.ar   74  TRP74       0.0015
     90  N         21.2610  -12.4180   31.4890 N.am   75  ALA75      -0.1977
     91  CA        22.3010  -12.8560   30.5570 C.3    75  ALA75       0.1597
     92  C         22.4580  -11.9370   29.3440 C.2    75  ALA75       0.2287
     93  O         21.5050  -11.2700   28.9440 O.2    75  ALA75      -0.2864
     94  CB        22.0270  -14.3070   30.1000 C.3    75  ALA75       0.0319
     95  N         22.5680   -6.3140   23.0500 N.3    81  GLN81      -0.1245
     96  CA        21.4850   -5.6380   23.7210 C.3    81  GLN81       0.1566
     97  C         21.8310   -4.1530   23.8750 C.2    81  GLN81       0.2260
     98  O         22.9760   -3.7650   23.7060 O.2    81  GLN81      -0.2867
     99  CB        21.2860   -6.1560   25.1380 C.3    81  GLN81       0.0367
    100  CG        20.8260   -7.6030   25.2410 C.3    81  GLN81       0.0905
    101  CD        20.7140   -8.0910   26.6780 C.2    81  GLN81       0.2608
    102  OE1       20.2430   -7.3790   27.5810 O.2    81  GLN81      -0.2717
    103  NE2       21.1310   -9.3640   26.8970 N.am   81  GLN81      -0.0878
    104  N         22.1240   -2.2900   27.1210 N.3    83  ILE83      -0.1231
    105  CA        22.2690   -2.5690   28.5470 C.3    83  ILE83       0.1692
    106  C         22.6120   -1.2560   29.2360 C.2    83  ILE83       0.2592
    107  O         23.6920   -0.7210   29.0290 O.2    83  ILE83      -0.2718
    108  CB        23.4530   -3.5590   28.7780 C.3    83  ILE83       0.0266
    109  CG1       23.1940   -4.8490   27.9920 C.3    83  ILE83       0.0019
    110  CG2       23.6940   -3.7360   30.2910 C.3    83  ILE83       0.0020
    111  CD1       24.3330   -5.9100   28.0950 C.3    83  ILE83       0.0001
    112  N         21.6910   -0.6740   29.9660 N.am   84  LEU84      -0.1966
    113  CA        21.9700    0.6330   30.5170 C.3    84  LEU84       0.1728
    114  C         21.3940    0.8090   31.9070 C.2    84  LEU84       0.2616
    115  O         20.4530    0.1330   32.2880 O.2    84  LEU84      -0.2715
    116  CB        21.5700    1.7290   29.5920 C.3    84  LEU84       0.0311
    117  CG        20.1510    2.0900   29.1980 C.3    84  LEU84       0.0022
    118  CD1       19.2670    2.7460   30.3080 C.3    84  LEU84       0.0001
    119  CD2       20.2550    3.1440   28.0470 C.3    84  LEU84       0.0001
    120  N         22.0230    1.6770   32.6960 N.am   85  SER85      -0.1950
    121  CA        21.4320    2.0590   33.9960 C.3    85  SER85       0.1924
    122  C         21.4580    3.5740   34.0700 C.2    85  SER85       0.2314
    123  O         22.3640    4.1800   33.5110 O.2    85  SER85      -0.2863
    124  CB        22.2600    1.5270   35.1280 C.3    85  SER85       0.2116
    125  OG        22.1860    0.1180   35.1960 O.3    85  SER85      -0.2180
    126  N          8.2820   -6.3890   35.9830 N.3   124  ASN124     -0.1225
    127  CA         9.5810   -6.0520   35.3260 C.3   124  ASN124      0.1785
    128  C          9.6970   -6.2740   33.8450 C.2   124  ASN124      0.2597
    129  O         10.8170   -6.1570   33.3270 O.2   124  ASN124     -0.2718
    130  CB        10.7240   -6.8840   35.9640 C.3   124  ASN124      0.1169
    131  CG        10.5960   -7.0680   37.4480 C.2   124  ASN124      0.2627
    132  OD1       10.2390   -6.1420   38.2080 O.2   124  ASN124     -0.2716
    133  ND2       10.8480   -8.2940   37.8950 N.am  124  ASN124     -0.0877
    134  N          8.6510   -6.6780   33.1430 N.am  125  ASP125     -0.1974
    135  CA         8.8840   -7.2240   31.7980 C.3   125  ASP125      0.1709
    136  C          8.2970   -6.3660   30.7320 C.2   125  ASP125      0.2293
    137  O          7.2050   -5.8280   30.8980 O.2   125  ASP125     -0.2864
    138  CB         8.2130   -8.5780   31.6090 C.3   125  ASP125      0.1436
    139  CG         8.7830   -9.6930   32.4680 C.2   125  ASP125      0.3671
    140  OD1        9.7880   -9.5320   33.1710 O.co2 125  ASP125     -0.2456
    141  OD2        8.1940  -10.7690   32.3770 O.co2 125  ASP125     -0.2456
    142  N         10.0120  -12.3210   26.1320 N.3   132  LYS132     -0.1245
    143  CA        10.6250  -11.2500   26.8870 C.3   132  LYS132      0.1561
    144  C         11.6860  -10.4820   26.0900 C.2   132  LYS132      0.2260
    145  O         12.8290  -10.9400   25.8630 O.2   132  LYS132     -0.2867
    146  CB        11.2040  -11.7840   28.1810 C.3   132  LYS132      0.0271
    147  CG        11.6410  -10.7330   29.1750 C.3   132  LYS132      0.0035
    148  CD        11.6690  -11.3330   30.5800 C.3   132  LYS132      0.0206
    149  CE        12.1740  -10.3390   31.5900 C.3   132  LYS132      0.1093
    150  NZ        12.0830  -10.9120   32.9440 N.3   132  LYS132     -0.1314
    151  N         13.9910   -6.4820   30.0960 N.3   135  GLY135     -0.1210
    152  CA        13.7950   -6.5680   31.5530 C.3   135  GLY135      0.1956
    153  C         14.2440   -5.2980   32.2260 C.2   135  GLY135      0.2612
    154  O         15.2120   -4.6840   31.7900 O.2   135  GLY135     -0.2717
    155  N         13.5100   -4.9110   33.2890 N.am  136  ILE136     -0.1965
    156  CA        13.7420   -3.6410   33.9900 C.3   136  ILE136      0.1727
    157  C         14.0650   -3.9370   35.4530 C.2   136  ILE136      0.2616
    158  O         13.3920   -4.7410   36.0900 O.2   136  ILE136     -0.2715
    159  CB        12.4890   -2.7640   33.9690 C.3   136  ILE136      0.0290
    160  CG1       11.9840   -2.6460   32.5300 C.3   136  ILE136      0.0022
    161  CG2       12.7570   -1.3930   34.6650 C.3   136  ILE136      0.0023
    162  CD1       12.9170   -1.9450   31.6290 C.3   136  ILE136      0.0001
    163  N         15.0700   -3.2770   36.0040 N.am  137  LEU137     -0.1977
    164  CA        15.3960   -3.4810   37.4360 C.3   137  LEU137      0.1596
    165  C         15.7110   -2.1670   38.0990 C.2   137  LEU137      0.2287
    166  O         16.6550   -1.5170   37.7240 O.2   137  LEU137     -0.2864
    167  CB        16.5820   -4.4620   37.6350 C.3   137  LEU137      0.0297
    168  CG        17.0160   -4.7240   39.0740 C.3   137  LEU137      0.0022
    169  CD1       15.9530   -5.5190   39.8310 C.3   137  LEU137      0.0001
    170  CD2       18.4040   -5.3900   39.1650 C.3   137  LEU137      0.0001
    171  N         17.6760    0.1950   35.7710 N.3   148  GLY148     -0.1210
    172  CA        18.3500   -0.6160   34.7810 C.3   148  GLY148      0.1956
    173  C         17.4720   -1.2240   33.7240 C.2   148  GLY148      0.2612
    174  O         16.3810   -1.6880   34.0110 O.2   148  GLY148     -0.2717
    175  N         17.9550   -1.2090   32.4840 N.am  149  VAL149     -0.1965
    176  CA        17.2150   -1.7530   31.3400 C.3   149  VAL149      0.1727
    177  C         18.1310   -2.6320   30.5240 C.2   149  VAL149      0.2616
    178  O         19.2290   -2.2210   30.1880 O.2   149  VAL149     -0.2715
    179  CB        16.7180   -0.5920   30.4300 C.3   149  VAL149      0.0290
    180  CG1       16.0760   -1.0770   29.1390 C.3   149  VAL149      0.0023
    181  CG2       15.8350    0.3130   31.2050 C.3   149  VAL149      0.0023
    182  N         17.7280   -3.8890   30.3170 N.am  150  GLY150     -0.1955
    183  CA        18.3180   -4.8190   29.3260 C.3   150  GLY150      0.1869
    184  C         17.3440   -5.0750   28.1870 C.2   150  GLY150      0.2309
    185  O         16.3290   -5.7620   28.3570 O.2   150  GLY150     -0.2863
    186  N         16.7330   -6.4960   24.3930 N.3   152  ASN152     -0.1240
    187  CA        17.2770   -7.4270   23.3930 C.3   152  ASN152      0.1653
    188  C         17.1040   -6.8680   21.9940 C.2   152  ASN152      0.2266
    189  O         15.9980   -6.8180   21.4740 O.2   152  ASN152     -0.2867
    190  CB        16.6010   -8.8020   23.5230 C.3   152  ASN152      0.1155
    191  CG        16.9330   -9.5070   24.8620 C.2   152  ASN152      0.2627
    192  OD1       18.1000   -9.5130   25.3360 O.2   152  ASN152     -0.2716
    193  ND2       15.9080  -10.1190   25.4630 N.am  152  ASN152     -0.0877
    194  N         20.6770  -16.3510   25.4870 N.3   160  VAL160     -0.1231
    195  CA        20.3170  -15.8250   26.8230 C.3   160  VAL160      0.1692
    196  C         19.1950  -16.4580   27.6570 C.2   160  VAL160      0.2592
    197  O         19.3180  -16.5070   28.8750 O.2   160  VAL160     -0.2718
    198  CB        20.0110  -14.3110   26.7560 C.3   160  VAL160      0.0266
    199  CG1       21.2380  -13.5810   26.3140 C.3   160  VAL160      0.0020
    200  CG2       18.8420  -14.0080   25.8060 C.3   160  VAL160      0.0020
    201  N         18.1250  -16.9220   27.0280 N.am  161  ASP161     -0.1974
    202  CA        17.0030  -17.5640   27.7420 C.3   161  ASP161      0.1709
    203  C         16.0190  -18.0190   26.6830 C.2   161  ASP161      0.2293
    204  O         15.7180  -17.3040   25.7550 O.2   161  ASP161     -0.2864
    205  CB        16.3030  -16.5780   28.6860 C.3   161  ASP161      0.1436
    206  CG        15.2250  -17.2460   29.5180 C.2   161  ASP161      0.3671
    207  OD1       15.6030  -17.8650   30.5440 O.co2 161  ASP161     -0.2456
    208  OD2       14.0290  -17.1840   29.1410 O.co2 161  ASP161     -0.2456
    209  N         13.1380  -15.6070   25.7540 N.3   164  ALA164     -0.1245
    210  CA        13.5320  -14.2730   25.2920 C.3   164  ALA164      0.1562
    211  C         13.0830  -14.0390   23.8210 C.2   164  ALA164      0.2260
    212  O         12.7830  -14.9730   23.0870 O.2   164  ALA164     -0.2867
    213  CB        15.0640  -14.0650   25.4180 C.3   164  ALA164      0.0290
@<TRIPOS>BOND
     1   189   188    2
     2   188   187    1
     3    95    96    1
     4   212   211    2
     5   187   190    1
     6   187   186    1
     7   190   191    1
     8    98    97    2
     9    96    97    1
    10    96    99    1
    11   211   210    1
    12   191   192    2
    13   191   193   am
    14    99   100    1
    15   100   101    1
    16   210   213    1
    17   210   209    1
    18   194   195    1
    19   204   203    2
    20   200   198    1
    21   145   144    2
    22   144   143    1
    23   142   143    1
    24   199   198    1
    25   101   103   am
    26   101   102    2
    27   203   202    1
    28   198   195    1
    29   195   196    1
    30   143   146    1
    31   201   196   am
    32   201   202    1
    33   104   105    1
    34   196   197    2
    35   202   205    1
    36   109   111    1
    37   109   108    1
    38   119   117    1
    39   146   147    1
    40   184   185    2
    41   184   183    1
    42   105   108    1
    43   105   106    1
    44   205   206    1
    45   108   110    1
    46    93    92    2
    47   107   106    2
    48   180   179    1
    49   208   206   ar
    50   147   148    1
    51   117   116    1
    52   117   118    1
    53   106   112   am
    54   183   182    1
    55    92    91    1
    56    22    23    1
    57   206   207   ar
    58   116   113    1
    59    87    89   ar
    60    87    85   ar
    61   112   113    1
    62   151   152    1
    63    94    91    1
    64    84    85   ar
    65    84    82   ar
    66   178   177    2
    67    89    88   ar
    68   182   177   am
    69   179   181    1
    70   179   176    1
    71    85    83   ar
    72   113   114    1
    73   177   176    1
    74    91    90    1
    75   148   149    1
    76   136   137    2
    77   136   135    1
    78    23    26    1
    79    23    24    1
    80    25    24    2
    81    26    27    1
    82    82    81   ar
    83   176   175    1
    84    88    86   ar
    85    90    78   am
    86   152   153    1
    87   149   150    1
    88   138   135    1
    89   138   139    1
    90   162   160    1
    91    83    81   ar
    92    83    86   ar
    93   154   153    2
    94   135   134    1
    95   114   115    2
    96   114   120   am
    97    81    80    1
    98   153   155   am
    99   141   139   ar
   100   139   140   ar
   101   175   173   am
   102   160   159    1
   103    78    79    2
   104    78    77    1
   105    30    28   am
   106    13    11    1
   107   120   121    1
   108    27    28    1
   109    28    29    2
   110   134   128   am
   111   155   156    1
   112   129   128    2
   113    77    80    1
   114    77    76    1
   115   123   122    2
   116   173   174    2
   117   173   172    1
   118   128   127    1
   119    12    11    1
   120    11     8    1
   121   159   156    1
   122   159   161    1
   123   156   157    1
   124   121   122    1
   125   121   124    1
   126    76    74   am
   127   172   171    1
   128    31    32    1
   129   124   125    1
   130    32    33    1
   131     8     7    1
   132     8     9    1
   133    75    74    2
   134     7     3   am
   135   127   130    1
   136   127   126    1
   137   157   163   am
   138   157   158    2
   139    74    73    1
   140   130   131    1
   141   163   164    1
   142     1     2    1
   143     2     3    1
   144     2     5    1
   145     3     4    2
   146    33    34    2
   147    33    35   am
   148     9    14   am
   149     9    10    2
   150    38    37    2
   151    73    72    1
   152    35    36    1
   153    14    15    1
   154    20    19    2
   155    37    46   am
   156    37    36    1
   157   164   167    1
   158   164   165    1
   159   131   133   am
   160   131   132    2
   161     5     6    1
   162    72    63   am
   163    47    46    1
   164    47    48    1
   165   167   168    1
   166   166   165    2
   167    36    39    1
   168    19    18    1
   169    19    21   am
   170    15    18    1
   171    15    16    1
   172    68    67    1
   173    68    69    2
   174    71    69    1
   175    67    66    1
   176    63    64    2
   177    63    62    1
   178    69    70    1
   179    65    66    1
   180    65    62    1
   181    39    40    1
   182    48    50   am
   183    48    49    2
   184   168   170    1
   185   168   169    1
   186    50    51    1
   187    16    17    2
   188    62    61    1
   189    40    41    1
   190    54    51    1
   191    54    55    1
   192    41    42    1
   193    51    52    1
   194    59    58    1
   195    56    55    1
   196    56    57    1
   197    53    52    2
   198    42    43    2
   199    58    57    2
   200    58    60    1
   201    43    44    1
   202    43    45    1
