@<TRIPOS>MOLECULE
tmp/4op1A00.pdb
 215 206 0 0 0
SMALL
GASTEIGER

@<TRIPOS>ATOM
      1  N        -37.9220   21.9590    5.5440 N.3     9  HIS9       -0.1241
      2  CA       -37.1250   22.7660    6.4610 C.3     9  HIS9        0.1621
      3  C        -36.5780   21.9880    7.6700 C.2     9  HIS9        0.2264
      4  O        -35.6780   22.4520    8.3210 O.2     9  HIS9       -0.2867
      5  CB       -37.9720   23.9070    6.9650 C.3     9  HIS9        0.0745
      6  CG       -39.0200   23.4680    7.9360 C.ar    9  HIS9        0.0817
      7  ND1      -40.2140   22.9030    7.5340 N.ar    9  HIS9       -0.2268
      8  CD2      -39.0360   23.4700    9.2890 C.ar    9  HIS9        0.1154
      9  CE1      -40.9280   22.5960    8.5990 C.ar    9  HIS9        0.1986
     10  NE2      -40.2410   22.9380    9.6760 N.ar    9  HIS9       -0.2212
     11  N        -27.6580   20.5920   12.9780 N.3    24  TYR24      -0.1241
     12  CA       -28.9980   20.5780   13.5300 C.3    24  TYR24       0.1605
     13  C        -29.1580   21.5680   14.6470 C.2    24  TYR24       0.2264
     14  O        -30.1090   22.3400   14.6210 O.2    24  TYR24      -0.2867
     15  CB       -29.3560   19.2050   14.0870 C.3    24  TYR24       0.0534
     16  CG       -30.7530   19.1650   14.6110 C.ar   24  TYR24      -0.0201
     17  CD1      -31.0360   19.5370   15.9240 C.ar   24  TYR24      -0.0009
     18  CD2      -31.8100   18.7880   13.7960 C.ar   24  TYR24      -0.0009
     19  CE1      -32.3350   19.5300   16.4100 C.ar   24  TYR24       0.0417
     20  CE2      -33.1250   18.7560   14.2790 C.ar   24  TYR24       0.0417
     21  CZ       -33.3750   19.1400   15.5790 C.ar   24  TYR24       0.1957
     22  OH       -34.6480   19.1480   16.0670 O.3    24  TYR24      -0.2866
     23  N        -29.0070   25.2610   14.1120 N.3    27  ALA27      -0.1231
     24  CA       -30.2150   25.9040   13.6190 C.3    27  ALA27       0.1694
     25  C        -31.4200   25.8320   14.5880 C.2    27  ALA27       0.2592
     26  O        -32.5090   26.2930   14.2380 O.2    27  ALA27      -0.2718
     27  CB       -30.5820   25.3880   12.2240 C.3    27  ALA27       0.0304
     28  N        -31.2490   25.3250   15.8010 N.am   28  VAL28      -0.1966
     29  CA       -32.3870   25.3610   16.7360 C.3    28  VAL28       0.1712
     30  C        -32.4470   26.7720   17.1940 C.2    28  VAL28       0.2458
     31  O        -31.4940   27.2480   17.7890 O.2    28  VAL28      -0.2730
     32  CB       -32.2380   24.4230   17.9640 C.3    28  VAL28       0.0289
     33  CG1      -33.3270   24.6560   19.0060 C.3    28  VAL28       0.0023
     34  CG2      -32.2360   22.9720   17.5200 C.3    28  VAL28       0.0023
     35  N        -33.5530   27.4680   16.9040 N.am   29  PRO29      -0.2727
     36  CA       -33.6190   28.8740   17.3460 C.3    29  PRO29       0.1402
     37  C        -33.3480   28.9820   18.8430 C.2    29  PRO29       0.2269
     38  O        -33.6700   28.0710   19.6020 O.2    29  PRO29      -0.2865
     39  CB       -35.0410   29.3030   16.9840 C.3    29  PRO29       0.0296
     40  CG       -35.5300   28.2830   15.9980 C.3    29  PRO29       0.0237
     41  CD       -34.8250   27.0100   16.3090 C.3    29  PRO29       0.0939
     42  N        -34.8220   30.4330   21.0820 N.3    31  THR31      -0.1203
     43  CA       -36.0370   30.3930   21.8920 C.3    31  THR31       0.1994
     44  C        -36.5320   28.9970   22.1000 C.2    31  THR31       0.2618
     45  O        -37.2340   28.7620   23.0440 O.2    31  THR31      -0.2717
     46  CB       -37.1420   31.2380   21.2750 C.3    31  THR31       0.1784
     47  OG1      -37.3930   30.8050   19.9420 O.3    31  THR31      -0.2211
     48  CG2      -36.7030   32.7180   21.2180 C.3    31  THR31       0.0376
     49  N        -36.1140   28.0520   21.2520 N.am   32  GLU32      -0.1965
     50  CA       -36.5260   26.6690   21.4060 C.3    32  GLU32       0.1733
     51  C        -35.4760   25.7770   22.0100 C.2    32  GLU32       0.2616
     52  O        -35.7560   24.6070   22.2480 O.2    32  GLU32      -0.2715
     53  CB       -36.9490   26.0710   20.0630 C.3    32  GLU32       0.0429
     54  CG       -38.0830   26.8210   19.4240 C.3    32  GLU32       0.1163
     55  CD       -39.4200   26.6490   20.1230 C.2    32  GLU32       0.3649
     56  OE1      -39.7100   25.6100   20.7720 O.co2  32  GLU32      -0.2457
     57  OE2      -40.2150   27.5720   19.9880 O.co2  32  GLU32      -0.2457
     58  N        -34.2890   26.3200   22.2530 N.am   33  LYS33      -0.1963
     59  CA       -33.1740   25.5330   22.7480 C.3    33  LYS33       0.1728
     60  C        -33.5020   25.0180   24.1370 C.2    33  LYS33       0.2616
     61  O        -34.4320   25.5140   24.8200 O.2    33  LYS33      -0.2715
     62  CB       -31.8440   26.3590   22.7780 C.3    33  LYS33       0.0311
     63  CG       -31.1240   26.5460   21.4180 C.3    33  LYS33       0.0038
     64  CD       -29.6940   27.0800   21.5930 C.3    33  LYS33       0.0206
     65  CE       -29.1040   27.7420   20.3600 C.3    33  LYS33       0.1093
     66  NZ       -29.0380   26.8090   19.1900 N.3    33  LYS33      -0.1314
     67  N        -32.7660   23.9740   24.5110 N.am   34  SER34      -0.1950
     68  CA       -32.7960   23.4580   25.8550 C.3    34  SER34       0.1924
     69  C        -31.7820   24.2550   26.6600 C.2    34  SER34       0.2314
     70  O        -30.6060   24.2770   26.3050 O.2    34  SER34      -0.2863
     71  CB       -32.4220   21.9720   25.8940 C.3    34  SER34       0.2116
     72  OG       -31.7830   21.6600   27.1280 O.3    34  SER34      -0.2180
     73  N        -40.5560   34.1850   19.4160 N.3   179  GLY179     -0.1225
     74  CA       -39.8320   33.3270   18.5220 C.3   179  GLY179      0.1811
     75  C        -39.5880   33.8750   17.1420 C.2   179  GLY179      0.2280
     76  O        -38.9680   33.2120   16.3370 O.2   179  GLY179     -0.2866
     77  N        -41.9860   34.1090   15.1130 N.3   181  SER181     -0.1217
     78  CA       -42.6490   32.9140   14.7030 C.3   181  SER181      0.1889
     79  C        -44.0720   33.0900   14.2110 C.2   181  SER181      0.2288
     80  O        -44.4590   32.4130   13.2700 O.2   181  SER181     -0.2866
     81  CB       -42.6960   31.9170   15.8770 C.3   181  SER181      0.2089
     82  OG       -43.7350   30.9600   15.6620 O.3   181  SER181     -0.2183
     83  N        -34.9360   36.1670   18.9680 N.3   207  ASN207     -0.1240
     84  CA       -34.0510   35.3580   18.1530 C.3   207  ASN207      0.1653
     85  C        -33.3800   36.2610   17.1190 C.2   207  ASN207      0.2266
     86  O        -33.9580   37.2500   16.6890 O.2   207  ASN207     -0.2867
     87  CB       -34.8600   34.3370   17.3690 C.3   207  ASN207      0.1155
     88  CG       -35.1940   33.1210   18.1520 C.2   207  ASN207      0.2627
     89  OD1      -34.3510   32.5980   18.8570 O.2   207  ASN207     -0.2716
     90  ND2      -36.4360   32.6220   17.9980 N.am  207  ASN207     -0.0877
     91  N        -32.5160   33.2670   12.4910 N.3   211  MET211     -0.1230
     92  CA       -33.1820   32.1230   13.1230 C.3   211  MET211      0.1702
     93  C        -34.6850   32.3060   13.1230 C.2   211  MET211      0.2592
     94  O        -35.4100   31.5050   13.7230 O.2   211  MET211     -0.2718
     95  CB       -32.7270   31.9650   14.5740 C.3   211  MET211      0.0401
     96  CG       -31.4900   31.1260   14.7780 C.3   211  MET211      0.0596
     97  SD       -30.8340   31.4330   16.4400 S.3   211  MET211     -0.1393
     98  CE       -29.4930   30.2600   16.4380 C.3   211  MET211      0.0692
     99  N        -35.1680   33.3560   12.4690 N.am  212  ALA212     -0.1966
    100  CA       -36.5860   33.5920   12.4260 C.3   212  ALA212      0.1728
    101  C        -37.2310   32.4270   11.7090 C.2   212  ALA212      0.2616
    102  O        -36.6410   31.8290   10.8500 O.2   212  ALA212     -0.2715
    103  CB       -36.8920   34.8690   11.7170 C.3   212  ALA212      0.0334
    104  N        -38.4500   32.1100   12.0920 N.am  213  ARG213     -0.1963
    105  CA       -39.1760   30.9820   11.5270 C.3   213  ARG213      0.1729
    106  C        -39.2120   31.0650   10.0110 C.2   213  ARG213      0.2616
    107  O        -39.4330   32.1550    9.4460 O.2   213  ARG213     -0.2715
    108  CB       -40.5800   30.9740   12.1140 C.3   213  ARG213      0.0348
    109  CG       -41.0840   29.6110   12.3830 C.3   213  ARG213      0.0492
    110  CD       -42.4450   29.6400   13.0340 C.3   213  ARG213      0.2205
    111  NE       -43.2740   28.5730   12.4770 N.pl3 213  ARG213     -0.0865
    112  CZ       -44.5060   28.2630   12.8580 C.cat 213  ARG213      0.5346
    113  NH1      -45.1060   28.8970   13.8520 N.pl3 213  ARG213      0.1354
    114  NH2      -45.1550   27.2920   12.2190 N.pl3 213  ARG213      0.1354
    115  N        -38.9340   29.9260    9.3620 N.am  214  ASN214     -0.1958
    116  CA       -38.8720   29.8480    7.9000 C.3   214  ASN214      0.1819
    117  C        -39.7140   28.7980    7.1600 C.2   214  ASN214      0.2621
    118  O        -39.5460   28.6510    5.9540 O.2   214  ASN214     -0.2715
    119  CB       -37.4030   29.7510    7.4300 C.3   214  ASN214      0.1195
    120  CG       -37.2130   30.2290    5.9820 C.2   214  ASN214      0.2630
    121  OD1      -37.6740   31.3170    5.5790 O.2   214  ASN214     -0.2716
    122  ND2      -36.5500   29.4180    5.1960 N.am  214  ASN214     -0.0877
    123  N        -40.6200   28.0990    7.8440 N.am  215  ASP215     -0.1971
    124  CA       -41.5770   27.1840    7.1980 C.3   215  ASP215      0.1709
    125  C        -42.7660   27.9340    6.6540 C.2   215  ASP215      0.2293
    126  O        -43.1600   28.9230    7.2410 O.2   215  ASP215     -0.2864
    127  CB       -42.0760   26.0730    8.1390 C.3   215  ASP215      0.1436
    128  CG       -42.5720   26.5920    9.4960 C.2   215  ASP215      0.3671
    129  OD1      -41.8210   27.3440   10.1990 O.co2 215  ASP215     -0.2456
    130  OD2      -43.6880   26.1980    9.9090 O.co2 215  ASP215     -0.2456
    131  N        -39.0880   34.7250    8.4630 N.3   225  ARG225     -0.1245
    132  CA       -37.6900   35.0310    8.1340 C.3   225  ARG225      0.1563
    133  C        -37.5760   36.0900    7.0700 C.2   225  ARG225      0.2260
    134  O        -36.7960   37.0060    7.2290 O.2   225  ARG225     -0.2867
    135  CB       -36.9790   33.7870    7.6390 C.3   225  ARG225      0.0307
    136  CG       -35.4650   33.9080    7.5700 C.3   225  ARG225      0.0489
    137  CD       -34.9050   32.9860    8.5690 C.3   225  ARG225      0.2205
    138  NE       -34.2080   31.9040    7.9730 N.pl3 225  ARG225     -0.0865
    139  CZ       -34.0360   30.7030    8.5180 C.cat 225  ARG225      0.5346
    140  NH1      -34.5660   30.3300    9.6710 N.pl3 225  ARG225      0.1354
    141  NH2      -33.3160   29.8380    7.8250 N.pl3 225  ARG225      0.1354
    142  N        -38.1380   24.4390   28.1630 N.3   253  SER253     -0.1217
    143  CA       -37.8460   24.6310   26.7670 C.3   253  SER253      0.1889
    144  C        -39.0420   25.1560   26.0120 C.2   253  SER253      0.2288
    145  O        -40.0980   24.5680   26.0510 O.2   253  SER253     -0.2866
    146  CB       -37.3330   23.3450   26.1700 C.3   253  SER253      0.2089
    147  OG       -36.1950   22.8910   26.9090 O.3   253  SER253     -0.2183
    148  N        -38.2530   19.5690   29.2700 N.3   483  HIS483     -0.1241
    149  CA       -39.1880   19.6200   28.1720 C.3   483  HIS483      0.1621
    150  C        -40.5690   19.1870   28.6590 C.2   483  HIS483      0.2264
    151  O        -40.6800   18.2840   29.5080 O.2   483  HIS483     -0.2867
    152  CB       -38.7290   18.6440   27.0820 C.3   483  HIS483      0.0745
    153  CG       -37.3510   18.9180   26.5500 C.ar  483  HIS483      0.0817
    154  ND1      -37.0600   20.0170   25.7660 N.ar  483  HIS483     -0.2268
    155  CD2      -36.1930   18.2260   26.6730 C.ar  483  HIS483      0.1154
    156  CE1      -35.7760   19.9980   25.4520 C.ar  483  HIS483      0.1986
    157  NE2      -35.2250   18.9260   25.9930 N.ar  483  HIS483     -0.2212
    158  N        -46.4930   25.6640   15.2110 N.3   493  LYS493     -0.1245
    159  CA       -45.3320   25.6980   16.1100 C.3   493  LYS493      0.1561
    160  C        -45.2250   24.5080   17.0630 C.2   493  LYS493      0.2260
    161  O        -44.1460   23.9420   17.2370 O.2   493  LYS493     -0.2867
    162  CB       -45.3140   26.9930   16.9060 C.3   493  LYS493      0.0271
    163  CG       -44.1270   27.1080   17.8630 C.3   493  LYS493      0.0035
    164  CD       -43.9330   28.5290   18.4200 C.3   493  LYS493      0.0206
    165  CE       -45.1160   28.9790   19.2640 C.3   493  LYS493      0.1093
    166  NZ       -44.8900   30.3530   19.7250 N.3   493  LYS493     -0.1314
    167  N        -44.2550   21.4320   15.2210 N.3   496  TRP496     -0.1227
    168  CA       -42.7900   21.3390   15.0200 C.3   496  TRP496      0.1737
    169  C        -42.0920   20.9700   16.2930 C.2   496  TRP496      0.2595
    170  O        -41.1980   20.1180   16.2400 O.2   496  TRP496     -0.2718
    171  CB       -42.1670   22.5680   14.3330 C.3   496  TRP496      0.0564
    172  CG       -42.8500   22.8210   13.0090 C.ar  496  TRP496      0.0003
    173  CD1      -43.5680   23.8880   12.6980 C.ar  496  TRP496      0.0946
    174  CD2      -42.9380   21.9310   11.8920 C.ar  496  TRP496      0.0152
    175  NE1      -44.0810   23.7700   11.4380 N.ar  496  TRP496     -0.2442
    176  CE2      -43.7040   22.5720   10.9150 C.ar  496  TRP496      0.0810
    177  CE3      -42.4100   20.6550   11.6120 C.ar  496  TRP496      0.0012
    178  CZ2      -43.9840   22.0030    9.6500 C.ar  496  TRP496      0.0191
    179  CZ3      -42.6910   20.0570   10.3300 C.ar  496  TRP496      0.0001
    180  CH2      -43.4890   20.7490    9.3840 C.ar  496  TRP496      0.0015
    181  N        -42.5230   21.5420   17.4370 N.am  497  ARG497     -0.1980
    182  CA       -41.9120   21.2130   18.7300 C.3   497  ARG497      0.1597
    183  C        -42.0780   19.7320   19.0460 C.2   497  ARG497      0.2287
    184  O        -41.1680   19.0800   19.5570 O.2   497  ARG497     -0.2864
    185  CB       -42.4920   22.0410   19.8710 C.3   497  ARG497      0.0334
    186  CG       -41.6940   21.8910   21.1740 C.3   497  ARG497      0.0492
    187  CD       -41.9710   22.9770   22.1980 C.3   497  ARG497      0.2205
    188  NE       -41.8940   24.3260   21.6330 N.pl3 497  ARG497     -0.0865
    189  CZ       -42.7050   25.3580   21.9460 C.cat 497  ARG497      0.5346
    190  NH1      -43.6970   25.2170   22.8260 N.pl3 497  ARG497      0.1354
    191  NH2      -42.5360   26.5410   21.3600 N.pl3 497  ARG497      0.1354
    192  N        -39.5810   17.7420   16.7560 N.3   500  ALA500     -0.1231
    193  CA       -38.2580   17.9050   17.3630 C.3   500  ALA500      0.1694
    194  C        -38.0320   17.0760   18.6320 C.2   500  ALA500      0.2591
    195  O        -36.9480   16.4810   18.8510 O.2   500  ALA500     -0.2718
    196  CB       -38.0120   19.3610   17.6700 C.3   500  ALA500      0.0304
    197  N        -39.0340   17.0290   19.4920 N.am  501  MET501     -0.1979
    198  CA       -38.8680   16.2490   20.7130 C.3   501  MET501      0.1605
    199  C        -38.7930   14.7710   20.4090 C.2   501  MET501      0.2287
    200  O        -37.9970   14.0600   21.0240 O.2   501  MET501     -0.2864
    201  CB       -39.9570   16.5590   21.6800 C.3   501  MET501      0.0413
    202  CG       -39.7080   17.8900   22.3400 C.3   501  MET501      0.0598
    203  SD       -40.8860   18.1720   23.6520 S.3   501  MET501     -0.1393
    204  CE       -42.4470   18.1700   22.8180 C.3   501  MET501      0.0692
    205  N        -35.2480   14.1760   19.2270 N.3   504  ARG504     -0.1245
    206  CA       -34.3180   14.2900   20.3320 C.3   504  ARG504      0.1563
    207  C        -34.3390   13.0890   21.2830 C.2   504  ARG504      0.2260
    208  O        -33.2910   12.5890   21.6500 O.2   504  ARG504     -0.2867
    209  CB       -34.5840   15.5900   21.1140 C.3   504  ARG504      0.0307
    210  CG       -33.9500   15.6840   22.5090 C.3   504  ARG504      0.0489
    211  CD       -32.4420   15.8360   22.5030 C.3   504  ARG504      0.2205
    212  NE       -32.0820   17.1460   21.9740 N.pl3 504  ARG504     -0.0865
    213  CZ       -30.8380   17.5950   21.8100 C.cat 504  ARG504      0.5346
    214  NH1      -29.7950   16.8220   22.1480 N.pl3 504  ARG504      0.1354
    215  NH2      -30.6500   18.8180   21.2940 N.pl3 504  ARG504      0.1354
@<TRIPOS>BOND
     1   122   120   am
     2     1     2    1
     3   121   120    2
     4   118   117    2
     5   120   119    1
     6     2     5    1
     7     2     3    1
     8   125   124    1
     9   125   126    2
    10     5     6    1
    11   133   134    2
    12   133   132    1
    13   117   123   am
    14   117   116    1
    15   124   123    1
    16   124   127    1
    17   119   116    1
    18     7     6   ar
    19     7     9   ar
    20   136   135    1
    21   136   137    1
    22   135   132    1
    23     3     4    2
    24   141   139    1
    25   116   115    1
    26     6     8   ar
    27   138   139    2
    28   138   137    1
    29   132   131    1
    30   127   128    1
    31   139   140    1
    32     9    10   ar
    33     8    10   ar
    34   115   106   am
    35   180   178   ar
    36   180   179   ar
    37   107   106    2
    38   128   130   ar
    39   128   129   ar
    40   178   176   ar
    41   106   105    1
    42   179   177   ar
    43   102   101    2
    44   176   175   ar
    45   176   174   ar
    46   175   173   ar
    47   105   104    1
    48   105   108    1
    49   177   174   ar
    50   101   104   am
    51   101   100    1
    52   103   100    1
    53   174   172   ar
    54   108   109    1
    55   114   112    1
    56    27    24    1
    57   109   110    1
    58   100    99    1
    59    99    93   am
    60   111   112    2
    61   111   110    1
    62    91    92    1
    63   173   172   ar
    64   112   113    1
    65    11    12    1
    66   172   171    1
    67    92    93    1
    68    92    95    1
    69    93    94    2
    70    80    79    2
    71    12    15    1
    72    12    13    1
    73    24    23    1
    74    24    25    1
    75    18    20   ar
    76    18    16   ar
    77    15    16    1
    78    79    78    1
    79    26    25    2
    80    20    21   ar
    81   171   168    1
    82    95    96    1
    83    25    28   am
    84    16    17   ar
    85    14    13    2
    86    78    77    1
    87    78    81    1
    88    96    97    1
    89   168   167    1
    90   168   169    1
    91   158   159    1
    92    21    22    1
    93    21    19   ar
    94    82    81    1
    95    28    29    1
    96    17    19   ar
    97    40    41    1
    98    40    39    1
    99   159   162    1
   100   159   160    1
   101   170   169    2
   102   169   181   am
   103    41    35    1
   104    76    75    2
   105    98    97    1
   106    86    85    2
   107    29    30    1
   108    29    32    1
   109   192   193    1
   110    35    30   am
   111    35    36    1
   112   162   163    1
   113    39    36    1
   114   160   161    2
   115    85    84    1
   116    75    74    1
   117    30    31    2
   118    36    37    1
   119   193   196    1
   120   193   194    1
   121    87    88    1
   122    87    84    1
   123   181   182    1
   124    34    32    1
   125   163   164    1
   126    32    33    1
   127    90    88   am
   128    88    89    2
   129    84    83    1
   130   164   165    1
   131    74    73    1
   132   194   195    2
   133   194   197   am
   134   182   183    1
   135   182   185    1
   136    37    38    2
   137   183   184    2
   138    66    65    1
   139   205   206    1
   140   165   166    1
   141    54    53    1
   142    54    55    1
   143   197   198    1
   144   185   186    1
   145    47    46    1
   146    57    55   ar
   147    53    50    1
   148    55    56   ar
   149   206   209    1
   150   206   207    1
   151    65    64    1
   152   199   198    1
   153   199   200    2
   154   198   201    1
   155    42    43    1
   156   209   210    1
   157   186   187    1
   158    48    46    1
   159    49    50    1
   160    49    44   am
   161    46    43    1
   162   207   208    2
   163   215   213    1
   164   191   189    1
   165    50    51    1
   166    63    64    1
   167    63    62    1
   168   188   189    2
   169   188   187    1
   170   201   202    1
   171   213   212    2
   172   213   214    1
   173    43    44    1
   174   189   190    1
   175   212   211    1
   176    51    52    2
   177    51    58   am
   178    44    45    2
   179    58    59    1
   180   202   203    1
   181   211   210    1
   182    59    62    1
   183    59    60    1
   184   204   203    1
   185    60    67   am
   186    60    61    2
   187    67    68    1
   188   156   154   ar
   189   156   157   ar
   190   154   153   ar
   191    68    71    1
   192    68    69    1
   193    71    72    1
   194   157   155   ar
   195   144   145    2
   196   144   143    1
   197   146   143    1
   198   146   147    1
   199    70    69    2
   200   153   155   ar
   201   153   152    1
   202   143   142    1
   203   152   149    1
   204   149   150    1
   205   149   148    1
   206   150   151    2
