@<TRIPOS>MOLECULE
tmp/4op2A00.pdb
 221 213 0 0 0
SMALL
GASTEIGER

@<TRIPOS>ATOM
      1  N        -37.8080  -21.8930    5.7530 N.3     9  HIS9       -0.1241
      2  CA       -38.1400  -20.8060    6.6540 C.3     9  HIS9        0.1621
      3  C        -37.2000  -20.7450    7.9090 C.2     9  HIS9        0.2264
      4  O        -37.2440  -19.7990    8.6760 O.2     9  HIS9       -0.2867
      5  CB       -39.5670  -20.9840    7.0940 C.3     9  HIS9        0.0745
      6  CG       -39.7480  -22.1810    7.9650 C.ar    9  HIS9        0.0817
      7  ND1      -39.9110  -23.4470    7.4510 N.ar    9  HIS9       -0.2268
      8  CD2      -39.6690  -22.3230    9.3090 C.ar    9  HIS9        0.1154
      9  CE1      -40.0030  -24.3110    8.4440 C.ar    9  HIS9        0.1986
     10  NE2      -39.8740  -23.6470    9.5840 N.ar    9  HIS9       -0.2212
     11  N        -31.3420  -13.1760   13.7980 N.3    24  TYR24      -0.1241
     12  CA       -32.0250  -14.4200   14.0880 C.3    24  TYR24       0.1605
     13  C        -33.0320  -14.0460   15.1930 C.2    24  TYR24       0.2264
     14  O        -34.2370  -14.2130   15.0130 O.2    24  TYR24      -0.2867
     15  CB       -31.0280  -15.4590   14.5920 C.3    24  TYR24       0.0534
     16  CG       -31.6590  -16.7700   14.9620 C.ar   24  TYR24      -0.0201
     17  CD1      -32.2390  -16.9430   16.2060 C.ar   24  TYR24      -0.0009
     18  CD2      -31.7030  -17.8180   14.0720 C.ar   24  TYR24      -0.0009
     19  CE1      -32.8450  -18.1370   16.5680 C.ar   24  TYR24       0.0417
     20  CE2      -32.3050  -19.0250   14.4230 C.ar   24  TYR24       0.0417
     21  CZ       -32.8660  -19.1650   15.6830 C.ar   24  TYR24       0.1957
     22  OH       -33.4730  -20.3130   16.0880 O.3    24  TYR24      -0.2866
     23  N        -37.4330  -14.2720   16.0060 N.3    28  VAL28      -0.1231
     24  CA       -38.0480  -15.3080   16.8790 C.3    28  VAL28       0.1678
     25  C        -39.3520  -14.7090   17.3360 C.2    28  VAL28       0.2434
     26  O        -39.3580  -13.6310   17.9420 O.2    28  VAL28      -0.2733
     27  CB       -37.2120  -15.7070   18.1220 C.3    28  VAL28       0.0265
     28  CG1      -38.0050  -16.6370   19.0610 C.3    28  VAL28       0.0020
     29  CG2      -35.9150  -16.3920   17.7270 C.3    28  VAL28       0.0020
     30  N        -40.4660  -15.3810   17.0580 N.am   29  PRO29      -0.2729
     31  CA       -41.7330  -14.7780   17.5130 C.3    29  PRO29       0.1401
     32  C        -41.7520  -14.4800   19.0110 C.2    29  PRO29       0.2269
     33  O        -41.1630  -15.2020   19.8230 O.2    29  PRO29      -0.2865
     34  CB       -42.7710  -15.8150   17.1320 C.3    29  PRO29       0.0296
     35  CG       -42.1290  -16.6820   16.1030 C.3    29  PRO29       0.0237
     36  CD       -40.6840  -16.6890   16.3990 C.3    29  PRO29       0.0939
     37  N        -43.7100  -15.1060   21.1730 N.3    31  THR31      -0.1203
     38  CA       -44.2600  -16.1840   21.9940 C.3    31  THR31       0.1994
     39  C        -43.2700  -17.2790   22.2090 C.2    31  THR31       0.2618
     40  O        -43.3880  -17.9980   23.1620 O.2    31  THR31      -0.2717
     41  CB       -45.5460  -16.7770   21.3920 C.3    31  THR31       0.1784
     42  OG1      -45.3400  -17.1710   20.0370 O.3    31  THR31      -0.2211
     43  CG2      -46.6870  -15.7210   21.4060 C.3    31  THR31       0.0376
     44  N        -42.2970  -17.4120   21.2950 N.am   32  GLU32      -0.1965
     45  CA       -41.2480  -18.3760   21.4010 C.3    32  GLU32       0.1733
     46  C        -40.0040  -17.8740   22.0660 C.2    32  GLU32       0.2616
     47  O        -39.1160  -18.6570   22.2920 O.2    32  GLU32      -0.2715
     48  CB       -40.8820  -18.9530   20.0050 C.3    32  GLU32       0.0429
     49  CG       -42.0750  -19.6510   19.3870 C.3    32  GLU32       0.1163
     50  CD       -42.4750  -20.9490   20.0730 C.2    32  GLU32       0.3649
     51  OE1      -41.6180  -21.6030   20.6730 O.co2  32  GLU32      -0.2457
     52  OE2      -43.6660  -21.3060   20.0200 O.co2  32  GLU32      -0.2457
     53  N        -39.9270  -16.5990   22.4100 N.am   33  LYS33      -0.1963
     54  CA       -38.6500  -16.0520   22.9060 C.3    33  LYS33       0.1728
     55  C        -38.3360  -16.5670   24.3160 C.2    33  LYS33       0.2616
     56  O        -39.2360  -16.9910   25.0670 O.2    33  LYS33      -0.2715
     57  CB       -38.6820  -14.5100   22.9160 C.3    33  LYS33       0.0311
     58  CG       -38.4320  -13.7880   21.5690 C.3    33  LYS33       0.0038
     59  CD       -38.4340  -12.2570   21.7940 C.3    33  LYS33       0.0206
     60  CE       -38.6750  -11.3880   20.5630 C.3    33  LYS33       0.1093
     61  NZ       -37.8010  -11.7620   19.4220 N.3    33  LYS33      -0.1314
     62  N        -37.0460  -16.5010   24.6550 N.am   34  SER34      -0.1950
     63  CA       -36.5540  -16.6590   26.0130 C.3    34  SER34       0.1924
     64  C        -36.8640  -15.3880   26.8290 C.2    34  SER34       0.2314
     65  O        -36.4260  -14.3230   26.4560 O.2    34  SER34      -0.2863
     66  CB       -35.0140  -16.8670   25.9950 C.3    34  SER34       0.2116
     67  OG       -34.4600  -16.8460   27.3180 O.3    34  SER34      -0.2180
     68  N        -49.7930  -18.1800   19.5700 N.3   179  GLY179     -0.1225
     69  CA       -48.6890  -17.9840   18.6900 C.3   179  GLY179      0.1811
     70  C        -49.0470  -17.4700   17.3140 C.2   179  GLY179      0.2280
     71  O        -48.1240  -17.2540   16.5140 O.2   179  GLY179     -0.2866
     72  N        -50.4370  -19.3760   15.1970 N.3   181  SER181     -0.1217
     73  CA       -49.6920  -20.5450   14.7840 C.3   181  SER181      0.1889
     74  C        -50.5720  -21.7240   14.3400 C.2   181  SER181      0.2288
     75  O        -50.2140  -22.4200   13.4200 O.2   181  SER181     -0.2866
     76  CB       -48.8250  -21.0430   15.9460 C.3   181  SER181      0.2089
     77  OG       -48.6310  -22.4470   15.8320 O.3   181  SER181     -0.2183
     78  N        -48.7440  -12.2590   19.0050 N.3   207  ASN207     -0.1240
     79  CA       -47.5910  -11.8370   18.2320 C.3   207  ASN207      0.1653
     80  C        -48.0700  -10.7890   17.2660 C.2   207  ASN207      0.2266
     81  O        -49.2010  -10.8290   16.8310 O.2   207  ASN207     -0.2867
     82  CB       -47.0540  -12.9850   17.4070 C.3   207  ASN207      0.1155
     83  CG       -46.2140  -13.9230   18.1880 C.2   207  ASN207      0.2627
     84  OD1      -45.3340  -13.5180   18.9260 O.2   207  ASN207     -0.2716
     85  ND2      -46.4750  -15.2080   18.0280 N.am  207  ASN207     -0.0877
     86  N        -44.9650  -11.5050   12.6450 N.3   211  MET211     -0.1230
     87  CA       -44.2900  -12.6440   13.2510 C.3   211  MET211      0.1702
     88  C        -45.1740  -13.8710   13.2190 C.2   211  MET211      0.2592
     89  O        -44.8400  -14.8930   13.8470 O.2   211  MET211     -0.2718
     90  CB       -43.9270  -12.3650   14.7300 C.3   211  MET211      0.0401
     91  CG       -42.6040  -11.7140   14.9490 C.3   211  MET211      0.0596
     92  SD       -42.4950  -10.9930   16.5990 S.3   211  MET211     -0.1393
     93  CE       -40.7380  -10.6220   16.6160 C.3   211  MET211      0.0692
     94  N        -46.3040  -13.7910   12.5410 N.am  212  ALA212     -0.1966
     95  CA       -47.2100  -14.9310   12.4870 C.3   212  ALA212      0.1728
     96  C        -46.5990  -16.0510   11.7210 C.2   212  ALA212      0.2616
     97  O        -45.8460  -15.8270   10.8120 O.2   212  ALA212     -0.2715
     98  CB       -48.5130  -14.5750   11.8510 C.3   212  ALA212      0.0334
     99  N        -46.9990  -17.2590   12.0700 N.am  213  ARG213     -0.1963
    100  CA       -46.4250  -18.4470   11.4960 C.3   213  ARG213      0.1729
    101  C        -46.5460  -18.4650   10.0120 C.2   213  ARG213      0.2616
    102  O        -47.6250  -18.1770    9.4540 O.2   213  ARG213     -0.2715
    103  CB       -47.1030  -19.6540   12.0650 C.3   213  ARG213      0.0348
    104  CG       -46.2120  -20.8050   12.0350 C.3   213  ARG213      0.0492
    105  CD       -46.7160  -21.9010   12.9460 C.3   213  ARG213      0.2205
    106  NE       -46.2400  -23.1520   12.4010 N.pl3 213  ARG213     -0.0865
    107  CZ       -46.5300  -24.3560   12.8810 C.cat 213  ARG213      0.5346
    108  NH1      -47.2890  -24.4710   13.9670 N.pl3 213  ARG213      0.1354
    109  NH2      -46.0470  -25.4520   12.2580 N.pl3 213  ARG213      0.1354
    110  N        -45.4310  -18.8230    9.3790 N.am  214  ASN214     -0.1958
    111  CA       -45.3210  -18.7880    7.9210 C.3   214  ASN214      0.1819
    112  C        -44.7570  -20.0430    7.2340 C.2   214  ASN214      0.2621
    113  O        -44.4970  -19.9870    6.0730 O.2   214  ASN214     -0.2715
    114  CB       -44.5480  -17.5000    7.4740 C.3   214  ASN214      0.1195
    115  CG       -44.7980  -17.1460    6.0170 C.2   214  ASN214      0.2630
    116  OD1      -45.9490  -17.0430    5.5530 O.2   214  ASN214     -0.2716
    117  ND2      -43.7290  -17.0210    5.2700 N.am  214  ASN214     -0.0877
    118  N        -44.6250  -21.1720    7.9220 N.am  215  ASP215     -0.1971
    119  CA       -44.2570  -22.4440    7.2840 C.3   215  ASP215      0.1709
    120  C        -45.5120  -23.1070    6.7210 C.2   215  ASP215      0.2293
    121  O        -46.6080  -22.8750    7.2320 O.2   215  ASP215     -0.2864
    122  CB       -43.4710  -23.3790    8.2350 C.3   215  ASP215      0.1436
    123  CG       -44.1970  -23.6660    9.5600 C.2   215  ASP215      0.3671
    124  OD1      -44.5170  -22.7250   10.3220 O.co2 215  ASP215     -0.2456
    125  OD2      -44.4070  -24.8500    9.9030 O.co2 215  ASP215     -0.2456
    126  N        -49.6190  -16.6040    8.4780 N.3   225  ARG225     -0.1245
    127  CA       -49.2490  -15.2280    8.2470 C.3   225  ARG225      0.1563
    128  C        -50.0900  -14.5770    7.1790 C.2   225  ARG225      0.2260
    129  O        -50.5470  -13.4780    7.3920 O.2   225  ARG225     -0.2867
    130  CB       -47.8220  -15.1380    7.8780 C.3   225  ARG225      0.0307
    131  CG       -47.3550  -13.7010    7.7690 C.3   225  ARG225      0.0489
    132  CD       -46.1820  -13.6220    8.6550 C.3   225  ARG225      0.2205
    133  NE       -44.9500  -13.6060    8.0090 N.pl3 225  ARG225     -0.0865
    134  CZ       -43.7880  -14.0050    8.5280 C.cat 225  ARG225      0.5346
    135  NH1      -43.6470  -14.6240    9.6750 N.pl3 225  ARG225      0.1354
    136  NH2      -42.7360  -13.7870    7.8030 N.pl3 225  ARG225      0.1354
    137  N        -40.1520  -20.7140   28.3120 N.3   253  SER253     -0.1217
    138  CA       -40.1610  -20.4160   26.8930 C.3   253  SER253      0.1889
    139  C        -41.1630  -21.2440   26.1180 C.2   253  SER253      0.2288
    140  O        -41.1340  -22.4570   26.1620 O.2   253  SER253     -0.2866
    141  CB       -38.7650  -20.5890   26.3030 C.3   253  SER253      0.2089
    142  OG       -37.7400  -19.9910   27.1530 O.3   253  SER253     -0.2183
    143  N        -35.9110  -23.2480   29.2980 N.3   483  HIS483     -0.1241
    144  CA       -36.3670  -24.0850   28.2070 C.3   483  HIS483      0.1621
    145  C        -36.6790  -25.5050   28.7300 C.2   483  HIS483      0.2264
    146  O        -36.0040  -26.0250   29.6470 O.2   483  HIS483     -0.2867
    147  CB       -35.2780  -24.1500   27.1400 C.3   483  HIS483      0.0745
    148  CG       -34.8880  -22.8050   26.5790 C.ar  483  HIS483      0.0817
    149  ND1      -35.7630  -22.0140   25.8560 N.ar  483  HIS483     -0.2268
    150  CD2      -33.7140  -22.1200   26.6260 C.ar  483  HIS483      0.1154
    151  CE1      -35.1380  -20.9120   25.4680 C.ar  483  HIS483      0.1986
    152  NE2      -33.8990  -20.9390   25.9390 N.ar  483  HIS483     -0.2212
    153  N        -45.2680  -27.5010   15.4120 N.3   493  LYS493     -0.1245
    154  CA       -44.6920  -26.4340   16.2190 C.3   493  LYS493      0.1561
    155  C        -43.6480  -26.9200   17.1930 C.2   493  LYS493      0.2260
    156  O        -42.5830  -26.3100   17.3410 O.2   493  LYS493     -0.2867
    157  CB       -45.8000  -25.6690   16.9680 C.3   493  LYS493      0.0271
    158  CG       -45.2870  -24.6560   17.9790 C.3   493  LYS493      0.0035
    159  CD       -46.4270  -23.7870   18.5480 C.3   493  LYS493      0.0206
    160  CE       -47.3140  -24.5510   19.5170 C.3   493  LYS493      0.1093
    161  NZ       -48.5250  -23.7600   19.6560 N.3   493  LYS493     -0.1314
    162  N        -40.5400  -27.5980   15.3970 N.3   496  TRP496     -0.1227
    163  CA       -39.6980  -26.3930   15.1670 C.3   496  TRP496      0.1737
    164  C        -39.0830  -25.9440   16.4140 C.2   496  TRP496      0.2595
    165  O        -37.9360  -25.5050   16.3820 O.2   496  TRP496     -0.2718
    166  CB       -40.4680  -25.2380   14.4800 C.3   496  TRP496      0.0564
    167  CG       -41.0300  -25.7020   13.2210 C.ar  496  TRP496      0.0003
    168  CD1      -42.3320  -25.8050   12.9020 C.ar  496  TRP496      0.0946
    169  CD2      -40.2970  -26.2400   12.1170 C.ar  496  TRP496      0.0152
    170  NE1      -42.4630  -26.3470   11.6400 N.ar  496  TRP496     -0.2442
    171  CE2      -41.2240  -26.6000   11.1350 C.ar  496  TRP496      0.0810
    172  CE3      -38.9370  -26.3850   11.8410 C.ar  496  TRP496      0.0012
    173  CZ2      -40.8520  -27.1240    9.8860 C.ar  496  TRP496      0.0191
    174  CZ3      -38.5490  -26.9210   10.5490 C.ar  496  TRP496      0.0001
    175  CH2      -39.5100  -27.2950    9.6390 C.ar  496  TRP496      0.0015
    176  N        -39.8100  -26.0490   17.5420 N.am  497  ARG497     -0.1980
    177  CA       -39.2100  -25.6730   18.8350 C.3   497  ARG497      0.1597
    178  C        -37.9940  -26.5250   19.1400 C.2   497  ARG497      0.2287
    179  O        -36.9820  -26.0310   19.6740 O.2   497  ARG497     -0.2864
    180  CB       -40.2030  -25.7540   19.9880 C.3   497  ARG497      0.0334
    181  CG       -39.6580  -25.1170   21.2720 C.3   497  ARG497      0.0492
    182  CD       -40.7330  -24.9400   22.3170 C.3   497  ARG497      0.2205
    183  NE       -41.8650  -24.1460   21.7860 N.pl3 497  ARG497     -0.0865
    184  CZ       -43.1570  -24.3660   22.0710 C.cat 497  ARG497      0.5346
    185  NH1      -43.4850  -25.3450   22.8790 N.pl3 497  ARG497      0.1354
    186  NH2      -44.1430  -23.6360   21.5350 N.pl3 497  ARG497      0.1354
    187  N        -34.9840  -25.4040   16.8100 N.3   500  ALA500     -0.1231
    188  CA       -34.5480  -24.1620   17.4580 C.3   500  ALA500      0.1694
    189  C        -33.6910  -24.3860   18.7450 C.2   500  ALA500      0.2591
    190  O        -32.6120  -23.7700   18.9510 O.2   500  ALA500     -0.2718
    191  CB       -35.7650  -23.3280   17.7730 C.3   500  ALA500      0.0304
    192  N        -34.1510  -25.2820   19.6070 N.am  501  MET501     -0.1979
    193  CA       -33.4380  -25.5120   20.8540 C.3   501  MET501      0.1605
    194  C        -32.1020  -26.2000   20.5810 C.2   501  MET501      0.2287
    195  O        -31.0970  -25.8780   21.2000 O.2   501  MET501     -0.2864
    196  CB       -34.2880  -26.3010   21.8070 C.3   501  MET501      0.0413
    197  CG       -35.2910  -25.4230   22.5190 C.3   501  MET501      0.0598
    198  SD       -36.1150  -26.3390   23.8150 S.3   501  MET501     -0.1393
    199  CE       -36.9320  -27.5700   22.8610 C.3   501  MET501      0.0692
    200  N        -29.7130  -23.4180   19.4330 N.3   504  ARG504     -0.1231
    201  CA       -29.3250  -22.5400   20.5270 C.3   504  ARG504      0.1694
    202  C        -28.3340  -23.2230   21.4800 C.2   504  ARG504      0.2592
    203  O        -27.3740  -22.6240   21.8700 O.2   504  ARG504     -0.2718
    204  CB       -30.5480  -22.0490   21.3170 C.3   504  ARG504      0.0321
    205  CG       -30.2310  -21.2210   22.5880 C.3   504  ARG504      0.0489
    206  CD       -29.8110  -19.7720   22.3540 C.3   504  ARG504      0.2205
    207  NE       -30.9300  -18.9810   21.8130 N.pl3 504  ARG504     -0.0865
    208  CZ       -30.8950  -17.6800   21.4850 C.cat 504  ARG504      0.5346
    209  NH1      -29.7870  -16.9780   21.6660 N.pl3 504  ARG504      0.1354
    210  NH2      -31.9890  -17.0840   20.9850 N.pl3 504  ARG504      0.1354
    211  N        -28.5920  -24.4500   21.8830 N.am  505  PHE505     -0.1976
    212  CA       -27.7090  -25.1070   22.8050 C.3   505  PHE505      0.1639
    213  C        -26.4350  -25.6520   22.1640 C.2   505  PHE505      0.2290
    214  O        -25.4490  -25.7770   22.8470 O.2   505  PHE505     -0.2864
    215  CB       -28.4400  -26.2060   23.5440 C.3   505  PHE505      0.0560
    216  CG       -29.3750  -25.6920   24.6010 C.ar  505  PHE505     -0.0200
    217  CD1      -28.8760  -25.1280   25.7730 C.ar  505  PHE505     -0.0042
    218  CD2      -30.7490  -25.7450   24.4330 C.ar  505  PHE505     -0.0042
    219  CE1      -29.7310  -24.6410   26.7540 C.ar  505  PHE505     -0.0003
    220  CE2      -31.6050  -25.2600   25.4150 C.ar  505  PHE505     -0.0003
    221  CZ       -31.0930  -24.7170   26.5790 C.ar  505  PHE505     -0.0000
@<TRIPOS>BOND
     1   117   115   am
     2   116   115    2
     3     1     2    1
     4   115   114    1
     5   113   112    2
     6     2     5    1
     7     2     3    1
     8   120   121    2
     9   120   119    1
    10     5     6    1
    11   128   129    2
    12   128   127    1
    13   112   111    1
    14   112   118   am
    15   119   118    1
    16   119   122    1
    17     7     6   ar
    18     7     9   ar
    19   114   111    1
    20   131   130    1
    21   131   132    1
    22   136   134    1
    23   130   127    1
    24     3     4    2
    25   111   110    1
    26     6     8   ar
    27   133   134    2
    28   133   132    1
    29   122   123    1
    30   127   126    1
    31     9    10   ar
    32   134   135    1
    33     8    10   ar
    34   110   101   am
    35   102   101    2
    36   123   125   ar
    37   123   124   ar
    38   175   173   ar
    39   175   174   ar
    40   173   171   ar
    41   101   100    1
    42   174   172   ar
    43    97    96    2
    44   171   170   ar
    45   171   169   ar
    46   100   103    1
    47   100    99    1
    48   170   168   ar
    49    96    99   am
    50    96    95    1
    51   172   169   ar
    52    98    95    1
    53   104   103    1
    54   104   105    1
    55   169   167   ar
    56   109   107    1
    57   106   107    2
    58   106   105    1
    59    95    94    1
    60    94    88   am
    61    86    87    1
    62   107   108    1
    63   168   167   ar
    64    88    87    1
    65    88    89    2
    66   167   166    1
    67    87    90    1
    68    75    74    2
    69    11    12    1
    70    18    20   ar
    71    18    16   ar
    72    12    15    1
    73    12    13    1
    74    74    73    1
    75    20    21   ar
    76   166   163    1
    77    15    16    1
    78    90    91    1
    79    73    72    1
    80    73    76    1
    81    91    92    1
    82    16    17   ar
    83    14    13    2
    84   163   162    1
    85   163   164    1
    86   153   154    1
    87    21    22    1
    88    21    19   ar
    89    77    76    1
    90    23    24    1
    91    35    36    1
    92    35    34    1
    93    17    19   ar
    94   154   157    1
    95   154   155    1
    96   165   164    2
    97    36    30    1
    98   164   176   am
    99    71    70    2
   100    92    93    1
   101   187   188    1
   102    81    80    2
   103    24    25    1
   104    24    27    1
   105   157   158    1
   106    30    25   am
   107    30    31    1
   108    34    31    1
   109   155   156    2
   110    80    79    1
   111    70    69    1
   112    25    26    2
   113    82    83    1
   114    82    79    1
   115   188   191    1
   116   188   189    1
   117    31    32    1
   118   176   177    1
   119    29    27    1
   120   158   159    1
   121    85    83   am
   122    27    28    1
   123    83    84    2
   124    79    78    1
   125   159   160    1
   126    69    68    1
   127   189   190    2
   128   189   192   am
   129   177   178    1
   130   177   180    1
   131    32    33    2
   132   178   179    2
   133    49    48    1
   134    49    50    1
   135    61    60    1
   136   200   201    1
   137   160   161    1
   138   192   193    1
   139   180   181    1
   140    48    45    1
   141    52    50   ar
   142    42    41    1
   143    50    51   ar
   144   201   204    1
   145   201   202    1
   146    60    59    1
   147   194   193    1
   148   194   195    2
   149   193   196    1
   150   210   208    1
   151    37    38    1
   152   181   182    1
   153    44    45    1
   154    44    39   am
   155   204   205    1
   156    41    43    1
   157    41    38    1
   158    45    46    1
   159   202   203    2
   160   202   211   am
   161   208   209    1
   162   208   207    2
   163   186   184    1
   164    58    59    1
   165    58    57    1
   166   183   184    2
   167   183   182    1
   168   196   197    1
   169   207   206    1
   170   211   212    1
   171    38    39    1
   172    46    47    2
   173    46    53   am
   174   184   185    1
   175   213   212    1
   176   213   214    2
   177    39    40    2
   178   206   205    1
   179    53    54    1
   180   197   198    1
   181   212   215    1
   182   199   198    1
   183    54    57    1
   184    54    55    1
   185   215   216    1
   186    55    62   am
   187    55    56    2
   188   218   216   ar
   189   218   220   ar
   190   216   217   ar
   191    62    63    1
   192   220   221   ar
   193   151   149   ar
   194   151   152   ar
   195   217   219   ar
   196   149   148   ar
   197   152   150   ar
   198    66    63    1
   199    66    67    1
   200    63    64    1
   201   139   140    2
   202   139   138    1
   203   141   138    1
   204   141   142    1
   205    65    64    2
   206   221   219   ar
   207   148   150   ar
   208   148   147    1
   209   138   137    1
   210   147   144    1
   211   144   145    1
   212   144   143    1
   213   145   146    2
