@<TRIPOS>MOLECULE
tmp/4opdA01.pdb
 196 186 0 0 0
SMALL
GASTEIGER

@<TRIPOS>ATOM
      1  N        -25.0710  -31.1980   27.9160 N.3    47  CYS47      -0.1221
      2  CA       -24.1230  -30.8050   26.8960 C.3    47  CYS47       0.1808
      3  C        -23.5510  -29.4520   27.2910 C.2    47  CYS47       0.2601
      4  O        -24.1620  -28.7170   28.0710 O.2    47  CYS47      -0.2717
      5  CB       -24.7970  -30.7340   25.5230 C.3    47  CYS47       0.0970
      6  SG       -23.6930  -30.3700   24.1270 S.3    47  CYS47      -0.0800
      7  N        -22.3690  -29.1330   26.7740 N.am   48  GLY48      -0.1957
      8  CA       -21.7990  -27.8180   26.9820 C.3    48  GLY48       0.1869
      9  C        -22.5050  -26.8080   26.1000 C.2    48  GLY48       0.2309
     10  O        -22.3880  -25.6070   26.3300 O.2    48  GLY48      -0.2863
     11  N        -22.0240  -25.9630   22.9870 N.3    50  ALA50      -0.1231
     12  CA       -21.2050  -25.1630   22.0790 C.3    50  ALA50       0.1694
     13  C        -21.0780  -25.8270   20.7170 C.2    50  ALA50       0.2592
     14  O        -20.7320  -27.0130   20.6220 O.2    50  ALA50      -0.2718
     15  CB       -19.8320  -24.9350   22.6680 C.3    50  ALA50       0.0304
     16  N        -21.3730  -25.0660   19.6650 N.am   51  VAL51      -0.1966
     17  CA       -21.2990  -25.5950   18.3000 C.3    51  VAL51       0.1727
     18  C        -20.6990  -24.5320   17.3770 C.2    51  VAL51       0.2616
     19  O        -21.0620  -23.3580   17.4440 O.2    51  VAL51      -0.2715
     20  CB       -22.6820  -26.0290   17.7520 C.3    51  VAL51       0.0290
     21  CG1      -22.5150  -26.8050   16.4360 C.3    51  VAL51       0.0023
     22  CG2      -23.4340  -26.8790   18.7640 C.3    51  VAL51       0.0023
     23  N        -19.7730  -24.9510   16.5250 N.am   52  SER52      -0.1950
     24  CA       -19.1390  -24.0480   15.5820 C.3    52  SER52       0.1924
     25  C        -20.1130  -23.5710   14.5000 C.2    52  SER52       0.2314
     26  O        -20.9730  -24.3230   14.0450 O.2    52  SER52      -0.2863
     27  CB       -17.9270  -24.7430   14.9470 C.3    52  SER52       0.2116
     28  OG       -17.7260  -24.3200   13.6170 O.3    52  SER52      -0.2180
     29  N        -19.4220  -22.8400   11.4470 N.3    54  ALA54      -0.1245
     30  CA       -19.0810  -23.4820   10.1800 C.3    54  ALA54       0.1562
     31  C        -20.0180  -24.6390    9.8440 C.2    54  ALA54       0.2260
     32  O        -20.3790  -24.8360    8.6860 O.2    54  ALA54      -0.2867
     33  CB       -17.6320  -23.9710   10.2120 C.3    54  ALA54       0.0290
     34  N        -20.0990  -16.8440   20.1960 N.3    73  ILE73      -0.1245
     35  CA       -18.7270  -17.2290   20.5370 C.3    73  ILE73       0.1561
     36  C        -17.7110  -16.7950   19.4770 C.2    73  ILE73       0.2260
     37  O        -17.9190  -17.0040   18.2820 O.2    73  ILE73      -0.2867
     38  CB       -18.6070  -18.7570   20.7330 C.3    73  ILE73       0.0252
     39  CG1      -19.4840  -19.2080   21.8990 C.3    73  ILE73       0.0019
     40  CG2      -17.1510  -19.1510   20.9880 C.3    73  ILE73       0.0019
     41  CD1      -19.2190  -18.4390   23.1880 C.3    73  ILE73       0.0001
     42  N        -14.1860  -17.4150   20.0240 N.3    75  GLY75      -0.1210
     43  CA       -12.9820  -18.2060   20.1690 C.3    75  GLY75       0.1956
     44  C        -12.9390  -19.0210   21.4370 C.2    75  GLY75       0.2611
     45  O        -13.9220  -19.1140   22.1660 O.2    75  GLY75      -0.2717
     46  N        -11.7810  -19.6170   21.6920 N.am   76  ILE76      -0.1979
     47  CA       -11.5970  -20.5490   22.7910 C.3    76  ILE76       0.1595
     48  C        -10.2470  -20.3020   23.4490 C.2    76  ILE76       0.2287
     49  O         -9.2440  -20.1230   22.7600 O.2    76  ILE76      -0.2864
     50  CB       -11.6640  -22.0200   22.3050 C.3    76  ILE76       0.0276
     51  CG1      -13.0500  -22.3470   21.7420 C.3    76  ILE76       0.0022
     52  CG2      -11.3160  -22.9810   23.4290 C.3    76  ILE76       0.0022
     53  CD1      -13.1680  -23.7570   21.2430 C.3    76  ILE76       0.0001
     54  N         -7.5720  -19.6930   20.3590 N.3    89  VAL89      -0.1231
     55  CA        -7.9230  -20.0110   18.9800 C.3    89  VAL89       0.1692
     56  C         -9.1990  -19.2610   18.6370 C.2    89  VAL89       0.2592
     57  O        -10.2140  -19.4060   19.3060 O.2    89  VAL89      -0.2718
     58  CB        -8.0990  -21.5410   18.7380 C.3    89  VAL89       0.0266
     59  CG1       -6.7590  -22.2550   18.8340 C.3    89  VAL89       0.0020
     60  CG2       -9.0840  -22.1470   19.7190 C.3    89  VAL89       0.0020
     61  N         -9.1340  -18.4260   17.6090 N.am   90  ASN90      -0.1960
     62  CA       -10.2870  -17.6360   17.2100 C.3    90  ASN90       0.1819
     63  C        -11.1310  -18.3940   16.1920 C.2    90  ASN90       0.2622
     64  O        -10.6020  -19.1340   15.3590 O.2    90  ASN90      -0.2715
     65  CB        -9.8440  -16.2840   16.6450 C.3    90  ASN90       0.1195
     66  CG        -9.0100  -15.4840   17.6310 C.2    90  ASN90       0.2630
     67  OD1       -7.9850  -14.9090   17.2700 O.2    90  ASN90      -0.2716
     68  ND2       -9.4450  -15.4490   18.8820 N.am   90  ASN90      -0.0877
     69  N        -12.4450  -18.2070   16.2750 N.am   91  GLY91      -0.1940
     70  CA       -13.3790  -18.8590   15.3790 C.3    91  GLY91       0.2014
     71  C        -14.8030  -18.6260   15.8460 C.2    91  GLY91       0.2639
     72  O        -15.0720  -18.5670   17.0460 O.2    91  GLY91      -0.2714
     73  N        -15.7210  -18.4800   14.9000 N.am   92  GLU92      -0.1963
     74  CA       -17.0950  -18.1590   15.2420 C.3    92  GLU92       0.1733
     75  C        -17.9090  -19.4030   15.5830 C.2    92  GLU92       0.2617
     76  O        -17.8120  -20.4340   14.9130 O.2    92  GLU92      -0.2715
     77  CB       -17.7550  -17.3900   14.0990 C.3    92  GLU92       0.0429
     78  CG       -17.2430  -15.9670   13.9760 C.3    92  GLU92       0.1163
     79  CD       -17.6640  -15.3030   12.6830 C.2    92  GLU92       0.3649
     80  OE1      -18.8540  -14.9610   12.5420 O.co2  92  GLU92      -0.2457
     81  OE2      -16.7980  -15.1250   11.8030 O.co2  92  GLU92      -0.2457
     82  N        -18.7140  -19.2940   16.6350 N.am   93  GLY93      -0.1940
     83  CA       -19.5520  -20.3970   17.0760 C.3    93  GLY93       0.2014
     84  C        -20.7350  -19.8940   17.8800 C.2    93  GLY93       0.2638
     85  O        -20.8850  -18.6840   18.0880 O.2    93  GLY93      -0.2714
     86  N        -21.5690  -20.8180   18.3420 N.am   94  PHE94      -0.1973
     87  CA       -22.7490  -20.4630   19.1150 C.3    94  PHE94       0.1639
     88  C        -22.8010  -21.2130   20.4380 C.2    94  PHE94       0.2290
     89  O        -22.5130  -22.3990   20.4970 O.2    94  PHE94      -0.2864
     90  CB       -24.0400  -20.7770   18.3540 C.3    94  PHE94       0.0560
     91  CG       -24.1030  -20.2240   16.9660 C.ar   94  PHE94      -0.0200
     92  CD1      -24.0780  -18.8630   16.7450 C.ar   94  PHE94      -0.0042
     93  CD2      -24.2510  -21.0780   15.8770 C.ar   94  PHE94      -0.0042
     94  CE1      -24.1610  -18.3520   15.4570 C.ar   94  PHE94      -0.0003
     95  CE2      -24.3400  -20.5750   14.5910 C.ar   94  PHE94      -0.0003
     96  CZ       -24.2930  -19.2100   14.3780 C.ar   94  PHE94      -0.0000
     97  N        -19.2370  -37.3110   31.3600 N.3   185  ALA185     -0.1245
     98  CA       -19.1180  -35.8660   31.4380 C.3   185  ALA185      0.1562
     99  C        -20.3200  -35.3160   32.1850 C.2   185  ALA185      0.2260
    100  O        -21.4040  -35.8860   32.1240 O.2   185  ALA185     -0.2867
    101  CB       -19.0010  -35.2650   30.0300 C.3   185  ALA185      0.0290
    102  N        -14.9180  -19.2530   25.0210 N.3   202  LEU202     -0.1245
    103  CA       -14.9860  -20.4610   25.8190 C.3   202  LEU202      0.1561
    104  C        -13.6690  -20.6840   26.5460 C.2   202  LEU202      0.2260
    105  O        -12.6080  -20.2900   26.0630 O.2   202  LEU202     -0.2867
    106  CB       -15.2920  -21.6880   24.9420 C.3   202  LEU202      0.0270
    107  CG       -16.5750  -21.6890   24.1140 C.3   202  LEU202      0.0019
    108  CD1      -16.8050  -23.0720   23.4880 C.3   202  LEU202      0.0001
    109  CD2      -17.7560  -21.3030   24.9750 C.3   202  LEU202      0.0001
    110  N        -11.3220  -23.7840   28.1830 N.3   204  ILE204     -0.1245
    111  CA       -11.0730  -25.2110   28.3330 C.3   204  ILE204      0.1561
    112  C         -9.8120  -25.3880   29.1710 C.2   204  ILE204      0.2260
    113  O         -8.7840  -24.7490   28.9100 O.2   204  ILE204     -0.2867
    114  CB       -10.9190  -25.9000   26.9650 C.3   204  ILE204      0.0252
    115  CG1      -12.2710  -25.9190   26.2380 C.3   204  ILE204      0.0019
    116  CG2      -10.3680  -27.3340   27.1180 C.3   204  ILE204      0.0019
    117  CD1      -12.1690  -26.4840   24.8500 C.3   204  ILE204      0.0001
    118  N        -11.2540  -32.9940   30.2580 N.3   215  TYR215     -0.1241
    119  CA       -10.9460  -31.6320   30.6500 C.3   215  TYR215      0.1605
    120  C        -12.0860  -30.9730   31.3860 C.2   215  TYR215      0.2264
    121  O        -13.2040  -31.4640   31.3550 O.2   215  TYR215     -0.2867
    122  CB       -10.5660  -30.7910   29.4360 C.3   215  TYR215      0.0534
    123  CG       -11.5810  -30.6590   28.3110 C.ar  215  TYR215     -0.0201
    124  CD1      -12.6610  -29.7860   28.4140 C.ar  215  TYR215     -0.0009
    125  CD2      -11.4040  -31.3370   27.1100 C.ar  215  TYR215     -0.0009
    126  CE1      -13.5520  -29.6170   27.3730 C.ar  215  TYR215      0.0417
    127  CE2      -12.2960  -31.1760   26.0550 C.ar  215  TYR215      0.0417
    128  CZ       -13.3670  -30.3160   26.1940 C.ar  215  TYR215      0.1957
    129  OH       -14.2570  -30.1350   25.1570 O.3   215  TYR215     -0.2866
    130  N        -14.3490  -27.3660   31.7300 N.3   217  TRP217     -0.1241
    131  CA       -14.6900  -26.2460   30.8670 C.3   217  TRP217      0.1605
    132  C        -15.5730  -25.2050   31.5490 C.2   217  TRP217      0.2264
    133  O        -16.2440  -25.4620   32.5410 O.2   217  TRP217     -0.2867
    134  CB       -15.3730  -26.7380   29.5820 C.3   217  TRP217      0.0550
    135  CG       -16.7870  -27.2680   29.7250 C.ar  217  TRP217      0.0003
    136  CD1      -17.9430  -26.5350   29.7490 C.ar  217  TRP217      0.0946
    137  CD2      -17.1850  -28.6440   29.7930 C.ar  217  TRP217      0.0152
    138  NE1      -19.0300  -27.3700   29.8550 N.ar  217  TRP217     -0.2442
    139  CE2      -18.5930  -28.6690   29.8790 C.ar  217  TRP217      0.0810
    140  CE3      -16.4860  -29.8600   29.7950 C.ar  217  TRP217      0.0012
    141  CZ2      -19.3140  -29.8580   29.9790 C.ar  217  TRP217      0.0191
    142  CZ3      -17.2030  -31.0390   29.8880 C.ar  217  TRP217      0.0001
    143  CH2      -18.6040  -31.0320   29.9790 C.ar  217  TRP217      0.0015
    144  N        -18.0020  -22.4220   29.7970 N.3   219  PHE219     -0.1241
    145  CA       -18.5940  -21.9490   28.5440 C.3   219  PHE219      0.1605
    146  C        -19.6380  -20.8650   28.8490 C.2   219  PHE219      0.2264
    147  O        -20.7620  -21.1940   29.2340 O.2   219  PHE219     -0.2867
    148  CB       -19.2860  -23.0990   27.7810 C.3   219  PHE219      0.0534
    149  CG       -18.3530  -24.1000   27.1560 C.ar  219  PHE219     -0.0203
    150  CD1      -16.9730  -23.9920   27.2830 C.ar  219  PHE219     -0.0042
    151  CD2      -18.8730  -25.1580   26.4160 C.ar  219  PHE219     -0.0042
    152  CE1      -16.1350  -24.9350   26.6900 C.ar  219  PHE219     -0.0003
    153  CE2      -18.0390  -26.0880   25.8240 C.ar  219  PHE219     -0.0003
    154  CZ       -16.6750  -25.9750   25.9550 C.ar  219  PHE219     -0.0000
    155  N        -20.2290  -39.8400   26.5730 N.3   269  VAL269     -0.1245
    156  CA       -19.9290  -39.3490   25.2390 C.3   269  VAL269      0.1561
    157  C        -18.7970  -40.1900   24.6280 C.2   269  VAL269      0.2260
    158  O        -17.7170  -40.3220   25.2110 O.2   269  VAL269     -0.2867
    159  CB       -19.5800  -37.8320   25.2790 C.3   269  VAL269      0.0252
    160  CG1      -18.4060  -37.5600   26.2020 C.3   269  VAL269      0.0019
    161  CG2      -19.3420  -37.2720   23.8820 C.3   269  VAL269      0.0019
    162  N        -11.6510  -33.1040   21.2570 N.3   297  HIS297     -0.1226
    163  CA       -12.3610  -32.1040   22.0510 C.3   297  HIS297      0.1752
    164  C        -13.7810  -32.5210   22.4740 C.2   297  HIS297      0.2597
    165  O        -14.4280  -31.8050   23.2380 O.2   297  HIS297     -0.2718
    166  CB       -12.3860  -30.7340   21.3400 C.3   297  HIS297      0.0759
    167  CG       -13.0790  -30.6950   20.0110 C.ar  297  HIS297      0.0818
    168  ND1      -14.3690  -31.1410   19.8140 N.ar  297  HIS297     -0.2268
    169  CD2      -12.6860  -30.1560   18.8310 C.ar  297  HIS297      0.1154
    170  CE1      -14.7220  -30.9220   18.5600 C.ar  297  HIS297      0.1986
    171  NE2      -13.7260  -30.3050   17.9470 N.ar  297  HIS297     -0.2212
    172  N        -14.2580  -33.6700   22.0030 N.am  298  GLY298     -0.1942
    173  CA       -15.4770  -34.2310   22.5550 C.3   298  GLY298      0.2014
    174  C        -16.7320  -33.6060   21.9880 C.2   298  GLY298      0.2639
    175  O        -17.8560  -33.8860   22.4510 O.2   298  GLY298     -0.2714
    176  N        -16.5620  -32.7850   20.9580 N.am  299  GLY299     -0.1954
    177  CA       -17.6990  -32.0990   20.3690 C.3   299  GLY299      0.1869
    178  C        -18.4180  -32.9910   19.3890 C.2   299  GLY299      0.2309
    179  O        -17.8030  -33.5320   18.4820 O.2   299  GLY299     -0.2863
    180  N         -4.9810  -24.6800   15.3390 N.3   377  LEU377     -0.1245
    181  CA        -6.1520  -24.4930   14.4920 C.3   377  LEU377      0.1561
    182  C         -6.0230  -25.2610   13.1780 C.2   377  LEU377      0.2260
    183  O         -6.9630  -25.9320   12.7550 O.2   377  LEU377     -0.2867
    184  CB        -6.3780  -23.0020   14.2170 C.3   377  LEU377      0.0270
    185  CG        -7.7860  -22.5830   13.7790 C.3   377  LEU377      0.0019
    186  CD1       -8.1190  -21.1990   14.3130 C.3   377  LEU377      0.0001
    187  CD2       -7.9200  -22.6050   12.2600 C.3   377  LEU377      0.0001
    188  N         -8.3070  -28.7540   11.7960 N.3   381  GLU381     -0.1245
    189  CA        -9.0780  -28.6980   10.5560 C.3   381  GLU381      0.1567
    190  C         -9.3560  -30.0920    9.9960 C.2   381  GLU381      0.2260
    191  O        -10.4970  -30.4390    9.7130 O.2   381  GLU381     -0.2867
    192  CB        -8.3400  -27.8610    9.5060 C.3   381  GLU381      0.0388
    193  CG        -9.1340  -26.6930    8.9400 C.3   381  GLU381      0.1160
    194  CD        -9.1200  -25.4630    9.8410 C.2   381  GLU381      0.3649
    195  OE1       -8.6720  -24.3910    9.3750 O.co2 381  GLU381     -0.2457
    196  OE2       -9.5650  -25.5620   11.0070 O.co2 381  GLU381     -0.2457
@<TRIPOS>BOND
     1    32    31    2
     2   193   192    1
     3   193   194    1
     4   195   194   ar
     5   192   189    1
     6   191   190    2
     7   194   196   ar
     8    31    30    1
     9   190   189    1
    10    30    33    1
    11    30    29    1
    12   189   188    1
    13    81    79   ar
    14   187   185    1
    15    80    79   ar
    16    79    78    1
    17   183   182    2
    18   182   181    1
    19    28    27    1
    20   185   184    1
    21   185   186    1
    22    78    77    1
    23    26    25    2
    24    77    74    1
    25   184   181    1
    26    96    95   ar
    27    96    94   ar
    28   181   180    1
    29    25    24    1
    30    95    93   ar
    31    73    74    1
    32    73    71   am
    33    76    75    2
    34    27    24    1
    35    74    75    1
    36    64    63    2
    37    70    71    1
    38    70    69    1
    39    94    92   ar
    40    24    23    1
    41    75    82   am
    42    71    72    2
    43    93    91   ar
    44    63    69   am
    45    63    62    1
    46    21    20    1
    47    23    18   am
    48    82    83    1
    49    65    62    1
    50    65    66    1
    51    92    91   ar
    52    91    90    1
    53    83    84    1
    54    62    61    1
    55    67    66    2
    56    18    19    2
    57    18    17    1
    58    61    56   am
    59    66    68   am
    60    20    17    1
    61    20    22    1
    62    84    85    2
    63    84    86   am
    64   171   170   ar
    65   171   169   ar
    66    37    36    2
    67    17    16    1
    68    86    87    1
    69    90    87    1
    70   179   178    2
    71   170   168   ar
    72    56    55    1
    73    56    57    2
    74    58    59    1
    75    58    55    1
    76    58    60    1
    77   169   167   ar
    78    55    54    1
    79    87    88    1
    80   178   177    1
    81    36    35    1
    82    16    13   am
    83   168   167   ar
    84   167   166    1
    85    42    43    1
    86    43    44    1
    87    34    35    1
    88   177   176    1
    89    88    89    2
    90    35    38    1
    91    14    13    2
    92    13    12    1
    93    38    40    1
    94    38    39    1
    95   176   174   am
    96    53    51    1
    97   162   163    1
    98   166   163    1
    99    44    46   am
   100    44    45    2
   101    46    47    1
   102    51    50    1
   103    39    41    1
   104   174   175    2
   105   174   173    1
   106   172   164   am
   107   172   173    1
   108   163   164    1
   109    12    15    1
   110    12    11    1
   111    50    47    1
   112    50    52    1
   113   164   165    2
   114    49    48    2
   115    47    48    1
   116   108   107    1
   117   161   159    1
   118   107   106    1
   119   107   109    1
   120     6     5    1
   121   157   158    2
   122   157   156    1
   123   117   115    1
   124   106   103    1
   125   102   103    1
   126   129   128    1
   127   156   159    1
   128   156   155    1
   129   159   160    1
   130     5     2    1
   131   103   104    1
   132   153   154   ar
   133   153   151   ar
   134   154   152   ar
   135   127   128   ar
   136   127   125   ar
   137   105   104    2
   138     9    10    2
   139     9     8    1
   140   128   126   ar
   141   115   114    1
   142   151   149   ar
   143   152   150   ar
   144     7     8    1
   145     7     3   am
   146     2     3    1
   147     2     1    1
   148   114   116    1
   149   114   111    1
   150   125   123   ar
   151   149   150   ar
   152   149   148    1
   153     3     4    2
   154   126   124   ar
   155   148   145    1
   156   110   111    1
   157   123   124   ar
   158   123   122    1
   159   111   112    1
   160   145   146    1
   161   145   144    1
   162   146   147    2
   163   113   112    2
   164   122   119    1
   165   134   135    1
   166   134   131    1
   167   135   136   ar
   168   135   137   ar
   169   136   138   ar
   170   137   140   ar
   171   137   139   ar
   172   140   142   ar
   173   138   139   ar
   174   139   141   ar
   175   142   143   ar
   176   143   141   ar
   177   101    98    1
   178   118   119    1
   179   119   120    1
   180   131   132    1
   181   131   130    1
   182   121   120    2
   183    97    98    1
   184    98    99    1
   185   132   133    2
   186   100    99    2
