@<TRIPOS>MOLECULE
tmp/4opdA03.pdb
 229 214 0 0 0
SMALL
GASTEIGER

@<TRIPOS>ATOM
      1  N         -7.4560  -22.0080   25.7760 N.3    78  LEU78      -0.1245
      2  CA        -7.0300  -23.3090   26.2560 C.3    78  LEU78       0.1561
      3  C         -5.9750  -23.1330   27.3400 C.2    78  LEU78       0.2260
      4  O         -4.9290  -22.5350   27.0980 O.2    78  LEU78      -0.2867
      5  CB        -6.4890  -24.1570   25.0980 C.3    78  LEU78       0.0270
      6  CG        -5.9450  -25.5230   25.4980 C.3    78  LEU78       0.0019
      7  CD1       -7.0960  -26.4080   25.9450 C.3    78  LEU78       0.0001
      8  CD2       -5.1710  -26.1640   24.3470 C.3    78  LEU78       0.0001
      9  N         -3.5340  -20.6830   25.5020 N.3    87  TRP87      -0.1241
     10  CA        -3.5310  -20.5760   24.0530 C.3    87  TRP87       0.1605
     11  C         -4.8960  -20.1490   23.5590 C.2    87  TRP87       0.2264
     12  O         -5.9100  -20.6700   24.0130 O.2    87  TRP87      -0.2867
     13  CB        -3.1430  -21.9020   23.4140 C.3    87  TRP87       0.0550
     14  CG        -1.6760  -22.2090   23.5110 C.ar   87  TRP87       0.0003
     15  CD1       -0.6770  -21.3640   23.9030 C.ar   87  TRP87       0.0946
     16  CD2       -1.0560  -23.4610   23.2180 C.ar   87  TRP87       0.0152
     17  NE1        0.5370  -22.0190   23.8630 N.ar   87  TRP87      -0.2442
     18  CE2        0.3260  -23.3090   23.4460 C.ar   87  TRP87       0.0810
     19  CE3       -1.5380  -24.6990   22.7790 C.ar   87  TRP87       0.0012
     20  CZ2        1.2290  -24.3460   23.2520 C.ar   87  TRP87       0.0191
     21  CZ3       -0.6390  -25.7290   22.5880 C.ar   87  TRP87       0.0001
     22  CH2        0.7310  -25.5430   22.8260 C.ar   87  TRP87       0.0015
     23  N        -15.9920  -35.9560   18.0050 N.3   294  ASN294     -0.1240
     24  CA       -14.5660  -35.6230   17.8890 C.3   294  ASN294      0.1653
     25  C        -13.7700  -36.2100   19.0610 C.2   294  ASN294      0.2266
     26  O        -13.9790  -35.8150   20.2080 O.2   294  ASN294     -0.2867
     27  CB       -14.4180  -34.0990   17.8410 C.3   294  ASN294      0.1155
     28  CG       -12.9950  -33.6550   17.5760 C.2   294  ASN294      0.2627
     29  OD1      -12.0830  -33.9820   18.3260 O.2   294  ASN294     -0.2716
     30  ND2      -12.8010  -32.9210   16.4910 N.am  294  ASN294     -0.0877
     31  N        -10.9330  -35.7320   20.2900 N.3   296  VAL296     -0.1231
     32  CA       -10.0050  -34.9040   21.0460 C.3   296  VAL296      0.1692
     33  C        -10.7240  -33.8440   21.8650 C.2   296  VAL296      0.2592
     34  O        -10.4510  -33.7150   23.0600 O.2   296  VAL296     -0.2718
     35  CB        -8.9570  -34.2410   20.1360 C.3   296  VAL296      0.0266
     36  CG1       -8.2670  -33.0790   20.8470 C.3   296  VAL296      0.0020
     37  CG2       -7.9220  -35.2700   19.7240 C.3   296  VAL296      0.0020
     38  N        -11.6510  -33.1040   21.2570 N.am  297  HIS297     -0.1976
     39  CA       -12.3610  -32.1040   22.0510 C.3   297  HIS297      0.1656
     40  C        -13.7810  -32.5210   22.4740 C.2   297  HIS297      0.2291
     41  O        -14.4280  -31.8050   23.2380 O.2   297  HIS297     -0.2864
     42  CB       -12.3860  -30.7340   21.3400 C.3   297  HIS297      0.0771
     43  CG       -13.0790  -30.6950   20.0110 C.ar  297  HIS297      0.0820
     44  ND1      -14.3690  -31.1410   19.8140 N.ar  297  HIS297     -0.2267
     45  CD2      -12.6860  -30.1560   18.8310 C.ar  297  HIS297      0.1154
     46  CE1      -14.7220  -30.9220   18.5600 C.ar  297  HIS297      0.1986
     47  NE2      -13.7260  -30.3050   17.9470 N.ar  297  HIS297     -0.2212
     48  N        -11.0480  -37.5800    9.7210 N.3   343  LYS343     -0.1245
     49  CA       -10.5230  -36.6510   10.7200 C.3   343  LYS343      0.1561
     50  C        -10.6190  -37.2460   12.1140 C.2   343  LYS343      0.2260
     51  O         -9.6690  -37.1830   12.8850 O.2   343  LYS343     -0.2867
     52  CB       -11.2760  -35.3230   10.6490 C.3   343  LYS343      0.0271
     53  CG       -11.1580  -34.4470   11.9020 C.3   343  LYS343      0.0035
     54  CD       -11.8980  -33.1260   11.7140 C.3   343  LYS343      0.0206
     55  CE       -11.9850  -32.3630   13.0310 C.3   343  LYS343      0.1093
     56  NZ       -12.5160  -30.9770   12.8470 N.3   343  LYS343     -0.1314
     57  N         -7.6830  -38.3690   14.9160 N.3   347  LEU347     -0.1245
     58  CA        -7.7400  -37.7980   16.2620 C.3   347  LEU347      0.1561
     59  C         -7.9490  -38.8510   17.3440 C.2   347  LEU347      0.2260
     60  O         -7.6790  -38.5950   18.5140 O.2   347  LEU347     -0.2867
     61  CB        -8.8400  -36.7490   16.3350 C.3   347  LEU347      0.0270
     62  CG        -8.5750  -35.4760   15.5290 C.3   347  LEU347      0.0019
     63  CD1       -9.7980  -34.5790   15.6060 C.3   347  LEU347      0.0001
     64  CD2       -7.3130  -34.7440   16.0160 C.3   347  LEU347      0.0001
     65  N         -4.5000  -39.5110   18.2590 N.3   350  PHE350     -0.1241
     66  CA        -3.9170  -38.3820   18.9710 C.3   350  PHE350      0.1605
     67  C         -4.4710  -38.3200   20.3930 C.2   350  PHE350      0.2264
     68  O         -3.7220  -38.0800   21.3230 O.2   350  PHE350     -0.2867
     69  CB        -4.1680  -37.0680   18.2140 C.3   350  PHE350      0.0534
     70  CG        -3.3450  -35.9120   18.7100 C.ar  350  PHE350     -0.0203
     71  CD1       -1.9630  -35.9220   18.5710 C.ar  350  PHE350     -0.0042
     72  CD2       -3.9450  -34.8210   19.3000 C.ar  350  PHE350     -0.0042
     73  CE1       -1.2010  -34.8660   19.0280 C.ar  350  PHE350     -0.0003
     74  CE2       -3.1870  -33.7590   19.7570 C.ar  350  PHE350     -0.0003
     75  CZ        -1.8130  -33.7850   19.6150 C.ar  350  PHE350     -0.0000
     76  N         -2.6470  -40.4660   22.9270 N.3   353  PHE353     -0.1227
     77  CA        -1.3790  -39.8500   23.2870 C.3   353  PHE353      0.1736
     78  C         -1.6050  -38.8090   24.3820 C.2   353  PHE353      0.2595
     79  O         -0.9720  -38.8540   25.4370 O.2   353  PHE353     -0.2718
     80  CB        -0.7460  -39.2310   22.0310 C.3   353  PHE353      0.0547
     81  CG         0.4670  -38.3740   22.2970 C.ar  353  PHE353     -0.0202
     82  CD1        1.6460  -38.9310   22.7870 C.ar  353  PHE353     -0.0042
     83  CD2        0.4460  -37.0160   21.9940 C.ar  353  PHE353     -0.0042
     84  CE1        2.7670  -38.1310   23.0080 C.ar  353  PHE353     -0.0003
     85  CE2        1.5580  -36.2190   22.2180 C.ar  353  PHE353     -0.0003
     86  CZ         2.7220  -36.7820   22.7160 C.ar  353  PHE353     -0.0000
     87  N         -2.5470  -37.8980   24.1370 N.am  354  LEU354     -0.1980
     88  CA        -2.8420  -36.8250   25.0830 C.3   354  LEU354      0.1596
     89  C         -3.2310  -37.3860   26.4430 C.2   354  LEU354      0.2287
     90  O         -2.7590  -36.9110   27.4610 O.2   354  LEU354     -0.2864
     91  CB        -3.9650  -35.9150   24.5620 C.3   354  LEU354      0.0297
     92  CG        -3.7310  -35.1530   23.2510 C.3   354  LEU354      0.0022
     93  CD1       -4.9490  -34.2780   22.9400 C.3   354  LEU354      0.0001
     94  CD2       -2.4560  -34.3120   23.3260 C.3   354  LEU354      0.0001
     95  N         -0.2760  -38.2160   28.7380 N.3   357  LEU357     -0.1245
     96  CA         0.6790  -37.1840   29.1570 C.3   357  LEU357      0.1561
     97  C          0.4230  -36.7580   30.5980 C.2   357  LEU357      0.2260
     98  O         -0.7100  -36.7870   31.0750 O.2   357  LEU357     -0.2867
     99  CB         0.6090  -35.9620   28.2410 C.3   357  LEU357      0.0270
    100  CG         0.9490  -36.1060   26.7570 C.3   357  LEU357      0.0019
    101  CD1        0.6690  -34.7760   26.0480 C.3   357  LEU357      0.0001
    102  CD2        2.4030  -36.5370   26.5510 C.3   357  LEU357      0.0001
    103  N          4.1800  -32.7770   31.7400 N.3   361  ASP361     -0.1225
    104  CA         4.3610  -32.8110   30.2880 C.3   361  ASP361      0.1805
    105  C          3.6030  -31.6760   29.6020 C.2   361  ASP361      0.2597
    106  O          4.1460  -30.9600   28.7540 O.2   361  ASP361     -0.2718
    107  CB         3.8850  -34.1320   29.6810 C.3   361  ASP361      0.1424
    108  CG         4.7060  -35.3180   30.1130 C.2   361  ASP361      0.3668
    109  OD1        5.9070  -35.1630   30.4170 O.co2 361  ASP361     -0.2456
    110  OD2        4.1360  -36.4270   30.1260 O.co2 361  ASP361     -0.2456
    111  N          2.3270  -31.5330   29.9450 N.am  362  ILE362     -0.1980
    112  CA         1.4990  -30.5470   29.2700 C.3   362  ILE362      0.1595
    113  C          1.9050  -29.1070   29.6520 C.2   362  ILE362      0.2287
    114  O          1.9950  -28.2370   28.7800 O.2   362  ILE362     -0.2864
    115  CB         0.0150  -30.8050   29.5650 C.3   362  ILE362      0.0276
    116  CG1       -0.3900  -32.1750   28.9960 C.3   362  ILE362      0.0022
    117  CG2       -0.8340  -29.6850   28.9790 C.3   362  ILE362      0.0022
    118  CD1       -1.7340  -32.7080   29.5430 C.3   362  ILE362      0.0001
    119  N          5.2210  -28.4710   27.6820 N.3   365  GLY365     -0.1210
    120  CA         5.0020  -28.3540   26.2500 C.3   365  GLY365      0.1956
    121  C          4.3460  -27.0360   25.8900 C.2   365  GLY365      0.2611
    122  O          4.7660  -26.3470   24.9620 O.2   365  GLY365     -0.2717
    123  N          3.3180  -26.6670   26.6430 N.am  366  MET366     -0.1979
    124  CA         2.6370  -25.4080   26.3780 C.3   366  MET366      0.1605
    125  C          3.5460  -24.2090   26.6600 C.2   366  MET366      0.2287
    126  O          3.6130  -23.2840   25.8510 O.2   366  MET366     -0.2864
    127  CB         1.3370  -25.3260   27.1840 C.3   366  MET366      0.0413
    128  CG         0.2950  -26.3000   26.6730 C.3   366  MET366      0.0598
    129  SD        -1.3520  -26.1190   27.3750 S.3   366  MET366     -0.1393
    130  CE        -1.8330  -24.4890   26.7980 C.3   366  MET366      0.0692
    131  N          5.7010  -25.6880   22.2470 N.3   370  ILE370     -0.1231
    132  CA         5.9610  -26.8840   21.4620 C.3   370  ILE370      0.1692
    133  C          5.2740  -26.8210   20.0890 C.2   370  ILE370      0.2591
    134  O          5.7840  -27.3720   19.1060 O.2   370  ILE370     -0.2718
    135  CB         5.5150  -28.1250   22.2700 C.3   370  ILE370      0.0266
    136  CG1        6.0740  -29.4150   21.6820 C.3   370  ILE370      0.0019
    137  CG2        3.9870  -28.1710   22.4320 C.3   370  ILE370      0.0020
    138  CD1        5.7000  -30.6160   22.5060 C.3   370  ILE370      0.0001
    139  N          4.1270  -26.1370   20.0360 N.am  371  ILE371     -0.1980
    140  CA         3.4640  -25.7740   18.7850 C.3   371  ILE371      0.1595
    141  C          2.9890  -24.3390   18.8830 C.2   371  ILE371      0.2287
    142  O          2.8380  -23.8060   19.9830 O.2   371  ILE371     -0.2864
    143  CB         2.2410  -26.6740   18.4580 C.3   371  ILE371      0.0276
    144  CG1        1.2250  -26.6410   19.5960 C.3   371  ILE371      0.0022
    145  CG2        2.6790  -28.0890   18.1810 C.3   371  ILE371      0.0022
    146  CD1       -0.1300  -27.2370   19.2420 C.3   371  ILE371      0.0001
    147  N         -0.9470  -23.2840   14.8550 N.3   375  ASP375     -0.1225
    148  CA        -0.8260  -24.6340   14.3260 C.3   375  ASP375      0.1805
    149  C         -1.9040  -25.5300   14.9110 C.2   375  ASP375      0.2597
    150  O         -2.3280  -26.4960   14.2740 O.2   375  ASP375     -0.2718
    151  CB         0.5630  -25.2060   14.6000 C.3   375  ASP375      0.1424
    152  CG         1.4900  -25.0450   13.4160 C.2   375  ASP375      0.3668
    153  OD1        0.9780  -25.0040   12.2760 O.co2 375  ASP375     -0.2456
    154  OD2        2.7200  -24.9560   13.6180 O.co2 375  ASP375     -0.2456
    155  N         -2.3550  -25.1870   16.1110 N.am  376  LEU376     -0.1979
    156  CA        -3.4420  -25.8890   16.7610 C.3   376  LEU376      0.1596
    157  C         -4.6770  -25.8590   15.8700 C.2   376  LEU376      0.2287
    158  O         -5.3200  -26.8800   15.6520 O.2   376  LEU376     -0.2864
    159  CB        -3.7420  -25.2540   18.1160 C.3   376  LEU376      0.0297
    160  CG        -4.4890  -26.1050   19.1290 C.3   376  LEU376      0.0022
    161  CD1       -3.7110  -27.3820   19.3690 C.3   376  LEU376      0.0001
    162  CD2       -4.6750  -25.3150   20.4200 C.3   376  LEU376      0.0001
    163  N         -4.2400  -27.8940   12.5990 N.3   379  ALA379     -0.1231
    164  CA        -4.2970  -29.3200   12.9040 C.3   379  ALA379      0.1694
    165  C         -5.7250  -29.7780   13.1640 C.2   379  ALA379      0.2592
    166  O         -6.1050  -30.8930   12.8130 O.2   379  ALA379     -0.2718
    167  CB        -3.4180  -29.6330   14.0960 C.3   379  ALA379      0.0304
    168  N         -6.5190  -28.9090   13.7760 N.am  380  SER380     -0.1952
    169  CA        -7.8920  -29.2550   14.1300 C.3   380  SER380      0.1924
    170  C         -8.7750  -29.3400   12.8940 C.2   380  SER380      0.2314
    171  O         -9.8600  -29.9150   12.9390 O.2   380  SER380     -0.2863
    172  CB        -8.4670  -28.2290   15.1060 C.3   380  SER380      0.2116
    173  OG        -8.5800  -26.9580   14.4820 O.3   380  SER380     -0.2180
    174  N         -7.4480  -32.8600   11.3760 N.3   383  GLY383     -0.1210
    175  CA        -6.8430  -33.7800   12.3190 C.3   383  GLY383      0.1956
    176  C         -5.4550  -34.2390   11.9040 C.2   383  GLY383      0.2612
    177  O         -5.0400  -35.3460   12.2310 O.2   383  GLY383     -0.2717
    178  N         -4.7240  -33.3850   11.1950 N.am  384  ASP384     -0.1959
    179  CA        -3.3980  -33.7540   10.6990 C.3   384  ASP384      0.1840
    180  C         -2.2830  -33.2130   11.5770 C.2   384  ASP384      0.2621
    181  O         -2.3470  -32.0790   12.0360 O.2   384  ASP384     -0.2715
    182  CB        -3.2000  -33.2460    9.2820 C.3   384  ASP384      0.1450
    183  CG        -3.9870  -34.0380    8.2690 C.2   384  ASP384      0.3671
    184  OD1       -4.1850  -35.2510    8.4860 O.co2 384  ASP384     -0.2456
    185  OD2       -4.4040  -33.4420    7.2580 O.co2 384  ASP384     -0.2456
    186  N         -1.2600  -34.0300   11.7960 N.am  385  LEU385     -0.1977
    187  CA        -0.0450  -33.5880   12.4670 C.3   385  LEU385      0.1596
    188  C          1.1160  -33.5790   11.4650 C.2   385  LEU385      0.2287
    189  O          1.7710  -34.5960   11.2470 O.2   385  LEU385     -0.2864
    190  CB         0.2670  -34.4850   13.6620 C.3   385  LEU385      0.0297
    191  CG         1.6180  -34.2690   14.3550 C.3   385  LEU385      0.0022
    192  CD1        1.8580  -32.7930   14.6780 C.3   385  LEU385      0.0001
    193  CD2        1.6970  -35.1010   15.6170 C.3   385  LEU385      0.0001
    194  N          5.6750  -29.5460   11.7950 N.3   389  VAL389     -0.1245
    195  CA         5.1760  -29.2690   13.1350 C.3   389  VAL389      0.1561
    196  C          5.7490  -30.2580   14.1410 C.2   389  VAL389      0.2260
    197  O          6.1640  -29.8710   15.2380 O.2   389  VAL389     -0.2867
    198  CB         3.6410  -29.3180   13.1900 C.3   389  VAL389      0.0252
    199  CG1        3.1600  -29.2320   14.6370 C.3   389  VAL389      0.0019
    200  CG2        3.0550  -28.1930   12.3550 C.3   389  VAL389      0.0019
    201  N          8.4710  -29.4260   17.1190 N.3   393  ALA393     -0.1245
    202  CA         8.0980  -29.8010   18.4780 C.3   393  ALA393      0.1562
    203  C          9.1880  -30.6360   19.1530 C.2   393  ALA393      0.2260
    204  O          9.5120  -30.4370   20.3290 O.2   393  ALA393     -0.2867
    205  CB         6.7780  -30.5650   18.4650 C.3   393  ALA393      0.0290
    206  N          6.2900  -37.2290   25.7920 N.3   406  LEU406     -0.1245
    207  CA         6.3510  -36.2000   24.7560 C.3   406  LEU406      0.1561
    208  C          7.2820  -36.5890   23.6090 C.2   406  LEU406      0.2260
    209  O          7.0690  -36.1840   22.4620 O.2   406  LEU406     -0.2867
    210  CB         6.8210  -34.8710   25.3310 C.3   406  LEU406      0.0270
    211  CG         5.8700  -34.1150   26.2470 C.3   406  LEU406      0.0019
    212  CD1        6.5870  -32.8970   26.8170 C.3   406  LEU406      0.0001
    213  CD2        4.6230  -33.7040   25.4580 C.3   406  LEU406      0.0001
    214  N          6.1600  -38.1760   20.0830 N.3   409  LEU409     -0.1245
    215  CA         5.2870  -37.4200   19.1890 C.3   409  LEU409      0.1561
    216  C          5.5150  -37.8000   17.7310 C.2   409  LEU409      0.2260
    217  O          4.5740  -37.8630   16.9320 O.2   409  LEU409     -0.2867
    218  CB         5.4930  -35.9190   19.3770 C.3   409  LEU409      0.0270
    219  CG         4.5190  -35.0020   18.6380 C.3   409  LEU409      0.0019
    220  CD1        3.0900  -35.1750   19.1610 C.3   409  LEU409      0.0001
    221  CD2        4.9650  -33.5620   18.7600 C.3   409  LEU409      0.0001
    222  N         -0.7430  -41.6680   13.0370 N.3   416  MET416     -0.1245
    223  CA        -1.8560  -40.8570   12.5490 C.3   416  MET416      0.1570
    224  C         -1.8480  -40.8900   11.0270 C.2   416  MET416      0.2261
    225  O         -2.8920  -40.9630   10.3790 O.2   416  MET416     -0.2867
    226  CB        -1.7550  -39.4180   13.0660 C.3   416  MET416      0.0387
    227  CG        -2.1030  -39.2390   14.5630 C.3   416  MET416      0.0595
    228  SD        -1.7400  -37.5820   15.2390 S.3   416  MET416     -0.1393
    229  CE        -2.9570  -36.5760   14.3910 C.3   416  MET416      0.0692
@<TRIPOS>BOND
     1   185   183   ar
     2   183   184   ar
     3   183   182    1
     4   182   179    1
     5    48    49    1
     6   225   224    2
     7    52    49    1
     8    52    53    1
     9   179   178    1
    10   179   180    1
    11    49    50    1
    12   224   223    1
    13   178   176   am
    14   189   188    2
    15   174   175    1
    16   188   187    1
    17   180   186   am
    18   180   181    2
    19    54    53    1
    20    54    55    1
    21   194   195    1
    22   186   187    1
    23   176   177    2
    24   176   175    1
    25    50    51    2
    26   153   152   ar
    27   200   198    1
    28   187   190    1
    29   223   222    1
    30   223   226    1
    31   163   164    1
    32   166   165    2
    33    56    55    1
    34   170   171    2
    35   170   169    1
    36   164   165    1
    37   164   167    1
    38   226   227    1
    39   195   198    1
    40   195   196    1
    41   165   168   am
    42   198   199    1
    43   152   154   ar
    44   152   151    1
    45   190   191    1
    46   168   169    1
    47   169   172    1
    48   196   197    2
    49   150   149    2
    50   148   151    1
    51   148   147    1
    52   148   149    1
    53   191   192    1
    54   191   193    1
    55   229   228    1
    56   173   172    1
    57   227   228    1
    58   149   155   am
    59    57    58    1
    60    62    63    1
    61    62    64    1
    62    62    61    1
    63   158   157    2
    64   157   156    1
    65   155   156    1
    66    58    61    1
    67    58    59    1
    68    30    28   am
    69   156   159    1
    70   217   216    2
    71   201   202    1
    72    59    60    2
    73    28    27    1
    74    28    29    2
    75   216   215    1
    76    27    24    1
    77    24    23    1
    78    24    25    1
    79    47    46   ar
    80    47    45   ar
    81   159   160    1
    82   145   143    1
    83    69    70    1
    84    69    66    1
    85    65    66    1
    86   143   140    1
    87   143   144    1
    88   205   202    1
    89   202   203    1
    90    46    44   ar
    91    71    70   ar
    92    71    73   ar
    93   219   221    1
    94   219   220    1
    95   219   218    1
    96    70    72   ar
    97   140   141    1
    98   140   139    1
    99    45    43   ar
   100   141   142    2
   101    66    67    1
   102    73    75   ar
   103    25    26    2
   104   134   133    2
   105   160   161    1
   106   160   162    1
   107   203   204    2
   108   215   218    1
   109   215   214    1
   110   146   144    1
   111    72    74   ar
   112    75    74   ar
   113    37    35    1
   114    44    43   ar
   115    43    42    1
   116   139   133   am
   117   133   132    1
   118    35    36    1
   119    35    32    1
   120    31    32    1
   121    67    68    2
   122    32    33    1
   123    38    33   am
   124    38    39    1
   125    42    39    1
   126   132   131    1
   127   132   135    1
   128   136   135    1
   129   136   138    1
   130    33    34    2
   131    83    85   ar
   132    83    81   ar
   133    80    81    1
   134    80    77    1
   135    39    40    1
   136    85    86   ar
   137   135   137    1
   138    81    82   ar
   139   209   208    2
   140    40    41    2
   141    21    19   ar
   142    21    22   ar
   143    86    84   ar
   144    19    16   ar
   145    82    84   ar
   146    22    20   ar
   147    76    77    1
   148    93    92    1
   149    16    18   ar
   150    16    14   ar
   151    92    94    1
   152    92    91    1
   153    20    18   ar
   154    77    78    1
   155    13    14    1
   156    13    10    1
   157    18    17   ar
   158    14    15   ar
   159    11    12    2
   160    11    10    1
   161   208   207    1
   162    17    15   ar
   163    10     9    1
   164    87    78   am
   165    87    88    1
   166     8     6    1
   167    78    79    2
   168    91    88    1
   169   207   210    1
   170   207   206    1
   171   122   121    2
   172    88    89    1
   173     5     6    1
   174     5     2    1
   175   210   211    1
   176   213   211    1
   177     6     7    1
   178     1     2    1
   179   126   125    2
   180   121   120    1
   181   121   123   am
   182   101   100    1
   183   211   212    1
   184   120   119    1
   185     2     3    1
   186   124   123    1
   187   124   125    1
   188   124   127    1
   189    89    90    2
   190   102   100    1
   191   128   127    1
   192   128   129    1
   193   100    99    1
   194   130   129    1
   195     4     3    2
   196    99    96    1
   197    95    96    1
   198   106   105    2
   199   114   113    2
   200   117   115    1
   201   116   118    1
   202   116   115    1
   203    96    97    1
   204   112   115    1
   205   112   113    1
   206   112   111    1
   207   105   111   am
   208   105   104    1
   209   107   108    1
   210   107   104    1
   211   108   110   ar
   212   108   109   ar
   213   104   103    1
   214    97    98    2
