@<TRIPOS>MOLECULE
tmp/4opdA02.pdb
 225 212 0 0 0
SMALL
GASTEIGER

@<TRIPOS>ATOM
      1  N        -19.7730  -24.9510   16.5250 N.3    52  SER52      -0.1217
      2  CA       -19.1390  -24.0480   15.5820 C.3    52  SER52       0.1889
      3  C        -20.1130  -23.5710   14.5000 C.2    52  SER52       0.2288
      4  O        -20.9730  -24.3230   14.0450 O.2    52  SER52      -0.2866
      5  CB       -17.9270  -24.7430   14.9470 C.3    52  SER52       0.2089
      6  OG       -17.7260  -24.3200   13.6170 O.3    52  SER52      -0.2183
      7  N        -19.4220  -22.8400   11.4470 N.3    54  ALA54      -0.1231
      8  CA       -19.0810  -23.4820   10.1800 C.3    54  ALA54       0.1694
      9  C        -20.0180  -24.6390    9.8440 C.2    54  ALA54       0.2592
     10  O        -20.3790  -24.8360    8.6860 O.2    54  ALA54      -0.2718
     11  CB       -17.6320  -23.9710   10.2120 C.3    54  ALA54       0.0304
     12  N        -20.4150  -25.3990   10.8570 N.am   55  HIS55      -0.1976
     13  CA       -21.2710  -26.5590   10.6280 C.3    55  HIS55       0.1656
     14  C        -22.6330  -26.1540   10.0740 C.2    55  HIS55       0.2291
     15  O        -23.1690  -26.8040    9.1800 O.2    55  HIS55      -0.2864
     16  CB       -21.4390  -27.3520   11.9180 C.3    55  HIS55       0.0771
     17  CG       -20.2420  -28.1740   12.2720 C.ar   55  HIS55       0.0820
     18  ND1      -19.8060  -29.2230   11.4910 N.ar   55  HIS55      -0.2267
     19  CD2      -19.3830  -28.0990   13.3160 C.ar   55  HIS55       0.1154
     20  CE1      -18.7410  -29.7710   12.0490 C.ar   55  HIS55       0.1986
     21  NE2      -18.4620  -29.1060   13.1570 N.ar   55  HIS55      -0.2212
     22  N        -11.7810  -19.6170   21.6920 N.3    76  ILE76      -0.1245
     23  CA       -11.5970  -20.5490   22.7910 C.3    76  ILE76       0.1561
     24  C        -10.2470  -20.3020   23.4490 C.2    76  ILE76       0.2260
     25  O         -9.2440  -20.1230   22.7600 O.2    76  ILE76      -0.2867
     26  CB       -11.6640  -22.0200   22.3050 C.3    76  ILE76       0.0252
     27  CG1      -13.0500  -22.3470   21.7420 C.3    76  ILE76       0.0019
     28  CG2      -11.3160  -22.9810   23.4290 C.3    76  ILE76       0.0019
     29  CD1      -13.1680  -23.7570   21.2430 C.3    76  ILE76       0.0001
     30  N         -7.4560  -22.0080   25.7760 N.3    78  LEU78      -0.1245
     31  CA        -7.0300  -23.3090   26.2560 C.3    78  LEU78       0.1561
     32  C         -5.9750  -23.1330   27.3400 C.2    78  LEU78       0.2260
     33  O         -4.9290  -22.5350   27.0980 O.2    78  LEU78      -0.2867
     34  CB        -6.4890  -24.1570   25.0980 C.3    78  LEU78       0.0270
     35  CG        -5.9450  -25.5230   25.4980 C.3    78  LEU78       0.0019
     36  CD1       -7.0960  -26.4080   25.9450 C.3    78  LEU78       0.0001
     37  CD2       -5.1710  -26.1640   24.3470 C.3    78  LEU78       0.0001
     38  N         -7.5720  -19.6930   20.3590 N.3    89  VAL89      -0.1245
     39  CA        -7.9230  -20.0110   18.9800 C.3    89  VAL89       0.1561
     40  C         -9.1990  -19.2610   18.6370 C.2    89  VAL89       0.2260
     41  O        -10.2140  -19.4060   19.3060 O.2    89  VAL89      -0.2867
     42  CB        -8.0990  -21.5410   18.7380 C.3    89  VAL89       0.0252
     43  CG1       -6.7590  -22.2550   18.8340 C.3    89  VAL89       0.0019
     44  CG2       -9.0840  -22.1470   19.7190 C.3    89  VAL89       0.0019
     45  N        -11.3220  -23.7840   28.1830 N.3   204  ILE204     -0.1245
     46  CA       -11.0730  -25.2110   28.3330 C.3   204  ILE204      0.1561
     47  C         -9.8120  -25.3880   29.1710 C.2   204  ILE204      0.2260
     48  O         -8.7840  -24.7490   28.9100 O.2   204  ILE204     -0.2867
     49  CB       -10.9190  -25.9000   26.9650 C.3   204  ILE204      0.0252
     50  CG1      -12.2710  -25.9190   26.2380 C.3   204  ILE204      0.0019
     51  CG2      -10.3680  -27.3340   27.1180 C.3   204  ILE204      0.0019
     52  CD1      -12.1690  -26.4840   24.8500 C.3   204  ILE204      0.0001
     53  N         -7.0710  -27.9960   30.6770 N.3   206  ILE206     -0.1245
     54  CA        -6.4660  -29.3220   30.7040 C.3   206  ILE206      0.1561
     55  C         -5.9190  -29.5870   32.0880 C.2   206  ILE206      0.2260
     56  O         -5.2610  -28.7280   32.6610 O.2   206  ILE206     -0.2867
     57  CB        -5.3060  -29.4670   29.6970 C.3   206  ILE206      0.0252
     58  CG1       -5.6740  -28.8630   28.3510 C.3   206  ILE206      0.0019
     59  CG2       -4.9240  -30.9280   29.5490 C.3   206  ILE206      0.0019
     60  CD1       -6.9600  -29.3950   27.8100 C.3   206  ILE206      0.0001
     61  N         -4.8490  -33.3810   34.2940 N.3   208  GLN208     -0.1245
     62  CA        -4.9710  -34.8250   34.4190 C.3   208  GLN208      0.1566
     63  C         -5.3340  -35.2530   35.8370 C.2   208  GLN208      0.2260
     64  O         -5.6930  -36.4080   36.0780 O.2   208  GLN208     -0.2867
     65  CB        -3.6670  -35.4870   33.9650 C.3   208  GLN208      0.0367
     66  CG        -3.2560  -35.1060   32.5480 C.3   208  GLN208      0.0905
     67  CD        -4.1070  -35.7880   31.4710 C.2   208  GLN208      0.2608
     68  OE1       -5.3300  -35.9480   31.6150 O.2   208  GLN208     -0.2717
     69  NE2       -3.4510  -36.2030   30.3860 N.am  208  GLN208     -0.0878
     70  N         -8.0760  -37.6740   31.7040 N.3   213  GLY213     -0.1210
     71  CA        -8.4840  -38.2170   30.4200 C.3   213  GLY213      0.1956
     72  C         -9.4620  -37.3260   29.6860 C.2   213  GLY213      0.2612
     73  O         -9.9170  -37.6610   28.6000 O.2   213  GLY213     -0.2717
     74  N         -9.7860  -36.1800   30.2740 N.am  214  GLY214     -0.1942
     75  CA       -10.6900  -35.2480   29.6270 C.3   214  GLY214      0.2014
     76  C        -10.2830  -33.8170   29.8800 C.2   214  GLY214      0.2638
     77  O         -9.1100  -33.4550   29.7210 O.2   214  GLY214     -0.2714
     78  N        -11.2540  -32.9940   30.2580 N.am  215  TYR215     -0.1973
     79  CA       -10.9460  -31.6320   30.6500 C.3   215  TYR215      0.1639
     80  C        -12.0860  -30.9730   31.3860 C.2   215  TYR215      0.2290
     81  O        -13.2040  -31.4640   31.3550 O.2   215  TYR215     -0.2864
     82  CB       -10.5660  -30.7910   29.4360 C.3   215  TYR215      0.0560
     83  CG       -11.5810  -30.6590   28.3110 C.ar  215  TYR215     -0.0198
     84  CD1      -12.6610  -29.7860   28.4140 C.ar  215  TYR215     -0.0009
     85  CD2      -11.4040  -31.3370   27.1100 C.ar  215  TYR215     -0.0009
     86  CE1      -13.5520  -29.6170   27.3730 C.ar  215  TYR215      0.0417
     87  CE2      -12.2960  -31.1760   26.0550 C.ar  215  TYR215      0.0417
     88  CZ       -13.3670  -30.3160   26.1940 C.ar  215  TYR215      0.1957
     89  OH       -14.2570  -30.1350   25.1570 O.3   215  TYR215     -0.2866
     90  N        -15.9920  -35.9560   18.0050 N.3   294  ASN294     -0.1226
     91  CA       -14.5660  -35.6230   17.8890 C.3   294  ASN294      0.1770
     92  C        -13.7700  -36.2100   19.0610 C.2   294  ASN294      0.2439
     93  O        -13.9790  -35.8150   20.2080 O.2   294  ASN294     -0.2733
     94  CB       -14.4180  -34.0990   17.8410 C.3   294  ASN294      0.1168
     95  CG       -12.9950  -33.6550   17.5760 C.2   294  ASN294      0.2627
     96  OD1      -12.0830  -33.9820   18.3260 O.2   294  ASN294     -0.2716
     97  ND2      -12.8010  -32.9210   16.4910 N.am  294  ASN294     -0.0877
     98  N        -12.8530  -37.1530   18.7880 N.am  295  PRO295     -0.2718
     99  CA       -12.1870  -37.8160   19.9190 C.3   295  PRO295      0.1535
    100  C        -11.3200  -36.8990   20.7920 C.2   295  PRO295      0.2598
    101  O        -11.0030  -37.2690   21.9250 O.2   295  PRO295     -0.2715
    102  CB       -11.3150  -38.8690   19.2270 C.3   295  PRO295      0.0310
    103  CG       -12.0400  -39.1450   17.9290 C.3   295  PRO295      0.0237
    104  CD       -12.4990  -37.7810   17.5010 C.3   295  PRO295      0.0939
    105  N        -10.9330  -35.7320   20.2900 N.am  296  VAL296     -0.1964
    106  CA       -10.0050  -34.9040   21.0460 C.3   296  VAL296      0.1727
    107  C        -10.7240  -33.8440   21.8650 C.2   296  VAL296      0.2616
    108  O        -10.4510  -33.7150   23.0600 O.2   296  VAL296     -0.2715
    109  CB        -8.9570  -34.2410   20.1360 C.3   296  VAL296      0.0290
    110  CG1       -8.2670  -33.0790   20.8470 C.3   296  VAL296      0.0023
    111  CG2       -7.9220  -35.2700   19.7240 C.3   296  VAL296      0.0023
    112  N        -11.6510  -33.1040   21.2570 N.am  297  HIS297     -0.1973
    113  CA       -12.3610  -32.1040   22.0510 C.3   297  HIS297      0.1656
    114  C        -13.7810  -32.5210   22.4740 C.2   297  HIS297      0.2291
    115  O        -14.4280  -31.8050   23.2380 O.2   297  HIS297     -0.2864
    116  CB       -12.3860  -30.7340   21.3400 C.3   297  HIS297      0.0771
    117  CG       -13.0790  -30.6950   20.0110 C.ar  297  HIS297      0.0820
    118  ND1      -14.3690  -31.1410   19.8140 N.ar  297  HIS297     -0.2267
    119  CD2      -12.6860  -30.1560   18.8310 C.ar  297  HIS297      0.1154
    120  CE1      -14.7220  -30.9220   18.5600 C.ar  297  HIS297      0.1986
    121  NE2      -13.7260  -30.3050   17.9470 N.ar  297  HIS297     -0.2212
    122  N        -16.5620  -32.7850   20.9580 N.3   299  GLY299     -0.1225
    123  CA       -17.6990  -32.0990   20.3690 C.3   299  GLY299      0.1811
    124  C        -18.4180  -32.9910   19.3890 C.2   299  GLY299      0.2280
    125  O        -17.8030  -33.5320   18.4820 O.2   299  GLY299     -0.2866
    126  N        -22.0770  -30.7650   16.1680 N.3   302  GLY302     -0.1210
    127  CA       -21.7330  -30.4940   14.7810 C.3   302  GLY302      0.1956
    128  C        -21.6130  -31.7430   13.9070 C.2   302  GLY302      0.2612
    129  O        -22.2170  -31.8240   12.8380 O.2   302  GLY302     -0.2717
    130  N        -20.8430  -32.7270   14.3560 N.am  303  SER303     -0.1952
    131  CA       -20.6820  -33.9590   13.5850 C.3   303  SER303      0.1924
    132  C        -21.9710  -34.7760   13.5140 C.2   303  SER303      0.2314
    133  O        -22.2100  -35.4710   12.5270 O.2   303  SER303     -0.2863
    134  CB       -19.5500  -34.7990   14.1760 C.3   303  SER303      0.2116
    135  OG       -19.6360  -34.8540   15.5940 O.3   303  SER303     -0.2180
    136  N        -15.9650  -35.9330    7.9420 N.3   340  TYR340     -0.1241
    137  CA       -15.5660  -35.8710    9.3520 C.3   340  TYR340      0.1605
    138  C        -14.9350  -37.1520    9.8880 C.2   340  TYR340      0.2264
    139  O        -14.1400  -37.0920   10.8170 O.2   340  TYR340     -0.2867
    140  CB       -16.7760  -35.5200   10.2280 C.3   340  TYR340      0.0534
    141  CG       -16.4220  -34.7800   11.5060 C.ar  340  TYR340     -0.0201
    142  CD1      -16.2200  -33.4040   11.4910 C.ar  340  TYR340     -0.0009
    143  CD2      -16.2900  -35.4500   12.7210 C.ar  340  TYR340     -0.0009
    144  CE1      -15.8950  -32.7050   12.6440 C.ar  340  TYR340      0.0417
    145  CE2      -15.9480  -34.7530   13.8920 C.ar  340  TYR340      0.0417
    146  CZ       -15.7620  -33.3770   13.8380 C.ar  340  TYR340      0.1957
    147  OH       -15.4320  -32.6520   14.9640 O.3   340  TYR340     -0.2866
    148  N        -11.0480  -37.5800    9.7210 N.3   343  LYS343     -0.1245
    149  CA       -10.5230  -36.6510   10.7200 C.3   343  LYS343      0.1561
    150  C        -10.6190  -37.2460   12.1140 C.2   343  LYS343      0.2260
    151  O         -9.6690  -37.1830   12.8850 O.2   343  LYS343     -0.2867
    152  CB       -11.2760  -35.3230   10.6490 C.3   343  LYS343      0.0271
    153  CG       -11.1580  -34.4470   11.9020 C.3   343  LYS343      0.0035
    154  CD       -11.8980  -33.1260   11.7140 C.3   343  LYS343      0.0206
    155  CE       -11.9850  -32.3630   13.0310 C.3   343  LYS343      0.1093
    156  NZ       -12.5160  -30.9770   12.8470 N.3   343  LYS343     -0.1314
    157  N         -4.5000  -39.5110   18.2590 N.3   350  PHE350     -0.1227
    158  CA        -3.9170  -38.3820   18.9710 C.3   350  PHE350      0.1736
    159  C         -4.4710  -38.3200   20.3930 C.2   350  PHE350      0.2595
    160  O         -3.7220  -38.0800   21.3230 O.2   350  PHE350     -0.2718
    161  CB        -4.1680  -37.0680   18.2140 C.3   350  PHE350      0.0547
    162  CG        -3.3450  -35.9120   18.7100 C.ar  350  PHE350     -0.0202
    163  CD1       -1.9630  -35.9220   18.5710 C.ar  350  PHE350     -0.0042
    164  CD2       -3.9450  -34.8210   19.3000 C.ar  350  PHE350     -0.0042
    165  CE1       -1.2010  -34.8660   19.0280 C.ar  350  PHE350     -0.0003
    166  CE2       -3.1870  -33.7590   19.7570 C.ar  350  PHE350     -0.0003
    167  CZ        -1.8130  -33.7850   19.6150 C.ar  350  PHE350     -0.0000
    168  N         -5.7790  -38.5560   20.5500 N.am  351  ARG351     -0.1980
    169  CA        -6.4070  -38.6110   21.8670 C.3   351  ARG351      0.1597
    170  C         -5.6650  -39.5240   22.8340 C.2   351  ARG351      0.2287
    171  O         -5.4590  -39.1810   23.9900 O.2   351  ARG351     -0.2864
    172  CB        -7.8680  -39.1070   21.7490 C.3   351  ARG351      0.0334
    173  CG        -8.3490  -39.7900   23.0280 C.3   351  ARG351      0.0492
    174  CD        -9.7510  -40.3320   22.9260 C.3   351  ARG351      0.2205
    175  NE        -9.8400  -41.5970   22.1960 N.pl3 351  ARG351     -0.0865
    176  CZ        -9.8280  -42.7920   22.7780 C.cat 351  ARG351      0.5346
    177  NH1       -9.6940  -42.8820   24.0850 N.pl3 351  ARG351      0.1354
    178  NH2       -9.9480  -43.8930   22.0520 N.pl3 351  ARG351      0.1354
    179  N         -2.5470  -37.8980   24.1370 N.3   354  LEU354     -0.1231
    180  CA        -2.8420  -36.8250   25.0830 C.3   354  LEU354      0.1693
    181  C         -3.2310  -37.3860   26.4430 C.2   354  LEU354      0.2591
    182  O         -2.7590  -36.9110   27.4610 O.2   354  LEU354     -0.2718
    183  CB        -3.9650  -35.9150   24.5620 C.3   354  LEU354      0.0284
    184  CG        -3.7310  -35.1530   23.2510 C.3   354  LEU354      0.0019
    185  CD1       -4.9490  -34.2780   22.9400 C.3   354  LEU354      0.0001
    186  CD2       -2.4560  -34.3120   23.3260 C.3   354  LEU354      0.0001
    187  N         -4.0640  -38.4220   26.4530 N.am  355  GLN355     -0.1979
    188  CA        -4.5270  -39.0050   27.7110 C.3   355  GLN355      0.1601
    189  C         -3.4110  -39.6870   28.5110 C.2   355  GLN355      0.2287
    190  O         -3.5900  -39.9890   29.6870 O.2   355  GLN355     -0.2864
    191  CB        -5.6700  -39.9980   27.4470 C.3   355  GLN355      0.0394
    192  CG        -6.9670  -39.3120   26.9700 C.3   355  GLN355      0.0908
    193  CD        -8.0400  -40.3000   26.5350 C.2   355  GLN355      0.2608
    194  OE1       -7.7340  -41.3220   25.9310 O.2   355  GLN355     -0.2717
    195  NE2       -9.3040  -39.9890   26.8230 N.am  355  GLN355     -0.0878
    196  N          2.3270  -31.5330   29.9450 N.3   362  ILE362     -0.1245
    197  CA         1.4990  -30.5470   29.2700 C.3   362  ILE362      0.1561
    198  C          1.9050  -29.1070   29.6520 C.2   362  ILE362      0.2260
    199  O          1.9950  -28.2370   28.7800 O.2   362  ILE362     -0.2867
    200  CB         0.0150  -30.8050   29.5650 C.3   362  ILE362      0.0252
    201  CG1       -0.3900  -32.1750   28.9960 C.3   362  ILE362      0.0019
    202  CG2       -0.8340  -29.6850   28.9790 C.3   362  ILE362      0.0019
    203  CD1       -1.7340  -32.7080   29.5430 C.3   362  ILE362      0.0001
    204  N         -2.3550  -25.1870   16.1110 N.3   376  LEU376     -0.1231
    205  CA        -3.4420  -25.8890   16.7610 C.3   376  LEU376      0.1693
    206  C         -4.6770  -25.8590   15.8700 C.2   376  LEU376      0.2591
    207  O         -5.3200  -26.8800   15.6520 O.2   376  LEU376     -0.2718
    208  CB        -3.7420  -25.2540   18.1160 C.3   376  LEU376      0.0284
    209  CG        -4.4890  -26.1050   19.1290 C.3   376  LEU376      0.0019
    210  CD1       -3.7110  -27.3820   19.3690 C.3   376  LEU376      0.0001
    211  CD2       -4.6750  -25.3150   20.4200 C.3   376  LEU376      0.0001
    212  N         -4.9810  -24.6800   15.3390 N.am  377  LEU377     -0.1980
    213  CA        -6.1520  -24.4930   14.4920 C.3   377  LEU377      0.1596
    214  C         -6.0230  -25.2610   13.1780 C.2   377  LEU377      0.2287
    215  O         -6.9630  -25.9320   12.7550 O.2   377  LEU377     -0.2864
    216  CB        -6.3780  -23.0020   14.2170 C.3   377  LEU377      0.0297
    217  CG        -7.7860  -22.5830   13.7790 C.3   377  LEU377      0.0022
    218  CD1       -8.1190  -21.1990   14.3130 C.3   377  LEU377      0.0001
    219  CD2       -7.9200  -22.6050   12.2600 C.3   377  LEU377      0.0001
    220  N         -6.5190  -28.9090   13.7760 N.3   380  SER380     -0.1217
    221  CA        -7.8920  -29.2550   14.1300 C.3   380  SER380      0.1889
    222  C         -8.7750  -29.3400   12.8940 C.2   380  SER380      0.2288
    223  O         -9.8600  -29.9150   12.9390 O.2   380  SER380     -0.2866
    224  CB        -8.4670  -28.2290   15.1060 C.3   380  SER380      0.2089
    225  OG        -8.5800  -26.9580   14.4820 O.3   380  SER380     -0.2183
@<TRIPOS>BOND
     1   136   137    1
     2    10     9    2
     3    15    14    2
     4   137   138    1
     5   137   140    1
     6   148   149    1
     7     9     8    1
     8     9    12   am
     9   138   139    2
    10    14    13    1
    11     8    11    1
    12     8     7    1
    13   140   141    1
    14    13    12    1
    15    13    16    1
    16   152   149    1
    17   152   153    1
    18   149   150    1
    19   142   141   ar
    20   142   144   ar
    21    18    20   ar
    22    18    17   ar
    23   141   143   ar
    24   154   153    1
    25   154   155    1
    26    16    17    1
    27    20    21   ar
    28   150   151    2
    29   219   217    1
    30    17    19   ar
    31   133   132    2
    32   144   146   ar
    33   143   145   ar
    34   215   214    2
    35   129   128    2
    36   156   155    1
    37   222   223    2
    38   222   221    1
    39    21    19   ar
    40   214   213    1
    41   132   131    1
    42   131   134    1
    43   131   130    1
    44     6     5    1
    45   220   221    1
    46   217   216    1
    47   217   218    1
    48   146   145   ar
    49   146   147    1
    50   128   130   am
    51   128   127    1
    52     4     3    2
    53   221   224    1
    54   134   135    1
    55   216   213    1
    56   225   224    1
    57   213   212    1
    58     3     2    1
    59   127   126    1
    60     5     2    1
    61   212   206   am
    62     2     1    1
    63   207   206    2
    64   206   205    1
    65   204   205    1
    66    97    95   am
    67   205   208    1
    68   104   103    1
    69   104    98    1
    70    95    94    1
    71    95    96    2
    72    94    91    1
    73    91    90    1
    74    91    92    1
    75   103   102    1
    76   121   120   ar
    77   121   119   ar
    78   208   209    1
    79   161   162    1
    80   161   158    1
    81   157   158    1
    82   125   124    2
    83   120   118   ar
    84   163   162   ar
    85   163   165   ar
    86    40    39    1
    87    40    41    2
    88   162   164   ar
    89    42    43    1
    90    42    39    1
    91    42    44    1
    92    98    92   am
    93    98    99    1
    94   119   117   ar
    95   158   159    1
    96    39    38    1
    97   165   167   ar
    98    92    93    2
    99   209   210    1
   100   209   211    1
   101   102    99    1
   102   164   166   ar
   103   124   123    1
   104   167   166   ar
   105   111   109    1
   106   118   117   ar
   107    99   100    1
   108   117   116    1
   109   109   110    1
   110   109   106    1
   111   105   100   am
   112   105   106    1
   113   123   122    1
   114   159   168   am
   115   159   160    2
   116   168   169    1
   117   100   101    2
   118   106   107    1
   119    29    27    1
   120   112   107   am
   121   112   113    1
   122   116   113    1
   123    22    23    1
   124    27    26    1
   125   172   169    1
   126   172   173    1
   127   107   108    2
   128   169   170    1
   129   113   114    1
   130   178   176    1
   131   175   176    2
   132   175   174    1
   133    26    23    1
   134    26    28    1
   135   114   115    2
   136    25    24    2
   137   176   177    1
   138    23    24    1
   139   170   171    2
   140   174   173    1
   141   185   184    1
   142   184   186    1
   143   184   183    1
   144   179   180    1
   145    37    35    1
   146   183   180    1
   147    52    50    1
   148   180   181    1
   149    34    35    1
   150    34    31    1
   151    89    88    1
   152    35    36    1
   153    30    31    1
   154   194   193    2
   155    87    88   ar
   156    87    85   ar
   157    88    86   ar
   158    50    49    1
   159    31    32    1
   160   181   187   am
   161   181   182    2
   162   187   188    1
   163   193   195   am
   164   193   192    1
   165    49    51    1
   166    49    46    1
   167   192   191    1
   168    33    32    2
   169    85    83   ar
   170    86    84   ar
   171   191   188    1
   172   188   189    1
   173    60    58    1
   174    45    46    1
   175    83    84   ar
   176    83    82    1
   177    46    47    1
   178    58    57    1
   179   189   190    2
   180    73    72    2
   181   199   198    2
   182    48    47    2
   183   202   200    1
   184   201   203    1
   185   201   200    1
   186   197   200    1
   187   197   198    1
   188   197   196    1
   189    82    79    1
   190    59    57    1
   191    75    76    1
   192    75    74    1
   193    72    74   am
   194    72    71    1
   195    57    54    1
   196    77    76    2
   197    76    78   am
   198    78    79    1
   199    69    67   am
   200    71    70    1
   201    79    80    1
   202    53    54    1
   203    54    55    1
   204    81    80    2
   205    67    68    2
   206    67    66    1
   207    55    56    2
   208    66    65    1
   209    65    62    1
   210    61    62    1
   211    62    63    1
   212    63    64    2
