@<TRIPOS>MOLECULE
tmp/4opmA02.pdb
 88 83 0 0 0
SMALL
GASTEIGER

@<TRIPOS>ATOM
      1  N         37.1790   16.8290    1.7660 N.3   159  ASP159     -0.1239
      2  CA        38.4410   17.5570    1.7870 C.3   159  ASP159      0.1674
      3  C         39.0580   17.4360    3.1860 C.2   159  ASP159      0.2266
      4  O         38.7530   18.2590    4.0600 O.2   159  ASP159     -0.2867
      5  CB        38.2790   19.0280    1.3430 C.3   159  ASP159      0.1410
      6  CG        39.5870   19.8070    1.2710 C.2   159  ASP159      0.3668
      7  OD1       40.6530   19.2220    1.5810 O.co2 159  ASP159     -0.2456
      8  OD2       39.5430   21.0060    0.9330 O.co2 159  ASP159     -0.2456
      9  N         41.5890   18.5020    4.4660 N.3   161  THR161     -0.1203
     10  CA        42.2920   19.6760    4.9960 C.3   161  THR161      0.1994
     11  C         41.4180   20.2830    6.1240 C.2   161  THR161      0.2617
     12  O         41.9380   20.9180    7.0410 O.2   161  THR161     -0.2717
     13  CB        42.6260   20.6810    3.8830 C.3   161  THR161      0.1784
     14  OG1       43.1760   19.9830    2.7580 O.3   161  THR161     -0.2211
     15  CG2       43.6080   21.7530    4.3410 C.3   161  THR161      0.0376
     16  N         40.0830   20.0400    6.0650 N.am  162  TYR162     -0.1975
     17  CA        39.1420   20.5210    7.0770 C.3   162  TYR162      0.1639
     18  C         39.3500   19.8190    8.4360 C.2   162  TYR162      0.2290
     19  O         38.9050   20.3520    9.4560 O.2   162  TYR162     -0.2864
     20  CB        37.7010   20.3870    6.6020 C.3   162  TYR162      0.0560
     21  CG        37.2900   21.5210    5.6960 C.ar  162  TYR162     -0.0198
     22  CD1       37.4890   21.4470    4.3210 C.ar  162  TYR162     -0.0009
     23  CD2       36.7180   22.6800    6.2140 C.ar  162  TYR162     -0.0009
     24  CE1       37.1150   22.4930    3.4800 C.ar  162  TYR162      0.0417
     25  CE2       36.3440   23.7350    5.3820 C.ar  162  TYR162      0.0417
     26  CZ        36.5350   23.6320    4.0150 C.ar  162  TYR162      0.1957
     27  OH        36.1530   24.6680    3.1980 O.3   162  TYR162     -0.2866
     28  N         41.9980   19.9310    9.9630 N.3   164  LYS164     -0.1231
     29  CA        42.8120   20.9030   10.7040 C.3   164  LYS164      0.1693
     30  C         41.9520   21.7680   11.6460 C.2   164  LYS164      0.2591
     31  O         42.4660   22.2350   12.6620 O.2   164  LYS164     -0.2718
     32  CB        43.6110   21.8000    9.7490 C.3   164  LYS164      0.0285
     33  CG        44.7270   21.0440    9.0490 C.3   164  LYS164      0.0035
     34  CD        45.4060   21.9190    8.0060 C.3   164  LYS164      0.0206
     35  CE        46.4910   21.1780    7.2720 C.3   164  LYS164      0.1093
     36  NZ        47.7270   21.0670    8.0920 N.3   164  LYS164     -0.1314
     37  N         40.6470   21.9710   11.3140 N.am  165  GLN165     -0.1979
     38  CA        39.7120   22.7570   12.1450 C.3   165  GLN165      0.1601
     39  C         39.3640   22.0310   13.4460 C.2   165  GLN165      0.2287
     40  O         38.8410   22.6500   14.3790 O.2   165  GLN165     -0.2864
     41  CB        38.4170   23.0590   11.3720 C.3   165  GLN165      0.0394
     42  CG        38.6330   23.8830   10.0900 C.3   165  GLN165      0.0908
     43  CD        37.3520   24.3300    9.4350 C.2   165  GLN165      0.2608
     44  OE1       36.2610   23.8070    9.6840 O.2   165  GLN165     -0.2717
     45  NE2       37.4700   25.2890    8.5370 N.am  165  GLN165     -0.0878
     46  N         41.6860   20.3020   15.2300 N.3   167  LEU167     -0.1245
     47  CA        42.9120   20.2720   16.0360 C.3   167  LEU167      0.1561
     48  C         42.7450   21.0810   17.3140 C.2   167  LEU167      0.2260
     49  O         42.2220   22.1980   17.2620 O.2   167  LEU167     -0.2867
     50  CB        44.0760   20.8520   15.2230 C.3   167  LEU167      0.0270
     51  CG        44.9950   19.8880   14.4950 C.3   167  LEU167      0.0019
     52  CD1       44.2410   18.9060   13.6050 C.3   167  LEU167      0.0001
     53  CD2       46.0060   20.6480   13.6870 C.3   167  LEU167      0.0001
     54  N         44.7090   23.1390   19.7260 N.3   169  SER169     -0.1202
     55  CA        45.9990   23.8250   19.8390 C.3   169  SER169      0.2020
     56  C         45.9740   24.9770   20.8440 C.2   169  SER169      0.2618
     57  O         47.0390   25.4580   21.2560 O.2   169  SER169     -0.2717
     58  CB        46.4100   24.3750   18.4730 C.3   169  SER169      0.2103
     59  OG        46.1850   23.4450   17.4260 O.3   169  SER169     -0.2182
     60  N         44.7770   25.4680   21.1930 N.am  170  LYS170     -0.1979
     61  CA        44.6520   26.6010   22.1140 C.3   170  LYS170      0.1596
     62  C         43.4070   26.4360   22.9870 C.2   170  LYS170      0.2287
     63  O         42.5230   25.6560   22.6310 O.2   170  LYS170     -0.2864
     64  CB        44.6160   27.9380   21.3300 C.3   170  LYS170      0.0298
     65  CG        43.4000   28.1110   20.4210 C.3   170  LYS170      0.0038
     66  CD        43.4900   29.3630   19.5600 C.3   170  LYS170      0.0206
     67  CE        42.1870   29.6600   18.8490 C.3   170  LYS170      0.1093
     68  NZ        41.8610   28.6450   17.8080 N.3   170  LYS170     -0.1314
     69  N         39.4940   25.2840   22.1730 N.3   173  ASP173     -0.1239
     70  CA        39.4090   24.3610   21.0330 C.3   173  ASP173      0.1674
     71  C         38.7460   23.0250   21.3900 C.2   173  ASP173      0.2266
     72  O         38.0800   22.4490   20.5320 O.2   173  ASP173     -0.2867
     73  CB        40.7800   24.0790   20.4240 C.3   173  ASP173      0.1410
     74  CG        41.3850   25.2060   19.5990 C.2   173  ASP173      0.3668
     75  OD1       40.7080   26.2560   19.4200 O.co2 173  ASP173     -0.2456
     76  OD2       42.5300   25.0430   19.1360 O.co2 173  ASP173     -0.2456
     77  N         35.0140   23.2120   21.0810 N.3   176  TYR176     -0.1241
     78  CA        34.6430   23.2150   19.6620 C.3   176  TYR176      0.1605
     79  C         34.6460   21.7770   19.1130 C.2   176  TYR176      0.2264
     80  O         33.6920   21.3570   18.4440 O.2   176  TYR176     -0.2867
     81  CB        35.5940   24.1120   18.8340 C.3   176  TYR176      0.0534
     82  CG        35.2280   24.1130   17.3650 C.ar  176  TYR176     -0.0201
     83  CD1       34.1640   24.8780   16.8920 C.ar  176  TYR176     -0.0009
     84  CD2       35.8800   23.2730   16.4630 C.ar  176  TYR176     -0.0009
     85  CE1       33.7820   24.8360   15.5520 C.ar  176  TYR176      0.0417
     86  CE2       35.5110   23.2300   15.1160 C.ar  176  TYR176      0.0417
     87  CZ        34.4560   24.0080   14.6690 C.ar  176  TYR176      0.1957
     88  OH        34.0730   23.9690   13.3530 O.3   176  TYR176     -0.2866
@<TRIPOS>BOND
     1     8     6   ar
     2     6     5    1
     3     6     7   ar
     4     5     2    1
     5     1     2    1
     6     2     3    1
     7    14    13    1
     8     3     4    2
     9    27    26    1
    10    24    26   ar
    11    24    22   ar
    12    13    15    1
    13    13    10    1
    14    26    25   ar
    15    22    21   ar
    16     9    10    1
    17    10    11    1
    18    25    23   ar
    19    21    23   ar
    20    21    20    1
    21    16    11   am
    22    16    17    1
    23    11    12    2
    24    20    17    1
    25    17    18    1
    26    35    34    1
    27    35    36    1
    28    34    33    1
    29    18    19    2
    30    45    43   am
    31    33    32    1
    32    43    44    2
    33    43    42    1
    34    32    29    1
    35    28    29    1
    36    42    41    1
    37    29    30    1
    38    37    30   am
    39    37    38    1
    40    41    38    1
    41    30    31    2
    42    38    39    1
    43    88    87    1
    44    39    40    2
    45    52    51    1
    46    53    51    1
    47    51    50    1
    48    87    86   ar
    49    87    85   ar
    50    86    84   ar
    51    50    47    1
    52    46    47    1
    53    85    83   ar
    54    47    48    1
    55    84    82   ar
    56    83    82   ar
    57    49    48    2
    58    82    81    1
    59    59    58    1
    60    68    67    1
    61    80    79    2
    62    58    55    1
    63    81    78    1
    64    67    66    1
    65    79    78    1
    66    76    74   ar
    67    75    74   ar
    68    66    65    1
    69    74    73    1
    70    78    77    1
    71    54    55    1
    72    55    56    1
    73    65    64    1
    74    73    70    1
    75    72    71    2
    76    56    60   am
    77    56    57    2
    78    70    71    1
    79    70    69    1
    80    60    61    1
    81    64    61    1
    82    61    62    1
    83    63    62    2
