@<TRIPOS>MOLECULE
tmp/4opnA00.pdb
 147 141 0 0 0
SMALL
GASTEIGER

@<TRIPOS>ATOM
      1  N         10.3440    9.4650   14.6770 N.3   111  ASN111     -0.1240
      2  CA        11.0360    9.2530   15.9500 C.3   111  ASN111      0.1653
      3  C         12.4640    9.7800   15.9880 C.2   111  ASN111      0.2266
      4  O         13.1510    9.6430   16.9980 O.2   111  ASN111     -0.2867
      5  CB        11.0290    7.7690   16.3120 C.3   111  ASN111      0.1155
      6  CG         9.6350    7.2560   16.5870 C.2   111  ASN111      0.2627
      7  OD1        9.0200    7.6210   17.5880 O.2   111  ASN111     -0.2716
      8  ND2        9.1170    6.4220   15.6930 N.am  111  ASN111     -0.0877
      9  N         10.9300   15.1940   14.8870 N.3   115  ARG115     -0.1245
     10  CA         9.9740   14.3010   15.5420 C.3   115  ARG115      0.1563
     11  C          8.5330   14.8100   15.5580 C.2   115  ARG115      0.2260
     12  O          8.2780   16.0120   15.5250 O.2   115  ARG115     -0.2867
     13  CB        10.4050   14.0210   16.9830 C.3   115  ARG115      0.0307
     14  CG        11.7510   13.3380   17.1060 C.3   115  ARG115      0.0489
     15  CD        11.9000   12.6720   18.4620 C.3   115  ARG115      0.2205
     16  NE        11.7130   13.6080   19.5650 N.pl3 115  ARG115     -0.0865
     17  CZ        11.6510   13.2460   20.8420 C.cat 115  ARG115      0.5346
     18  NH1       11.7740   11.9680   21.1780 N.pl3 115  ARG115      0.1354
     19  NH2       11.4740   14.1600   21.7850 N.pl3 115  ARG115      0.1354
     20  N          4.1330    6.2240   16.8830 N.3   119  HIS119     -0.1241
     21  CA         3.8670    4.8290   16.5540 C.3   119  HIS119      0.1621
     22  C          2.3840    4.4820   16.5620 C.2   119  HIS119      0.2264
     23  O          1.5510    5.2380   17.0660 O.2   119  HIS119     -0.2867
     24  CB         4.6010    3.9150   17.5400 C.3   119  HIS119      0.0745
     25  CG         4.2920    4.2090   18.9720 C.ar  119  HIS119      0.0817
     26  ND1        5.1040    4.9940   19.7620 N.ar  119  HIS119     -0.2268
     27  CD2        3.2610    3.8180   19.7610 C.ar  119  HIS119      0.1154
     28  CE1        4.5840    5.0810   20.9740 C.ar  119  HIS119      0.1986
     29  NE2        3.4690    4.3740   20.9990 N.ar  119  HIS119     -0.2212
     30  N         12.9310   -2.2920   19.7330 N.3   143  LYS143     -0.1245
     31  CA        13.0140   -2.5650   21.1610 C.3   143  LYS143      0.1561
     32  C         12.4110   -3.9240   21.4820 C.2   143  LYS143      0.2260
     33  O         11.1970   -4.0960   21.4240 O.2   143  LYS143     -0.2867
     34  CB        12.2950   -1.4750   21.9570 C.3   143  LYS143      0.0271
     35  CG        12.4170   -1.6170   23.4660 C.3   143  LYS143      0.0035
     36  CD        11.3000   -0.8770   24.1790 C.3   143  LYS143      0.0206
     37  CE        11.2550   -1.2350   25.6560 C.3   143  LYS143      0.1093
     38  NZ        10.9290   -2.6670   25.8870 N.3   143  LYS143     -0.1314
     39  N         15.6870   -1.7820   26.8450 N.3   148  GLY148     -0.1210
     40  CA        15.2300   -0.4360   27.1480 C.3   148  GLY148      0.1956
     41  C         14.6630   -0.2820   28.5480 C.2   148  GLY148      0.2612
     42  O         14.8680   -1.1330   29.4150 O.2   148  GLY148     -0.2717
     43  N         13.9130    0.7960   28.7550 N.am  149  LYS149     -0.1965
     44  CA        13.4710    1.1920   30.0900 C.3   149  LYS149      0.1728
     45  C         12.2140    0.4680   30.5650 C.2   149  LYS149      0.2616
     46  O         12.1610   -0.0270   31.6900 O.2   149  LYS149     -0.2715
     47  CB        13.2040    2.6950   30.1120 C.3   149  LYS149      0.0311
     48  CG        14.3210    3.5630   29.5380 C.3   149  LYS149      0.0038
     49  CD        13.7890    4.9130   29.0680 C.3   149  LYS149      0.0206
     50  CE        12.3980    5.1900   29.6420 C.3   149  LYS149      0.1093
     51  NZ        11.5400    6.0570   28.7810 N.3   149  LYS149     -0.1314
     52  N         11.2230    0.3670   29.6890 N.am  150  MET150     -0.1963
     53  CA         9.9460   -0.2290   30.0660 C.3   150  MET150      0.1736
     54  C          9.8560   -1.6890   29.6320 C.2   150  MET150      0.2616
     55  O          9.8080   -2.0000   28.4410 O.2   150  MET150     -0.2715
     56  CB         8.7930    0.5870   29.4700 C.3   150  MET150      0.0427
     57  CG         8.7860    2.0390   29.9330 C.3   150  MET150      0.0599
     58  SD         7.6010    3.1010   29.0790 S.3   150  MET150     -0.1393
     59  CE         6.0490    2.5000   29.7390 C.3   150  MET150      0.0692
     60  N          9.8150   -2.5790   30.6180 N.am  151  LYS151     -0.1963
     61  CA         9.8540   -4.0140   30.3710 C.3   151  LYS151      0.1728
     62  C          8.4710   -4.5480   30.0260 C.2   151  LYS151      0.2617
     63  O          7.4650   -4.1070   30.5840 O.2   151  LYS151     -0.2715
     64  CB        10.4050   -4.7550   31.5930 C.3   151  LYS151      0.0311
     65  CG        11.7260   -4.2110   32.1120 C.3   151  LYS151      0.0038
     66  CD        12.8560   -4.4610   31.1270 C.3   151  LYS151      0.0206
     67  CE        14.0470   -3.5630   31.4210 C.3   151  LYS151      0.1093
     68  NZ        15.0990   -3.6800   30.3730 N.3   151  LYS151     -0.1314
     69  N          8.4260   -5.4890   29.0900 N.am  152  GLY152     -0.1940
     70  CA         7.1810   -6.1480   28.7490 C.3   152  GLY152      0.2014
     71  C          6.4470   -5.5180   27.5830 C.2   152  GLY152      0.2638
     72  O          5.3400   -5.9370   27.2540 O.2   152  GLY152     -0.2714
     73  N          7.0540   -4.5100   26.9620 N.am  153  LEU153     -0.1977
     74  CA         6.5210   -3.9620   25.7200 C.3   153  LEU153      0.1596
     75  C          7.6180   -3.9480   24.6640 C.2   153  LEU153      0.2287
     76  O          8.8020   -3.8660   24.9880 O.2   153  LEU153     -0.2864
     77  CB         5.9430   -2.5530   25.9350 C.3   153  LEU153      0.0297
     78  CG         6.8310   -1.3280   26.2030 C.3   153  LEU153      0.0022
     79  CD1        7.4100   -0.7320   24.9230 C.3   153  LEU153      0.0001
     80  CD2        6.0670   -0.2690   26.9750 C.3   153  LEU153      0.0001
     81  N          8.8910   -2.6550   20.4810 N.3   155  PHE155     -0.1241
     82  CA         8.7010   -1.9330   19.2280 C.3   155  PHE155      0.1605
     83  C          9.2870   -2.7140   18.0630 C.2   155  PHE155      0.2264
     84  O         10.4610   -3.0810   18.0770 O.2   155  PHE155     -0.2867
     85  CB         9.3380   -0.5440   19.2740 C.3   155  PHE155      0.0534
     86  CG         8.5870    0.4470   20.1110 C.ar  155  PHE155     -0.0203
     87  CD1        7.4190    1.0280   19.6380 C.ar  155  PHE155     -0.0042
     88  CD2        9.0610    0.8210   21.3580 C.ar  155  PHE155     -0.0042
     89  CE1        6.7290    1.9530   20.4020 C.ar  155  PHE155     -0.0003
     90  CE2        8.3760    1.7430   22.1260 C.ar  155  PHE155     -0.0003
     91  CZ         7.2090    2.3100   21.6500 C.ar  155  PHE155     -0.0000
     92  N          7.3910    2.6950   13.6090 N.3   163  TRP163     -0.1241
     93  CA         7.4040    1.9330   14.8500 C.3   163  TRP163      0.1605
     94  C          6.0180    1.3640   15.1340 C.2   163  TRP163      0.2264
     95  O          5.0080    2.0610   15.0240 O.2   163  TRP163     -0.2867
     96  CB         7.8580    2.7930   16.0290 C.3   163  TRP163      0.0550
     97  CG         9.2950    3.2210   15.9920 C.ar  163  TRP163      0.0003
     98  CD1       10.1280    3.2340   14.9090 C.ar  163  TRP163      0.0946
     99  CD2       10.0730    3.6920   17.1010 C.ar  163  TRP163      0.0152
    100  NE1       11.3720    3.6960   15.2740 N.ar  163  TRP163     -0.2442
    101  CE2       11.3640    3.9810   16.6140 C.ar  163  TRP163      0.0810
    102  CE3        9.8010    3.8980   18.4560 C.ar  163  TRP163      0.0012
    103  CZ2       12.3800    4.4660   17.4360 C.ar  163  TRP163      0.0191
    104  CZ3       10.8090    4.3790   19.2690 C.ar  163  TRP163      0.0001
    105  CH2       12.0820    4.6580   18.7570 C.ar  163  TRP163      0.0015
    106  N          4.1960   -0.6110   18.2830 N.3   165  GLU165     -0.1245
    107  CA         4.3150   -1.1210   19.6390 C.3   165  GLU165      0.1567
    108  C          3.5490   -2.4280   19.7970 C.2   165  GLU165      0.2260
    109  O          2.4780   -2.6140   19.2130 O.2   165  GLU165     -0.2867
    110  CB         3.8230   -0.0960   20.6570 C.3   165  GLU165      0.0388
    111  CG         4.3950   -0.3150   22.0470 C.3   165  GLU165      0.1160
    112  CD         3.8990    0.7030   23.0480 C.2   165  GLU165      0.3649
    113  OE1        4.7350    1.2590   23.7890 O.co2 165  GLU165     -0.2457
    114  OE2        2.6740    0.9390   23.1000 O.co2 165  GLU165     -0.2457
    115  N          2.0170   -4.6910   22.8670 N.3   167  LEU167     -0.1231
    116  CA         1.7000   -4.5170   24.2790 C.3   167  LEU167      0.1693
    117  C          0.6300   -5.4850   24.7750 C.2   167  LEU167      0.2592
    118  O         -0.2300   -5.9310   24.0150 O.2   167  LEU167     -0.2718
    119  CB         1.2670   -3.0650   24.5390 C.3   167  LEU167      0.0284
    120  CG        -0.0890   -2.5570   24.0270 C.3   167  LEU167      0.0019
    121  CD1       -1.2270   -2.8000   25.0200 C.3   167  LEU167      0.0001
    122  CD2       -0.0010   -1.0810   23.6640 C.3   167  LEU167      0.0001
    123  N          0.6990   -5.7970   26.0660 N.am  168  ASN168     -0.1974
    124  CA        -0.2930   -6.6320   26.7280 C.3   168  ASN168      0.1688
    125  C         -1.0130   -5.7710   27.7540 C.2   168  ASN168      0.2292
    126  O         -0.4190   -5.3540   28.7440 O.2   168  ASN168     -0.2864
    127  CB         0.3690   -7.8510   27.3850 C.3   168  ASN168      0.1181
    128  CG        -0.6320   -8.8070   28.0250 C.2   168  ASN168      0.2629
    129  OD1       -1.8240   -8.5160   28.1370 O.2   168  ASN168     -0.2716
    130  ND2       -0.1400   -9.9660   28.4470 N.am  168  ASN168     -0.0877
    131  N         -0.8720   -6.4920   31.5860 N.3   171  LYS171     -0.1231
    132  CA         0.4190   -6.5170   32.2670 C.3   171  LYS171      0.1693
    133  C          1.1270   -5.1840   32.0830 C.2   171  LYS171      0.2591
    134  O          2.1630   -5.0920   31.4180 O.2   171  LYS171     -0.2718
    135  CB         1.3020   -7.6500   31.7400 C.3   171  LYS171      0.0285
    136  CG         0.7200   -9.0400   31.8980 C.3   171  LYS171      0.0035
    137  CD         1.7320  -10.0980   31.5020 C.3   171  LYS171      0.0206
    138  CE         1.0980  -11.4780   31.4560 C.3   171  LYS171      0.1093
    139  NZ         2.0770  -12.5070   31.0000 N.3   171  LYS171     -0.1314
    140  N          0.5470   -4.1470   32.6780 N.am  172  ILE172     -0.1980
    141  CA         1.0600   -2.7890   32.5690 C.3   172  ILE172      0.1595
    142  C          1.0710   -2.0870   33.9240 C.2   172  ILE172      0.2287
    143  O          2.0610   -1.4590   34.3000 O.2   172  ILE172     -0.2864
    144  CB         0.2230   -1.9620   31.5760 C.3   172  ILE172      0.0276
    145  CG1        0.2290   -2.6340   30.2020 C.3   172  ILE172      0.0022
    146  CG2        0.7380   -0.5400   31.4950 C.3   172  ILE172      0.0022
    147  CD1       -0.6010   -1.9380   29.1660 C.3   172  ILE172      0.0001
@<TRIPOS>BOND
     1    92    93    1
     2     1     2    1
     3    93    94    1
     4    93    96    1
     5     9    10    1
     6    98   100   ar
     7    98    97   ar
     8    95    94    2
     9   100   101   ar
    10    12    11    2
    11    10    11    1
    12    10    13    1
    13     8     6   am
    14     2     3    1
    15     2     5    1
    16     3     4    2
    17    97    96    1
    18    97    99   ar
    19     5     6    1
    20    21    22    1
    21    21    20    1
    22    21    24    1
    23    22    23    2
    24     6     7    2
    25   101    99   ar
    26   101   103   ar
    27    13    14    1
    28    99   102   ar
    29    14    15    1
    30   103   105   ar
    31    24    25    1
    32    83    84    2
    33    83    82    1
    34   106   107    1
    35   102   104   ar
    36    15    16    1
    37   105   104   ar
    38    25    27   ar
    39    25    26   ar
    40   109   108    2
    41    82    85    1
    42    82    81    1
    43    85    86    1
    44    16    17    2
    45    87    86   ar
    46    87    89   ar
    47   107   108    1
    48   107   110    1
    49    30    31    1
    50    27    29   ar
    51    26    28   ar
    52    86    88   ar
    53    89    91   ar
    54   110   111    1
    55    17    18    1
    56    17    19    1
    57    28    29   ar
    58    31    32    1
    59    31    34    1
    60    88    90   ar
    61    33    32    2
    62    91    90   ar
    63    34    35    1
    64   111   112    1
    65   115   116    1
    66   112   114   ar
    67   112   113   ar
    68    35    36    1
    69   122   120    1
    70   118   117    2
    71   120   119    1
    72   120   121    1
    73    36    37    1
    74   116   119    1
    75   116   117    1
    76    75    76    2
    77    75    74    1
    78   117   123   am
    79    79    78    1
    80    37    38    1
    81    74    77    1
    82    74    73    1
    83    77    78    1
    84   123   124    1
    85    78    80    1
    86   124   127    1
    87   124   125    1
    88    39    40    1
    89    73    71   am
    90    40    41    1
    91    72    71    2
    92   127   128    1
    93    71    70    1
    94   125   126    2
    95   128   129    2
    96   128   130   am
    97    55    54    2
    98    41    43   am
    99    41    42    2
   100    70    69    1
   101    43    44    1
   102    51    50    1
   103    49    48    1
   104    49    50    1
   105    58    59    1
   106    58    57    1
   107    69    62   am
   108   147   145    1
   109    56    57    1
   110    56    53    1
   111    48    47    1
   112    54    53    1
   113    54    60   am
   114    52    53    1
   115    52    45   am
   116    62    61    1
   117    62    63    2
   118    44    47    1
   119    44    45    1
   120   145   144    1
   121    61    60    1
   122    61    64    1
   123    68    67    1
   124    45    46    2
   125   139   138    1
   126    66    67    1
   127    66    65    1
   128   134   133    2
   129   138   137    1
   130   146   144    1
   131   137   136    1
   132   144   141    1
   133   131   132    1
   134    64    65    1
   135   135   136    1
   136   135   132    1
   137   133   132    1
   138   133   140   am
   139   141   140    1
   140   141   142    1
   141   142   143    2
