@<TRIPOS>MOLECULE
tmp/4opnA01.pdb
 116 106 0 0 0
SMALL
GASTEIGER

@<TRIPOS>ATOM
      1  N         -9.6270    6.1470   11.5290 N.3    26  GLN26      -0.1245
      2  CA        -8.4090    5.8190   10.7980 C.3    26  GLN26       0.1566
      3  C         -7.1500    6.5070   11.3100 C.2    26  GLN26       0.2260
      4  O         -7.1970    7.5760   11.9220 O.2    26  GLN26      -0.2867
      5  CB        -8.5880    6.1770    9.3190 C.3    26  GLN26       0.0367
      6  CG        -8.9650    7.6370    9.1120 C.3    26  GLN26       0.0905
      7  CD        -8.9910    8.0500    7.6590 C.2    26  GLN26       0.2608
      8  OE1       -9.7980    7.5580    6.8700 O.2    26  GLN26      -0.2717
      9  NE2       -8.1010    8.9580    7.2940 N.am   26  GLN26      -0.0878
     10  N         -3.4980    7.3820    9.2560 N.3    28  MET28      -0.1245
     11  CA        -2.9260    7.3250    7.9140 C.3    28  MET28       0.1570
     12  C         -1.4050    7.4160    7.9370 C.2    28  MET28       0.2261
     13  O         -0.8210    8.2740    8.6020 O.2    28  MET28      -0.2867
     14  CB        -3.5170    8.4350    7.0330 C.3    28  MET28       0.0387
     15  CG        -3.1490    8.3780    5.5400 C.3    28  MET28       0.0595
     16  SD        -1.4570    8.8390    5.0590 S.3    28  MET28      -0.1393
     17  CE        -1.7310   10.4690    4.3570 C.3    28  MET28       0.0692
     18  N          2.0050    7.0440    5.1000 N.3    30  ARG30      -0.1245
     19  CA         2.4280    6.9260    3.7120 C.3    30  ARG30       0.1563
     20  C          3.3870    5.7510    3.5670 C.2    30  ARG30       0.2260
     21  O          4.2920    5.5770    4.3850 O.2    30  ARG30      -0.2867
     22  CB         3.0870    8.2180    3.2360 C.3    30  ARG30       0.0307
     23  CG         2.1310    9.3990    3.1530 C.3    30  ARG30       0.0489
     24  CD         2.8610   10.6650    2.7270 C.3    30  ARG30       0.2205
     25  NE         1.9730   11.8220    2.6740 N.pl3  30  ARG30      -0.0865
     26  CZ         1.6720   12.5840    3.7220 C.cat  30  ARG30       0.5346
     27  NH1        2.1900   12.3150    4.9160 N.pl3  30  ARG30       0.1354
     28  NH2        0.8560   13.6190    3.5740 N.pl3  30  ARG30       0.1354
     29  N         -8.4790    1.5750   -2.7840 N.3    53  LEU53      -0.1245
     30  CA        -9.0680    2.6750   -3.5350 C.3    53  LEU53       0.1561
     31  C         -8.0050    3.3040   -4.4120 C.2    53  LEU53       0.2260
     32  O         -6.9320    3.6620   -3.9370 O.2    53  LEU53      -0.2867
     33  CB        -9.6760    3.7290   -2.6030 C.3    53  LEU53       0.0270
     34  CG       -10.9510    3.4120   -1.8160 C.3    53  LEU53       0.0019
     35  CD1      -10.6510    2.5410   -0.6230 C.3    53  LEU53       0.0001
     36  CD2      -11.6300    4.6960   -1.3620 C.3    53  LEU53       0.0001
     37  N         -6.9060    6.2780   -7.3320 N.3    55  PHE55      -0.1241
     38  CA        -7.2120    7.6180   -7.7940 C.3    55  PHE55       0.1605
     39  C         -6.2170    7.9930   -8.8850 C.2    55  PHE55       0.2264
     40  O         -5.2340    8.6880   -8.6230 O.2    55  PHE55      -0.2867
     41  CB        -7.1450    8.6180   -6.6380 C.3    55  PHE55       0.0534
     42  CG        -8.0930    8.3150   -5.5060 C.ar   55  PHE55      -0.0203
     43  CD1       -7.7310    7.4360   -4.4970 C.ar   55  PHE55      -0.0042
     44  CD2       -9.3390    8.9150   -5.4450 C.ar   55  PHE55      -0.0042
     45  CE1       -8.5930    7.1570   -3.4530 C.ar   55  PHE55      -0.0003
     46  CE2      -10.2080    8.6410   -4.4020 C.ar   55  PHE55      -0.0003
     47  CZ        -9.8330    7.7600   -3.4040 C.ar   55  PHE55      -0.0000
     48  N         -5.0360   11.5700   -9.5930 N.3    58  MET58      -0.1245
     49  CA        -4.1680   12.1160   -8.5550 C.3    58  MET58       0.1570
     50  C         -2.9470   11.2360   -8.2970 C.2    58  MET58       0.2261
     51  O         -2.0830   11.5830   -7.4930 O.2    58  MET58      -0.2867
     52  CB        -4.9680   12.3180   -7.2690 C.3    58  MET58       0.0387
     53  CG        -6.0530   13.3790   -7.3940 C.3    58  MET58       0.0595
     54  SD        -7.2980   13.2980   -6.0980 S.3    58  MET58      -0.1393
     55  CE        -8.3170   11.9650   -6.7070 C.3    58  MET58       0.0692
     56  N         -2.4690    8.1400   -6.8840 N.3    60  PHE60      -0.1241
     57  CA        -2.2320    7.4640   -5.6130 C.3    60  PHE60       0.1605
     58  C         -3.2940    6.4170   -5.3110 C.2    60  PHE60       0.2264
     59  O         -4.3880    6.4470   -5.8670 O.2    60  PHE60      -0.2867
     60  CB        -2.1390    8.4780   -4.4590 C.3    60  PHE60       0.0534
     61  CG        -3.4640    9.0630   -4.0330 C.ar   60  PHE60      -0.0203
     62  CD1       -4.2330    8.4470   -3.0550 C.ar   60  PHE60      -0.0042
     63  CD2       -3.9240   10.2470   -4.5880 C.ar   60  PHE60      -0.0042
     64  CE1       -5.4430    8.9900   -2.6570 C.ar   60  PHE60      -0.0003
     65  CE2       -5.1290   10.7930   -4.1920 C.ar   60  PHE60      -0.0003
     66  CZ        -5.8910   10.1640   -3.2270 C.ar   60  PHE60      -0.0000
     67  N         -5.1090    4.0200   -1.9350 N.3    62  LEU62      -0.1245
     68  CA        -5.3260    3.9440   -0.5030 C.3    62  LEU62       0.1561
     69  C         -5.6450    2.5210   -0.1030 C.2    62  LEU62       0.2260
     70  O         -6.5220    1.8830   -0.6870 O.2    62  LEU62      -0.2867
     71  CB        -6.4650    4.8690   -0.0820 C.3    62  LEU62       0.0270
     72  CG        -6.2460    6.3490   -0.3780 C.3    62  LEU62       0.0019
     73  CD1       -7.4570    7.1470    0.0640 C.3    62  LEU62       0.0001
     74  CD2       -4.9870    6.8410    0.3200 C.3    62  LEU62       0.0001
     75  N        -17.5200    0.5290    0.6120 N.3    81  THR81      -0.1218
     76  CA       -16.9660    1.8240    0.9910 C.3    81  THR81       0.1862
     77  C        -17.6270    2.3650    2.2550 C.2    81  THR81       0.2287
     78  O        -16.9480    2.8250    3.1730 O.2    81  THR81      -0.2866
     79  CB       -17.1240    2.8520   -0.1410 C.3    81  THR81       0.1770
     80  OG1      -16.5580    2.3300   -1.3480 O.3    81  THR81      -0.2211
     81  CG2      -16.4240    4.1510    0.2190 C.3    81  THR81       0.0375
     82  N        -15.4690    2.8030    5.8940 N.3    85  PHE85      -0.1241
     83  CA       -15.2940    4.0980    6.5370 C.3    85  PHE85       0.1605
     84  C        -16.1480    4.2530    7.7850 C.2    85  PHE85       0.2264
     85  O        -16.1210    5.3010    8.4280 O.2    85  PHE85      -0.2867
     86  CB       -15.5830    5.2250    5.5480 C.3    85  PHE85       0.0534
     87  CG       -14.4580    5.4720    4.5930 C.ar   85  PHE85      -0.0203
     88  CD1      -13.3780    6.2550    4.9660 C.ar   85  PHE85      -0.0042
     89  CD2      -14.4650    4.9030    3.3310 C.ar   85  PHE85      -0.0042
     90  CE1      -12.3280    6.4700    4.0960 C.ar   85  PHE85      -0.0003
     91  CE2      -13.4210    5.1160    2.4540 C.ar   85  PHE85      -0.0003
     92  CZ       -12.3510    5.9010    2.8350 C.ar   85  PHE85      -0.0000
     93  N         -4.9190    3.3020    7.4160 N.3    92  GLU92      -0.1245
     94  CA        -4.9280    3.7300    6.0280 C.3    92  GLU92       0.1567
     95  C         -3.5090    3.8880    5.5210 C.2    92  GLU92       0.2260
     96  O         -2.7600    4.7360    6.0030 O.2    92  GLU92      -0.2867
     97  CB        -5.6870    5.0460    5.8680 C.3    92  GLU92       0.0388
     98  CG        -5.5610    5.6520    4.4790 C.3    92  GLU92       0.1160
     99  CD        -6.1810    7.0300    4.3920 C.2    92  GLU92       0.3649
    100  OE1       -6.5430    7.5780    5.4510 O.co2  92  GLU92      -0.2457
    101  OE2       -6.2920    7.5720    3.2720 O.co2  92  GLU92      -0.2457
    102  N         -1.1680    4.9560    2.4740 N.3    94  THR94      -0.1218
    103  CA        -1.2320    5.8030    1.2870 C.3    94  THR94       0.1862
    104  C         -0.0500    5.5330    0.3720 C.2    94  THR94       0.2287
    105  O          1.1060    5.7040    0.7650 O.2    94  THR94      -0.2866
    106  CB        -1.2500    7.3050    1.6550 C.3    94  THR94       0.1770
    107  OG1       -2.4750    7.6210    2.3270 O.3    94  THR94      -0.2211
    108  CG2       -1.1280    8.1640    0.4020 C.3    94  THR94       0.0375
    109  N          1.7270    6.7400   -2.9050 N.3    96  ASN96      -0.1240
    110  CA         1.9490    7.6420   -4.0190 C.3    96  ASN96       0.1653
    111  C          2.7010    6.8660   -5.0900 C.2    96  ASN96       0.2266
    112  O          3.7900    6.3510   -4.8380 O.2    96  ASN96      -0.2867
    113  CB         2.7200    8.8830   -3.5730 C.3    96  ASN96       0.1155
    114  CG         1.8850    9.7960   -2.6920 C.2    96  ASN96       0.2627
    115  OD1        0.8190   10.2580   -3.0960 O.2    96  ASN96      -0.2716
    116  ND2        2.3570   10.0400   -1.4750 N.am   96  ASN96      -0.0877
@<TRIPOS>BOND
     1    48    49    1
     2    39    40    2
     3    39    38    1
     4    49    50    1
     5    49    52    1
     6    50    51    2
     7    38    37    1
     8    38    41    1
     9    53    52    1
    10    53    54    1
    11    56    57    1
    12    55    54    1
    13    41    42    1
    14    59    58    2
    15    57    58    1
    16    57    60    1
    17    42    44   ar
    18    42    43   ar
    19    44    46   ar
    20   111   112    2
    21   111   110    1
    22    63    65   ar
    23    63    61   ar
    24    43    45   ar
    25    60    61    1
    26    31    32    2
    27    31    30    1
    28    46    47   ar
    29    65    66   ar
    30    61    62   ar
    31   110   113    1
    32   110   109    1
    33   113   114    1
    34    30    29    1
    35    30    33    1
    36    45    47   ar
    37    66    64   ar
    38   115   114    2
    39    62    64   ar
    40   114   116   am
    41    33    34    1
    42    67    68    1
    43    34    36    1
    44    34    35    1
    45    80    79    1
    46    70    69    2
    47    68    69    1
    48    68    71    1
    49    72    71    1
    50    72    73    1
    51    72    74    1
    52    79    81    1
    53    79    76    1
    54   104   105    2
    55   104   103    1
    56   108   106    1
    57    75    76    1
    58    76    77    1
    59   103   106    1
    60   103   102    1
    61   106   107    1
    62    77    78    2
    63    91    92   ar
    64    91    89   ar
    65    25    24    1
    66    25    26    2
    67    24    23    1
    68    92    90   ar
    69    23    22    1
    70    22    19    1
    71   101    99   ar
    72    89    87   ar
    73    20    19    1
    74    20    21    2
    75    28    26    1
    76    19    18    1
    77    26    27    1
    78    90    88   ar
    79    17    16    1
    80    99    98    1
    81    99   100   ar
    82    98    97    1
    83    87    88   ar
    84    87    86    1
    85    16    15    1
    86    95    96    2
    87    95    94    1
    88    15    14    1
    89    86    83    1
    90    97    94    1
    91    82    83    1
    92    94    93    1
    93    83    84    1
    94     8     7    2
    95    14    11    1
    96     9     7   am
    97     7     6    1
    98    84    85    2
    99    11    12    1
   100    11    10    1
   101    12    13    2
   102     6     5    1
   103     5     2    1
   104     2     3    1
   105     2     1    1
   106     3     4    2
