@<TRIPOS>MOLECULE
tmp/4oppD02.pdb
 107 105 0 0 0
SMALL
GASTEIGER

@<TRIPOS>ATOM
      1  N        -24.5820  -41.2810  -19.3100 N.3    22  CYS22      -0.1235
      2  CA       -24.2230  -40.4130  -20.4240 C.3    22  CYS22       0.1677
      3  C        -24.4160  -41.0520  -21.8150 C.2    22  CYS22       0.2270
      4  O        -23.9990  -42.1950  -22.0550 O.2    22  CYS22      -0.2867
      5  CB       -22.7710  -39.9500  -20.2720 C.3    22  CYS22       0.0956
      6  SG       -22.2170  -39.3830  -18.6200 S.3    22  CYS22      -0.0801
      7  N        -24.2490  -38.7520  -24.8650 N.3    24  GLU24      -0.1245
      8  CA       -23.5480  -37.9180  -25.8450 C.3    24  GLU24       0.1567
      9  C        -22.2010  -38.5130  -26.2620 C.2    24  GLU24       0.2260
     10  O        -21.3580  -38.8190  -25.4110 O.2    24  GLU24      -0.2867
     11  CB       -23.3610  -36.5260  -25.2730 C.3    24  GLU24       0.0388
     12  CG       -24.6710  -35.7860  -25.1740 C.3    24  GLU24       0.1160
     13  CD       -24.5580  -34.5310  -24.3490 C.2    24  GLU24       0.3649
     14  OE1      -25.1230  -33.4970  -24.7690 O.co2  24  GLU24      -0.2457
     15  OE2      -23.9120  -34.5880  -23.2770 O.co2  24  GLU24      -0.2457
     16  N        -24.0440  -35.0620  -12.2510 N.3    66  TRP66      -0.1227
     17  CA       -23.6130  -35.3800  -13.6100 C.3    66  TRP66       0.1737
     18  C        -23.9610  -36.8270  -13.9530 C.2    66  TRP66       0.2595
     19  O        -24.1480  -37.6530  -13.0600 O.2    66  TRP66      -0.2718
     20  CB       -22.1100  -35.1510  -13.7610 C.3    66  TRP66       0.0564
     21  CG       -21.7260  -33.7040  -13.7320 C.ar   66  TRP66       0.0003
     22  CD1      -22.5650  -32.6370  -13.5880 C.ar   66  TRP66       0.0946
     23  CD2      -20.4080  -33.1600  -13.8670 C.ar   66  TRP66       0.0152
     24  NE1      -21.8540  -31.4590  -13.6290 N.ar   66  TRP66      -0.2442
     25  CE2      -20.5260  -31.7510  -13.7990 C.ar   66  TRP66       0.0810
     26  CE3      -19.1370  -33.7240  -14.0400 C.ar   66  TRP66       0.0012
     27  CZ2      -19.4230  -30.8990  -13.8980 C.ar   66  TRP66       0.0191
     28  CZ3      -18.0360  -32.8740  -14.1380 C.ar   66  TRP66       0.0001
     29  CH2      -18.1900  -31.4730  -14.0670 C.ar   66  TRP66       0.0015
     30  N        -24.0510  -37.1260  -15.2480 N.am   67  CYS67      -0.1970
     31  CA       -24.4010  -38.4690  -15.7140 C.3    67  CYS67       0.1712
     32  C        -23.3320  -39.5230  -15.4070 C.2    67  CYS67       0.2296
     33  O        -23.6190  -40.7150  -15.3630 O.2    67  CYS67      -0.2864
     34  CB       -24.6990  -38.4280  -17.2130 C.3    67  CYS67       0.0983
     35  SG       -23.3270  -37.7390  -18.1800 S.3    67  CYS67      -0.0798
     36  N        -15.3190  -42.0390  -18.8050 N.3    85  ARG85      -0.1245
     37  CA       -16.3330  -42.0720  -19.8360 C.3    85  ARG85       0.1563
     38  C        -15.7360  -42.7310  -21.0680 C.2    85  ARG85       0.2260
     39  O        -16.4600  -43.1170  -21.9840 O.2    85  ARG85      -0.2867
     40  CB       -16.7850  -40.6660  -20.1800 C.3    85  ARG85       0.0307
     41  CG       -17.2550  -39.8940  -18.9900 C.3    85  ARG85       0.0489
     42  CD       -18.1690  -38.7850  -19.4170 C.3    85  ARG85       0.2205
     43  NE       -18.6400  -38.0370  -18.2660 N.pl3  85  ARG85      -0.0865
     44  CZ       -19.4530  -36.9950  -18.3430 C.cat  85  ARG85       0.5346
     45  NH1      -19.8900  -36.5770  -19.5240 N.pl3  85  ARG85       0.1354
     46  NH2      -19.8300  -36.3770  -17.2380 N.pl3  85  ARG85       0.1354
     47  N        -18.6680  -38.0710  -24.6680 N.3    90  LYS90      -0.1231
     48  CA       -18.2720  -36.7010  -24.3690 C.3    90  LYS90       0.1693
     49  C        -18.1490  -36.5230  -22.8630 C.2    90  LYS90       0.2593
     50  O        -19.0730  -36.8370  -22.1130 O.2    90  LYS90      -0.2718
     51  CB       -19.2970  -35.7060  -24.9200 C.3    90  LYS90       0.0285
     52  CG       -18.9440  -34.2520  -24.6550 C.3    90  LYS90       0.0035
     53  CD       -19.8720  -33.3100  -25.4010 C.3    90  LYS90       0.0206
     54  CE       -21.2220  -33.1960  -24.7180 C.3    90  LYS90       0.1093
     55  NZ       -22.2730  -32.7300  -25.6720 N.3    90  LYS90      -0.1314
     56  N        -16.9970  -36.0380  -22.4180 N.am   91  GLY91      -0.1942
     57  CA       -16.7860  -35.8460  -21.0000 C.3    91  GLY91       0.2014
     58  C        -17.1290  -34.4440  -20.5590 C.2    91  GLY91       0.2639
     59  O        -17.3850  -33.5600  -21.3720 O.2    91  GLY91      -0.2714
     60  N        -17.0880  -34.2320  -19.2700 N.am   92  ALA92      -0.1963
     61  CA       -17.3820  -32.9670  -18.6930 C.3    92  ALA92       0.1728
     62  C        -16.2740  -32.4010  -17.8490 C.2    92  ALA92       0.2616
     63  O        -16.3470  -32.3750  -16.6630 O.2    92  ALA92      -0.2715
     64  CB       -18.6020  -33.0890  -17.8520 C.3    92  ALA92       0.0334
     65  N        -15.2260  -31.9560  -18.4830 N.am   93  HIS93      -0.1959
     66  CA       -13.9830  -31.6360  -17.7880 C.3    93  HIS93       0.1787
     67  C        -13.2960  -30.3700  -18.2690 C.2    93  HIS93       0.2620
     68  O        -12.3460  -29.9060  -17.6390 O.2    93  HIS93      -0.2715
     69  CB       -13.0130  -32.7850  -17.9940 C.3    93  HIS93       0.0785
     70  CG       -12.8060  -33.1080  -19.4360 C.ar   93  HIS93       0.0821
     71  ND1      -11.8290  -32.5070  -20.2030 N.ar   93  HIS93      -0.2267
     72  CD2      -13.5220  -33.8820  -20.2850 C.ar   93  HIS93       0.1154
     73  CE1      -11.9550  -32.8960  -21.4540 C.ar   93  HIS93       0.1986
     74  NE2      -12.9780  -33.7330  -21.5310 N.ar   93  HIS93      -0.2212
     75  N        -13.7120  -29.8660  -19.4310 N.am   94  ALA94      -0.1963
     76  CA       -13.0670  -28.6940  -20.0310 C.3    94  ALA94       0.1728
     77  C        -13.9430  -27.4790  -20.3890 C.2    94  ALA94       0.2617
     78  O        -13.4180  -26.4760  -20.8730 O.2    94  ALA94      -0.2715
     79  CB       -12.2450  -29.1180  -21.2420 C.3    94  ALA94       0.0334
     80  N        -15.2560  -27.5520  -20.1800 N.am   95  GLY95      -0.1941
     81  CA       -16.1290  -26.5080  -20.6860 C.3    95  GLY95       0.1998
     82  C        -16.8010  -26.9070  -21.9890 C.2    95  GLY95       0.2480
     83  O        -16.3180  -27.8000  -22.7000 O.2    95  GLY95      -0.2729
     84  N        -17.9240  -26.2620  -22.3350 N.am   96  PRO96      -0.2726
     85  CA       -18.6770  -26.5520  -23.5630 C.3    96  PRO96       0.1402
     86  C        -17.9060  -26.4180  -24.8810 C.2    96  PRO96       0.2269
     87  O        -18.2930  -27.0070  -25.8960 O.2    96  PRO96      -0.2865
     88  CB       -19.8750  -25.6030  -23.4620 C.3    96  PRO96       0.0296
     89  CG       -19.3370  -24.4640  -22.6380 C.3    96  PRO96       0.0237
     90  CD       -18.5800  -25.1950  -21.5650 C.3    96  PRO96       0.0939
     91  N        -14.9910  -29.7930  -24.4350 N.3    99  ASN99      -0.1240
     92  CA       -15.5360  -31.1160  -24.1480 C.3    99  ASN99       0.1653
     93  C        -15.9340  -31.9890  -25.3500 C.2    99  ASN99       0.2266
     94  O        -15.5890  -33.1750  -25.3940 O.2    99  ASN99      -0.2867
     95  CB       -16.7390  -31.0100  -23.2050 C.3    99  ASN99       0.1155
     96  CG       -16.3380  -30.7460  -21.7470 C.2    99  ASN99       0.2627
     97  OD1      -15.1730  -30.8430  -21.3720 O.2    99  ASN99      -0.2716
     98  ND2      -17.3210  -30.4250  -20.9250 N.am   99  ASN99      -0.0877
     99  N         -9.2570  -23.3320  -19.6380 N.3   150  GLN150     -0.1245
    100  CA       -10.1970  -22.9910  -18.5750 C.3   150  GLN150      0.1566
    101  C         -9.3790  -22.2600  -17.5350 C.2   150  GLN150      0.2260
    102  O         -8.1750  -22.4370  -17.4710 O.2   150  GLN150     -0.2867
    103  CB       -10.8040  -24.2310  -17.9130 C.3   150  GLN150      0.0367
    104  CG       -11.6830  -25.1030  -18.7900 C.3   150  GLN150      0.0905
    105  CD       -13.0220  -24.4790  -19.1470 C.2   150  GLN150      0.2608
    106  OE1      -13.1100  -23.6230  -20.0320 O.2   150  GLN150     -0.2717
    107  NE2      -14.0760  -24.9080  -18.4580 N.am  150  GLN150     -0.0878
@<TRIPOS>BOND
     1     9     8    1
     2     9    10    2
     3    87    86    2
     4     8    11    1
     5     8     7    1
     6    55    54    1
     7    53    54    1
     8    53    52    1
     9    94    93    2
    10    93    92    1
    11    11    12    1
    12    12    13    1
    13    51    52    1
    14    51    48    1
    15    86    85    1
    16    14    13   ar
    17    47    48    1
    18    91    92    1
    19    48    49    1
    20    13    15   ar
    21    92    95    1
    22    85    88    1
    23    85    84    1
    24    88    89    1
    25    95    96    1
    26    49    56   am
    27    49    50    2
    28    83    82    2
    29    89    90    1
    30    56    57    1
    31    84    82   am
    32    84    90    1
    33     4     3    2
    34    82    81    1
    35    39    38    2
    36     3     2    1
    37    96    97    2
    38    96    98   am
    39    74    73   ar
    40    74    72   ar
    41    73    71   ar
    42    59    58    2
    43    79    76    1
    44    38    37    1
    45    57    58    1
    46    78    77    2
    47    81    80    1
    48    58    60   am
    49     2     5    1
    50     2     1    1
    51    77    80   am
    52    77    76    1
    53    72    70   ar
    54     5     6    1
    55    71    70   ar
    56    40    37    1
    57    40    41    1
    58   106   105    2
    59    76    75    1
    60    37    36    1
    61    99   100    1
    62    45    44    1
    63    70    69    1
    64    75    67   am
    65    42    41    1
    66    42    43    1
    67    60    61    1
    68   105   104    1
    69   105   107   am
    70   104   103    1
    71    61    64    1
    72    61    62    1
    73     6    35    1
    74   100   103    1
    75   100   101    1
    76    65    62   am
    77    65    66    1
    78    44    43    2
    79    44    46    1
    80    67    66    1
    81    67    68    2
    82    35    34    1
    83    69    66    1
    84    62    63    2
    85   101   102    2
    86    34    31    1
    87    31    32    1
    88    31    30    1
    89    32    33    2
    90    30    18   am
    91    28    29   ar
    92    28    26   ar
    93    29    27   ar
    94    26    23   ar
    95    18    17    1
    96    18    19    2
    97    27    25   ar
    98    23    25   ar
    99    23    21   ar
   100    25    24   ar
   101    20    21    1
   102    20    17    1
   103    21    22   ar
   104    24    22   ar
   105    17    16    1
