@<TRIPOS>MOLECULE
tmp/4opxB00.pdb
 114 112 0 0 0
SMALL
GASTEIGER

@<TRIPOS>ATOM
      1  N        -10.9240   28.4580  -40.1340 N.3   307  HIS307     -0.1226
      2  CA       -10.7620   28.7430  -38.7100 C.3   307  HIS307      0.1752
      3  C        -10.0970   30.1030  -38.5180 C.2   307  HIS307      0.2596
      4  O         -8.9280   30.2810  -38.8580 O.2   307  HIS307     -0.2718
      5  CB        -9.9350   27.6590  -38.0200 C.3   307  HIS307      0.0759
      6  CG        -9.6280   27.9610  -36.5870 C.ar  307  HIS307      0.0818
      7  ND1      -10.6040   28.0290  -35.6160 N.ar  307  HIS307     -0.2268
      8  CD2       -8.4560   28.2190  -35.9610 C.ar  307  HIS307      0.1154
      9  CE1      -10.0460   28.3140  -34.4530 C.ar  307  HIS307      0.1986
     10  NE2       -8.7430   28.4340  -34.6350 N.ar  307  HIS307     -0.2212
     11  N        -10.8480   31.0550  -37.9720 N.am  308  GLY308     -0.1957
     12  CA       -10.3430   32.4030  -37.7410 C.3   308  GLY308      0.1869
     13  C         -9.9770   32.6440  -36.2920 C.2   308  GLY308      0.2309
     14  O        -10.5410   32.0320  -35.3840 O.2   308  GLY308     -0.2863
     15  N        -19.0440   30.1540  -23.5650 N.3   333  GLY333     -0.1210
     16  CA       -18.7110   30.6210  -24.9100 C.3   333  GLY333      0.1956
     17  C        -18.6840   29.4870  -25.9150 C.2   333  GLY333      0.2612
     18  O        -19.2010   29.6220  -27.0250 O.2   333  GLY333     -0.2717
     19  N        -18.0770   28.3680  -25.5220 N.am  334  TYR334     -0.1962
     20  CA       -18.0190   27.1780  -26.3640 C.3   334  TYR334      0.1771
     21  C        -19.3890   26.5120  -26.4340 C.2   334  TYR334      0.2619
     22  O        -20.0900   26.4120  -25.4270 O.2   334  TYR334     -0.2715
     23  CB       -16.9870   26.1870  -25.8240 C.3   334  TYR334      0.0574
     24  CG       -15.5780   26.7350  -25.7930 C.ar  334  TYR334     -0.0198
     25  CD1      -14.9190   26.9600  -24.5870 C.ar  334  TYR334     -0.0009
     26  CD2      -14.9070   27.0420  -26.9730 C.ar  334  TYR334     -0.0009
     27  CE1      -13.6300   27.4660  -24.5580 C.ar  334  TYR334      0.0417
     28  CE2      -13.6190   27.5500  -26.9550 C.ar  334  TYR334      0.0417
     29  CZ       -12.9850   27.7600  -25.7470 C.ar  334  TYR334      0.1957
     30  OH       -11.7050   28.2650  -25.7270 O.3   334  TYR334     -0.2866
     31  N        -19.7610   26.0570  -27.6270 N.am  335  MET335     -0.1977
     32  CA       -21.0700   25.4460  -27.8460 C.3   335  MET335      0.1605
     33  C        -21.0680   23.9890  -27.3930 C.2   335  MET335      0.2287
     34  O        -21.9980   23.5450  -26.7150 O.2   335  MET335     -0.2864
     35  CB       -21.4610   25.5310  -29.3270 C.3   335  MET335      0.0413
     36  CG       -22.9600   25.6220  -29.5760 C.3   335  MET335      0.0598
     37  SD       -23.5440   27.3040  -29.8790 S.3   335  MET335     -0.1393
     38  CE       -22.9170   28.1810  -28.4470 C.3   335  MET335      0.0692
     39  N        -12.3390   22.4950  -27.3760 N.3   339  GLY339     -0.1225
     40  CA       -11.7830   21.8000  -28.5350 C.3   339  GLY339      0.1811
     41  C        -11.5100   22.7830  -29.6590 C.2   339  GLY339      0.2280
     42  O        -11.7920   23.9750  -29.5210 O.2   339  GLY339     -0.2866
     43  N        -12.4740   24.4710  -32.9360 N.3   341  TYR341     -0.1227
     44  CA       -13.6900   24.7020  -33.7170 C.3   341  TYR341      0.1736
     45  C        -13.3580   25.1250  -35.1460 C.2   341  TYR341      0.2595
     46  O        -12.3790   25.8350  -35.3820 O.2   341  TYR341     -0.2718
     47  CB       -14.5660   25.7630  -33.0470 C.3   341  TYR341      0.0548
     48  CG       -15.3130   25.2540  -31.8360 C.ar  341  TYR341     -0.0200
     49  CD1      -14.6810   25.1340  -30.6020 C.ar  341  TYR341     -0.0009
     50  CD2      -16.6540   24.8920  -31.9240 C.ar  341  TYR341     -0.0009
     51  CE1      -15.3630   24.6660  -29.4900 C.ar  341  TYR341      0.0417
     52  CE2      -17.3450   24.4260  -30.8190 C.ar  341  TYR341      0.0417
     53  CZ       -16.6960   24.3140  -29.6060 C.ar  341  TYR341      0.1957
     54  OH       -17.3840   23.8500  -28.5100 O.3   341  TYR341     -0.2866
     55  N        -14.1830   24.6780  -36.0900 N.am  342  PHE342     -0.1962
     56  CA       -14.0160   24.9950  -37.5080 C.3   342  PHE342      0.1771
     57  C        -15.3610   25.3180  -38.1480 C.2   342  PHE342      0.2619
     58  O        -16.4110   24.9190  -37.6420 O.2   342  PHE342     -0.2715
     59  CB       -13.3730   23.8170  -38.2460 C.3   342  PHE342      0.0574
     60  CG       -11.9240   23.6150  -37.9220 C.ar  342  PHE342     -0.0200
     61  CD1      -11.5410   22.7930  -36.8730 C.ar  342  PHE342     -0.0042
     62  CD2      -10.9390   24.2420  -38.6720 C.ar  342  PHE342     -0.0042
     63  CE1      -10.2040   22.6030  -36.5750 C.ar  342  PHE342     -0.0003
     64  CE2       -9.6000   24.0590  -38.3770 C.ar  342  PHE342     -0.0003
     65  CZ        -9.2330   23.2390  -37.3270 C.ar  342  PHE342     -0.0000
     66  N        -15.3160   26.0450  -39.2630 N.am  343  ALA343     -0.1977
     67  CA       -16.5150   26.3800  -40.0290 C.3   343  ALA343      0.1597
     68  C        -16.2970   26.1140  -41.5130 C.2   343  ALA343      0.2287
     69  O        -15.1740   26.2090  -42.0110 O.2   343  ALA343     -0.2864
     70  CB       -16.8920   27.8370  -39.8140 C.3   343  ALA343      0.0319
     71  N        -18.2100   33.2430  -41.1780 N.3   348  LYS348     -0.1231
     72  CA       -18.4000   32.8450  -39.7810 C.3   348  LYS348      0.1693
     73  C        -17.0680   32.7790  -39.0360 C.2   348  LYS348      0.2592
     74  O        -16.9630   33.2390  -37.8970 O.2   348  LYS348     -0.2718
     75  CB       -19.1140   31.4930  -39.6970 C.3   348  LYS348      0.0285
     76  CG       -19.4260   31.0400  -38.2780 C.3   348  LYS348      0.0035
     77  CD       -20.4310   29.9020  -38.2640 C.3   348  LYS348      0.0206
     78  CE       -20.6960   29.4110  -36.8510 C.3   348  LYS348      0.1093
     79  NZ       -21.6930   28.3060  -36.8190 N.3   348  LYS348     -0.1314
     80  N        -16.0600   32.2060  -39.6870 N.am  349  SER349     -0.1952
     81  CA       -14.7100   32.1480  -39.1320 C.3   349  SER349      0.1924
     82  C        -14.0310   33.5210  -39.1330 C.2   349  SER349      0.2314
     83  O        -13.3000   33.8510  -38.2000 O.2   349  SER349     -0.2863
     84  CB       -13.8550   31.1340  -39.9010 C.3   349  SER349      0.2116
     85  OG       -14.2150   29.8050  -39.5680 O.3   349  SER349     -0.2180
     86  N        -13.8890   36.0100  -36.0920 N.3   352  TYR352     -0.1241
     87  CA       -12.9430   35.7800  -34.9980 C.3   352  TYR352      0.1605
     88  C        -11.5850   36.4500  -35.2190 C.2   352  TYR352      0.2264
     89  O        -10.7400   36.4500  -34.3220 O.2   352  TYR352     -0.2867
     90  CB       -12.7680   34.2770  -34.7620 C.3   352  TYR352      0.0534
     91  CG       -14.0270   33.6250  -34.2450 C.ar  352  TYR352     -0.0201
     92  CD1      -14.2560   33.4990  -32.8790 C.ar  352  TYR352     -0.0009
     93  CD2      -15.0040   33.1580  -35.1210 C.ar  352  TYR352     -0.0009
     94  CE1      -15.4150   32.9150  -32.3990 C.ar  352  TYR352      0.0417
     95  CE2      -16.1660   32.5710  -34.6500 C.ar  352  TYR352      0.0417
     96  CZ       -16.3670   32.4510  -33.2890 C.ar  352  TYR352      0.1957
     97  OH       -17.5200   31.8670  -32.8170 O.3   352  TYR352     -0.2866
     98  N        -22.9480   25.7490  -39.8700 N.3   432  ASN432     -0.1225
     99  CA       -22.2780   24.5520  -39.3620 C.3   432  ASN432      0.1785
    100  C        -21.0520   24.8450  -38.5000 C.2   432  ASN432      0.2597
    101  O        -20.3540   25.8400  -38.7080 O.2   432  ASN432     -0.2718
    102  CB       -21.8680   23.6320  -40.5170 C.3   432  ASN432      0.1169
    103  CG       -23.0580   23.0680  -41.2740 C.2   432  ASN432      0.2627
    104  OD1      -24.2120   23.3450  -40.9450 O.2   432  ASN432     -0.2716
    105  ND2      -22.7780   22.2690  -42.2970 N.am  432  ASN432     -0.0877
    106  N        -20.8100   23.9650  -37.5300 N.am  433  GLU433     -0.1979
    107  CA       -19.5990   23.9910  -36.7140 C.3   433  GLU433      0.1602
    108  C        -18.9630   22.6050  -36.7210 C.2   433  GLU433      0.2287
    109  O        -19.6610   21.6000  -36.5840 O.2   433  GLU433     -0.2864
    110  CB       -19.9210   24.3970  -35.2750 C.3   433  GLU433      0.0415
    111  CG       -20.4780   25.8040  -35.1340 C.3   433  GLU433      0.1163
    112  CD       -20.6010   26.2540  -33.6890 C.2   433  GLU433      0.3649
    113  OE1      -20.5680   25.3960  -32.7810 O.co2 433  GLU433     -0.2457
    114  OE2      -20.7350   27.4750  -33.4600 O.co2 433  GLU433     -0.2457
@<TRIPOS>BOND
     1   105   103   am
     2    69    68    2
     3    68    67    1
     4   103   104    2
     5   103   102    1
     6    71    72    1
     7   102    99    1
     8     1     2    1
     9    67    70    1
    10    67    66    1
    11    84    85    1
    12    84    81    1
    13    98    99    1
    14    72    75    1
    15    72    73    1
    16    75    76    1
    17    80    81    1
    18    80    73   am
    19    99   100    1
    20    66    57   am
    21    82    81    1
    22    82    83    2
    23    73    74    2
    24     4     3    2
    25     2     3    1
    26     2     5    1
    27   101   100    2
    28    62    64   ar
    29    62    60   ar
    30     3    11   am
    31   100   106   am
    32    64    65   ar
    33    76    77    1
    34    77    78    1
    35    59    60    1
    36    59    56    1
    37    57    58    2
    38    57    56    1
    39     5     6    1
    40    11    12    1
    41    60    61   ar
    42    12    13    1
    43   106   107    1
    44    56    55    1
    45    65    63   ar
    46    61    63   ar
    47    78    79    1
    48   108   107    1
    49   108   109    2
    50   107   110    1
    51     6     8   ar
    52     6     7   ar
    53    13    14    2
    54    86    87    1
    55    55    45   am
    56     8    10   ar
    57     7     9   ar
    58    46    45    2
    59   110   111    1
    60    88    87    1
    61    88    89    2
    62    45    44    1
    63   111   112    1
    64    93    95   ar
    65    93    91   ar
    66    87    90    1
    67    90    91    1
    68    95    96   ar
    69    10     9   ar
    70    91    92   ar
    71    44    47    1
    72    44    43    1
    73   112   114   ar
    74   112   113   ar
    75    96    97    1
    76    96    94   ar
    77    47    48    1
    78    92    94   ar
    79    50    48   ar
    80    50    52   ar
    81    48    49   ar
    82    52    53   ar
    83    49    51   ar
    84    37    36    1
    85    37    38    1
    86    41    42    2
    87    41    40    1
    88    53    51   ar
    89    53    54    1
    90    36    35    1
    91    35    32    1
    92    40    39    1
    93    32    31    1
    94    32    33    1
    95    31    21   am
    96    33    34    2
    97    18    17    2
    98    26    28   ar
    99    26    24   ar
   100    28    29   ar
   101    21    20    1
   102    21    22    2
   103    20    23    1
   104    20    19    1
   105    17    19   am
   106    17    16    1
   107    23    24    1
   108    24    25   ar
   109    29    30    1
   110    29    27   ar
   111    16    15    1
   112    25    27   ar
