@<TRIPOS>MOLECULE
tmp/4opyA00.pdb
 77 70 0 0 0
SMALL
GASTEIGER

@<TRIPOS>ATOM
      1  N         26.0480   15.0720   -8.4340 N.3    54  ALA54      -0.1245
      2  CA        25.9760   13.7330   -7.8590 C.3    54  ALA54       0.1562
      3  C         27.2010   12.9110   -8.1070 C.2    54  ALA54       0.2260
      4  O         27.6400   12.2390   -7.1710 O.2    54  ALA54      -0.2867
      5  CB        24.7750   13.0100   -8.3840 C.3    54  ALA54       0.0290
      6  N         29.8830   14.2790   -5.7660 N.3    57  SER57      -0.1202
      7  CA        29.5370   13.7280   -4.4550 C.3    57  SER57       0.2020
      8  C         30.1410   12.3020   -4.2340 C.2    57  SER57       0.2618
      9  O         30.7140   12.0180   -3.1700 O.2    57  SER57      -0.2717
     10  CB        28.0400   13.7160   -4.2330 C.3    57  SER57       0.2103
     11  OG        27.8930   13.4930   -2.8540 O.3    57  SER57      -0.2182
     12  N         30.0170   11.4660   -5.2130 N.am   58  ARG58      -0.1979
     13  CA        30.6020   10.1250   -5.1440 C.3    58  ARG58       0.1597
     14  C         32.0950   10.1570   -5.1540 C.2    58  ARG58       0.2287
     15  O         32.7800    9.4210   -4.4430 O.2    58  ARG58      -0.2864
     16  CB        30.0550    9.2480   -6.3130 C.3    58  ARG58       0.0334
     17  CG        28.5880    8.9280   -6.2130 C.3    58  ARG58       0.0492
     18  CD        28.0950    8.1060   -7.4230 C.3    58  ARG58       0.2205
     19  NE        28.3860    6.6540   -7.1330 N.pl3  58  ARG58      -0.0865
     20  CZ        29.1760    5.8240   -7.8190 C.cat  58  ARG58       0.5346
     21  NH1       29.3530    4.6020   -7.3600 N.pl3  58  ARG58       0.1354
     22  NH2       29.7970    6.1600   -8.9480 N.pl3  58  ARG58       0.1354
     23  N         33.2880   11.0760   -1.6530 N.3    61  ALA61      -0.1245
     24  CA        33.0490    9.8990   -0.7990 C.3    61  ALA61       0.1562
     25  C         33.9200    8.7190   -1.0740 C.2    61  ALA61       0.2260
     26  O         33.7610    7.7210   -0.3940 O.2    61  ALA61      -0.2867
     27  CB        31.6110    9.4830   -0.9180 C.3    61  ALA61       0.0290
     28  N         33.9390    6.8470   -3.8190 N.3    63  GLN63      -0.1245
     29  CA        33.2570    5.8150   -4.5840 C.3    63  GLN63       0.1566
     30  C         33.4090    5.9950   -6.0940 C.2    63  GLN63       0.2260
     31  O         32.9010    5.2300   -6.8090 O.2    63  GLN63      -0.2867
     32  CB        31.7700    5.7720   -4.2560 C.3    63  GLN63       0.0367
     33  CG        31.4390    5.6910   -2.7590 C.3    63  GLN63       0.0905
     34  CD        29.9700    6.0290   -2.4680 C.2    63  GLN63       0.2608
     35  OE1       29.4560    7.0530   -2.9260 O.2    63  GLN63      -0.2717
     36  NE2       29.3120    5.2130   -1.6490 N.am   63  GLN63      -0.0878
     37  N         25.4520    5.8910  -11.6910 N.3   117  ILE117     -0.1245
     38  CA        24.8330    5.9850  -10.3780 C.3   117  ILE117      0.1561
     39  C         23.5710    5.1790  -10.2410 C.2   117  ILE117      0.2260
     40  O         22.8670    5.2620   -9.2280 O.2   117  ILE117     -0.2867
     41  CB        24.5200    7.4630  -10.0510 C.3   117  ILE117      0.0252
     42  CG1       23.5500    8.0860  -11.0340 C.3   117  ILE117      0.0019
     43  CG2       25.7710    8.2810  -10.0650 C.3   117  ILE117      0.0019
     44  CD1       23.0530    9.4830  -10.4660 C.3   117  ILE117      0.0001
     45  N         17.8370    7.4260   -9.0780 N.3   122  GLU122     -0.1245
     46  CA        18.9580    7.6560   -8.1370 C.3   122  GLU122      0.1567
     47  C         19.4330    9.1080   -8.1000 C.2   122  GLU122      0.2260
     48  O         19.9710    9.5430   -7.0710 O.2   122  GLU122     -0.2867
     49  CB        20.1640    6.7730   -8.4520 C.3   122  GLU122      0.0388
     50  CG        19.7650    5.3040   -8.3790 C.3   122  GLU122      0.1160
     51  CD        19.5000    4.7540   -6.9760 C.2   122  GLU122      0.3649
     52  OE1       19.6280    5.4420   -6.0020 O.co2 122  GLU122     -0.2457
     53  OE2       19.1640    3.5590   -6.8560 O.co2 122  GLU122     -0.2457
     54  N         17.0100   10.6980   -5.8170 N.3   125  ALA125     -0.1231
     55  CA        17.3710   10.4150   -4.4470 C.3   125  ALA125      0.1694
     56  C         18.4950   11.2360   -3.8680 C.2   125  ALA125      0.2592
     57  O         18.4070   11.6910   -2.7030 O.2   125  ALA125     -0.2718
     58  CB        17.6370    8.8820   -4.2720 C.3   125  ALA125      0.0304
     59  N         19.5430   11.4870   -4.6740 N.am  126  PHE126     -0.1976
     60  CA        20.5750   12.4050   -4.3040 C.3   126  PHE126      0.1639
     61  C         20.0150   13.7980   -4.0100 C.2   126  PHE126      0.2290
     62  O         20.3680   14.4410   -3.0370 O.2   126  PHE126     -0.2864
     63  CB        21.5860   12.5370   -5.4710 C.3   126  PHE126      0.0560
     64  CG        22.5690   13.6710   -5.3410 C.ar  126  PHE126     -0.0200
     65  CD1       23.6050   13.6380   -4.4190 C.ar  126  PHE126     -0.0042
     66  CD2       22.4750   14.7590   -6.1330 C.ar  126  PHE126     -0.0042
     67  CE1       24.5490   14.6780   -4.3600 C.ar  126  PHE126     -0.0003
     68  CE2       23.3440   15.8520   -6.0150 C.ar  126  PHE126     -0.0003
     69  CZ        24.3690   15.8290   -5.1180 C.ar  126  PHE126     -0.0000
     70  N         18.1960   13.6630   -0.7430 N.3   129  ASN129     -0.1240
     71  CA        19.2140   13.5840    0.2830 C.3   129  ASN129      0.1653
     72  C         19.8900   14.8530    0.6070 C.2   129  ASN129      0.2266
     73  O         20.4410   14.9260    1.7130 O.2   129  ASN129     -0.2867
     74  CB        20.3150   12.5750   -0.0210 C.3   129  ASN129      0.1155
     75  CG        19.8370   11.1570    0.0690 C.2   129  ASN129      0.2627
     76  OD1       20.4720   10.2450   -0.4710 O.2   129  ASN129     -0.2716
     77  ND2       18.7170   10.9530    0.7040 N.am  129  ASN129     -0.0877
@<TRIPOS>BOND
     1    37    38    1
     2    42    44    1
     3    42    41    1
     4    38    39    1
     5    38    41    1
     6    39    40    2
     7    43    41    1
     8    45    46    1
     9    22    20    1
    10    49    50    1
    11    49    46    1
    12     1     2    1
    13     5     2    1
    14    50    51    1
    15    46    47    1
    16     3     2    1
    17     3     4    2
    18    47    48    2
    19    20    21    1
    20    20    19    2
    21    18    19    1
    22    18    17    1
    23    51    53   ar
    24    51    52   ar
    25    31    30    2
    26    16    17    1
    27    16    13    1
    28    66    68   ar
    29    66    64   ar
    30    30    29    1
    31    68    69   ar
    32    54    55    1
    33     6     7    1
    34    63    64    1
    35    63    60    1
    36    64    65   ar
    37    12    13    1
    38    12     8   am
    39    14    13    1
    40    14    15    2
    41    69    67   ar
    42    59    60    1
    43    59    56   am
    44    29    32    1
    45    29    28    1
    46     7     8    1
    47     7    10    1
    48    55    58    1
    49    55    56    1
    50    65    67   ar
    51    60    61    1
    52    32    33    1
    53     8     9    2
    54    10    11    1
    55    61    62    2
    56    56    57    2
    57    35    34    2
    58    33    34    1
    59    34    36   am
    60    23    24    1
    61    25    24    1
    62    25    26    2
    63    27    24    1
    64    70    71    1
    65    76    75    2
    66    74    75    1
    67    74    71    1
    68    75    77   am
    69    71    72    1
    70    72    73    2
