@<TRIPOS>MOLECULE
tmp/4oq2A00.pdb
 102 103 0 0 0
SMALL
GASTEIGER

@<TRIPOS>ATOM
      1  N         43.2160   23.3540   80.9910 N.3     5  HIS5       -0.1241
      2  CA        42.8770   21.9780   80.6340 C.3     5  HIS5        0.1621
      3  C         42.4410   21.7970   79.1640 C.2     5  HIS5        0.2264
      4  O         42.0490   20.7060   78.7530 O.2     5  HIS5       -0.2867
      5  CB        41.8250   21.4380   81.6190 C.3     5  HIS5        0.0745
      6  CG        42.3600   21.2640   83.0080 C.ar    5  HIS5        0.0817
      7  ND1       43.0890   20.1540   83.3860 N.ar    5  HIS5       -0.2268
      8  CD2       42.3250   22.0760   84.0940 C.ar    5  HIS5        0.1154
      9  CE1       43.4650   20.2830   84.6480 C.ar    5  HIS5        0.1986
     10  NE2       43.0240   21.4450   85.0960 N.ar    5  HIS5       -0.2212
     11  N         35.0060   16.2110   80.3090 N.3   169  ARG169     -0.1231
     12  CA        36.4600   16.0760   80.1530 C.3   169  ARG169      0.1694
     13  C         37.0570   15.1220   81.1880 C.2   169  ARG169      0.2592
     14  O         37.7540   14.1610   80.8380 O.2   169  ARG169     -0.2718
     15  CB        37.1620   17.4230   80.2720 C.3   169  ARG169      0.0321
     16  CG        38.6710   17.2910   80.0810 C.3   169  ARG169      0.0489
     17  CD        39.3760   18.6320   80.1060 C.3   169  ARG169      0.2205
     18  NE        39.2010   19.3810   78.8520 N.pl3 169  ARG169     -0.0865
     19  CZ        38.5720   20.5510   78.7570 C.cat 169  ARG169      0.5346
     20  NH1       38.0500   21.1050   79.8450 N.pl3 169  ARG169      0.1354
     21  NH2       38.4630   21.1680   77.5840 N.pl3 169  ARG169      0.1354
     22  N         36.7800   15.4020   82.4630 N.am  170  TYR170     -0.1962
     23  CA        37.2920   14.5870   83.5480 C.3   170  TYR170      0.1771
     24  C         36.1690   13.9810   84.3830 C.2   170  TYR170      0.2620
     25  O         35.0420   14.4810   84.3720 O.2   170  TYR170     -0.2715
     26  CB        38.1580   15.4270   84.4630 C.3   170  TYR170      0.0574
     27  CG        39.3220   16.1170   83.8090 C.ar  170  TYR170     -0.0198
     28  CD1       40.3790   15.3860   83.2250 C.ar  170  TYR170     -0.0009
     29  CD2       39.3880   17.4880   83.7960 C.ar  170  TYR170     -0.0009
     30  CE1       41.4510   16.0260   82.6370 C.ar  170  TYR170      0.0417
     31  CE2       40.4510   18.1310   83.2180 C.ar  170  TYR170      0.0417
     32  CZ        41.4760   17.4030   82.6450 C.ar  170  TYR170      0.1957
     33  OH        42.5200   18.1020   82.0990 O.3   170  TYR170     -0.2866
     34  N         36.4860   12.9140   85.1150 N.am  171  HIS171     -0.1959
     35  CA        35.5570   12.3490   86.0670 C.3   171  HIS171      0.1787
     36  C         34.9480   13.4560   86.9190 C.2   171  HIS171      0.2620
     37  O         33.7460   13.4910   87.1630 O.2   171  HIS171     -0.2715
     38  CB        36.2710   11.3740   86.9930 C.3   171  HIS171      0.0785
     39  CG        36.6770   10.0890   86.3450 C.ar  171  HIS171      0.0821
     40  ND1       37.0260    8.9740   87.0780 N.ar  171  HIS171     -0.2267
     41  CD2       36.8030    9.7360   85.0410 C.ar  171  HIS171      0.1154
     42  CE1       37.3350    7.9860   86.2580 C.ar  171  HIS171      0.1986
     43  NE2       37.2120    8.4220   85.0160 N.ar  171  HIS171     -0.2212
     44  N         35.7810   14.3540   87.4050 N.am  172  ARG172     -0.1977
     45  CA        35.2790   15.3330   88.3420 C.3   172  ARG172      0.1597
     46  C         34.2370   16.2350   87.7120 C.2   172  ARG172      0.2287
     47  O         33.3110   16.6460   88.3820 O.2   172  ARG172     -0.2864
     48  CB        36.4170   16.1450   88.9650 C.3   172  ARG172      0.0334
     49  CG        36.9820   17.1660   88.0400 C.3   172  ARG172      0.0492
     50  CD        37.9910   17.9760   88.7900 C.3   172  ARG172      0.2205
     51  NE        37.4640   18.3780   90.0910 N.pl3 172  ARG172     -0.0865
     52  CZ        37.1650   19.6350   90.3820 C.cat 172  ARG172      0.5346
     53  NH1       37.3440   20.5700   89.4620 N.pl3 172  ARG172      0.1354
     54  NH2       36.6960   19.9640   91.5650 N.pl3 172  ARG172      0.1354
     55  N         40.9230   15.7100   91.8310 N.3   185  HIS185     -0.1226
     56  CA        40.4530   14.8860   90.7580 C.3   185  HIS185      0.1752
     57  C         40.1100   13.5150   91.2770 C.2   185  HIS185      0.2596
     58  O         40.5350   13.1020   92.3520 O.2   185  HIS185     -0.2718
     59  CB        41.4920   14.8060   89.6360 C.3   185  HIS185      0.0759
     60  CG        41.4930   16.0090   88.7500 C.ar  185  HIS185      0.0818
     61  ND1       40.6490   16.1300   87.6720 N.ar  185  HIS185     -0.2268
     62  CD2       42.2120   17.1560   88.7990 C.ar  185  HIS185      0.1154
     63  CE1       40.8540   17.2940   87.0850 C.ar  185  HIS185      0.1986
     64  NE2       41.8020   17.9320   87.7450 N.ar  185  HIS185     -0.2212
     65  N         39.3040   12.8260   90.4940 N.am  186  HIS186     -0.1961
     66  CA        38.9100   11.4820   90.7820 C.3   186  HIS186      0.1787
     67  C         39.4140   10.6530   89.6210 C.2   186  HIS186      0.2620
     68  O         39.2610   11.0490   88.4530 O.2   186  HIS186     -0.2715
     69  CB        37.3880   11.4300   90.8730 C.3   186  HIS186      0.0785
     70  CG        36.8520   10.0570   91.0650 C.ar  186  HIS186      0.0821
     71  ND1       36.7640    9.1450   90.0310 N.ar  186  HIS186     -0.2267
     72  CD2       36.4060    9.4220   92.1760 C.ar  186  HIS186      0.1154
     73  CE1       36.2650    8.0120   90.4950 C.ar  186  HIS186      0.1986
     74  NE2       36.0250    8.1590   91.7890 N.ar  186  HIS186     -0.2212
     75  N         40.0200    9.5140   89.9040 N.am  187  GLN187     -0.1977
     76  CA        40.6130    8.7100   88.8310 C.3   187  GLN187      0.1601
     77  C         40.1370    7.2850   88.8110 C.2   187  GLN187      0.2287
     78  O         40.4690    6.5600   87.8900 O.2   187  GLN187     -0.2864
     79  CB        42.1350    8.6050   88.9610 C.3   187  GLN187      0.0394
     80  CG        42.8690    9.7950   89.5370 C.3   187  GLN187      0.0908
     81  CD        44.3620    9.5140   89.6410 C.2   187  GLN187      0.2608
     82  OE1       45.1750   10.2000   89.0310 O.2   187  GLN187     -0.2717
     83  NE2       44.7200    8.4730   90.3820 N.am  187  GLN187     -0.0878
     84  N         40.7870   11.7900   75.6120 N.3   260  THR260     -0.1218
     85  CA        39.7430   11.1210   76.3870 C.3   260  THR260      0.1862
     86  C         38.5990   12.0470   76.7790 C.2   260  THR260      0.2287
     87  O         38.8100   13.1550   77.2540 O.2   260  THR260     -0.2866
     88  CB        40.3610   10.5020   77.6600 C.3   260  THR260      0.1770
     89  OG1       41.1730    9.3940   77.2780 O.3   260  THR260     -0.2211
     90  CG2       39.2860   10.0080   78.6200 C.3   260  THR260      0.0375
     91  N         34.3630   11.6660   78.4950 N.3   262  TYR262     -0.1241
     92  CA        33.4520   10.7090   79.1060 C.3   262  TYR262      0.1605
     93  C         32.0510   10.9880   78.6310 C.2   262  TYR262      0.2264
     94  O         31.5650   12.1130   78.7290 O.2   262  TYR262     -0.2867
     95  CB        33.5500   10.7700   80.6240 C.3   262  TYR262      0.0534
     96  CG        34.9170   10.3790   81.0830 C.ar  262  TYR262     -0.0201
     97  CD1       35.2670    9.0380   81.2070 C.ar  262  TYR262     -0.0009
     98  CD2       35.8870   11.3400   81.3060 C.ar  262  TYR262     -0.0009
     99  CE1       36.5420    8.6690   81.5820 C.ar  262  TYR262      0.0417
    100  CE2       37.1540   10.9860   81.6840 C.ar  262  TYR262      0.0417
    101  CZ        37.4810    9.6470   81.8260 C.ar  262  TYR262      0.1957
    102  OH        38.7620    9.3040   82.2120 O.3   262  TYR262     -0.2866
@<TRIPOS>BOND
     1    84    85    1
     2    85    86    1
     3    85    88    1
     4    86    87    2
     5    89    88    1
     6    21    19    1
     7    88    90    1
     8    91    92    1
     9    93    94    2
    10    93    92    1
    11     4     3    2
    12    19    18    2
    13    19    20    1
    14    18    17    1
    15    92    95    1
    16     3     2    1
    17    16    17    1
    18    16    15    1
    19    12    15    1
    20    12    11    1
    21    12    13    1
    22    95    96    1
    23     2     1    1
    24     2     5    1
    25    14    13    2
    26    96    97   ar
    27    96    98   ar
    28    13    22   am
    29    97    99   ar
    30    98   100   ar
    31    99   101   ar
    32     5     6    1
    33   100   101   ar
    34   101   102    1
    35    33    32    1
    36    22    23    1
    37    30    32   ar
    38    30    28   ar
    39    32    31   ar
    40     6     7   ar
    41     6     8   ar
    42    31    29   ar
    43    28    27   ar
    44     7     9   ar
    45    23    24    1
    46    23    26    1
    47    29    27   ar
    48    27    26    1
    49     8    10   ar
    50    25    24    2
    51    24    34   am
    52     9    10   ar
    53    43    41   ar
    54    43    42   ar
    55    41    39   ar
    56    34    35    1
    57    35    36    1
    58    35    38    1
    59    42    40   ar
    60    39    38    1
    61    39    40   ar
    62    36    37    2
    63    36    44   am
    64    63    61   ar
    65    63    64   ar
    66    44    45    1
    67    61    60   ar
    68    46    45    1
    69    46    47    2
    70    64    62   ar
    71    78    77    2
    72    49    50    1
    73    49    48    1
    74    45    48    1
    75    68    67    2
    76    60    62   ar
    77    60    59    1
    78    50    51    1
    79    77    76    1
    80    76    79    1
    81    76    75    1
    82    79    80    1
    83    82    81    2
    84    53    52    1
    85    80    81    1
    86    67    75   am
    87    67    66    1
    88    59    56    1
    89    81    83   am
    90    71    73   ar
    91    71    70   ar
    92    51    52    2
    93    52    54    1
    94    65    66    1
    95    65    57   am
    96    73    74   ar
    97    56    57    1
    98    56    55    1
    99    66    69    1
   100    69    70    1
   101    70    72   ar
   102    57    58    2
   103    74    72   ar
