@<TRIPOS>MOLECULE
tmp/4oq3D00.pdb
 151 145 0 0 0
SMALL
GASTEIGER

@<TRIPOS>ATOM
      1  N         17.3620   15.3910   16.7460 N.3     2  ILE2       -0.1245
      2  CA        18.3030   14.2720   16.7090 C.3     2  ILE2        0.1561
      3  C         18.2910   13.5480   18.0590 C.2     2  ILE2        0.2260
      4  O         18.3380   14.2010   19.1020 O.2     2  ILE2       -0.2867
      5  CB        19.7430   14.7710   16.3830 C.3     2  ILE2        0.0252
      6  CG1       19.7650   15.6010   15.0890 C.3     2  ILE2        0.0019
      7  CG2       20.7450   13.6270   16.3190 C.3     2  ILE2        0.0019
      8  CD1       19.5300   14.8190   13.8160 C.3     2  ILE2        0.0001
      9  N         29.9980   19.8040   16.0320 N.3    37  LEU37      -0.1231
     10  CA        28.9480   20.7900   15.8010 C.3    37  LEU37       0.1693
     11  C         29.2710   22.1700   16.3660 C.2    37  LEU37       0.2592
     12  O         29.0750   23.1840   15.6840 O.2    37  LEU37      -0.2718
     13  CB        27.6130   20.3140   16.3680 C.3    37  LEU37       0.0284
     14  CG        26.8100   19.2440   15.6260 C.3    37  LEU37       0.0019
     15  CD1       25.6560   18.7850   16.5110 C.3    37  LEU37       0.0001
     16  CD2       26.3020   19.7770   14.2790 C.3    37  LEU37       0.0001
     17  N         29.7410   22.2230   17.6090 N.am   38  PHE38      -0.1976
     18  CA        30.0710   23.5120   18.2160 C.3    38  PHE38       0.1639
     19  C         31.1040   24.2460   17.3570 C.2    38  PHE38       0.2290
     20  O         30.9190   25.4100   16.9920 O.2    38  PHE38      -0.2864
     21  CB        30.5720   23.3410   19.6520 C.3    38  PHE38       0.0560
     22  CG        31.2680   24.5500   20.1900 C.ar   38  PHE38      -0.0200
     23  CD1       30.5420   25.6740   20.5760 C.ar   38  PHE38      -0.0042
     24  CD2       32.6550   24.5820   20.2740 C.ar   38  PHE38      -0.0042
     25  CE1       31.1820   26.7970   21.0480 C.ar   38  PHE38      -0.0003
     26  CE2       33.3130   25.7050   20.7460 C.ar   38  PHE38      -0.0003
     27  CZ        32.5730   26.8150   21.1410 C.ar   38  PHE38      -0.0000
     28  N         31.9280   23.6990   14.1230 N.3    40  LEU40      -0.1231
     29  CA        31.3300   24.0860   12.8290 C.3    40  LEU40       0.1693
     30  C         30.5610   25.3920   12.9290 C.2    40  LEU40       0.2592
     31  O         30.7080   26.2660   12.0790 O.2    40  LEU40      -0.2718
     32  CB        30.3880   23.0140   12.2920 C.3    40  LEU40       0.0284
     33  CG        30.9840   21.9240   11.4170 C.3    40  LEU40       0.0019
     34  CD1       30.0160   20.7650   11.3380 C.3    40  LEU40       0.0001
     35  CD2       31.2810   22.4640   10.0350 C.3    40  LEU40       0.0001
     36  N         29.7420   25.5150   13.9730 N.am   41  GLY41      -0.1957
     37  CA        28.9930   26.7380   14.2340 C.3    41  GLY41       0.1869
     38  C         29.8560   27.9720   14.4040 C.2    41  GLY41       0.2309
     39  O         29.5060   29.0370   13.9060 O.2    41  GLY41      -0.2863
     40  N         31.1900   29.1210   10.9830 N.3    44  ILE44      -0.1231
     41  CA        30.1570   29.8350   10.2450 C.3    44  ILE44       0.1692
     42  C         29.9920   31.2400   10.8020 C.2    44  ILE44       0.2591
     43  O         29.8040   32.2000   10.0600 O.2    44  ILE44      -0.2718
     44  CB        28.8020   29.0860   10.3210 C.3    44  ILE44       0.0266
     45  CG1       28.8620   27.8090    9.4780 C.3    44  ILE44       0.0019
     46  CG2       27.6480   29.9850    9.8590 C.3    44  ILE44       0.0020
     47  CD1       27.9000   26.7670    9.8860 C.3    44  ILE44       0.0001
     48  N         30.0690   31.3350   12.1220 N.am   45  MET45      -0.1979
     49  CA        29.9000   32.5810   12.8490 C.3    45  MET45       0.1605
     50  C         31.0720   33.5400   12.6200 C.2    45  MET45       0.2287
     51  O         30.8600   34.7420   12.4610 O.2    45  MET45      -0.2864
     52  CB        29.7600   32.2650   14.3420 C.3    45  MET45       0.0413
     53  CG        28.7710   33.1130   15.0660 C.3    45  MET45       0.0598
     54  SD        27.1370   33.2120   14.2860 S.3    45  MET45      -0.1393
     55  CE        26.6450   34.7580   15.0610 C.3    45  MET45       0.0692
     56  N         26.3670   33.3000    7.0130 N.3    50  TYR50      -0.1241
     57  CA        24.9020   33.2920    7.0400 C.3    50  TYR50       0.1605
     58  C         24.2160   34.4850    6.3360 C.2    50  TYR50       0.2264
     59  O         24.7550   35.5900    6.2950 O.2    50  TYR50      -0.2867
     60  CB        24.4150   33.1800    8.4890 C.3    50  TYR50       0.0534
     61  CG        24.9130   34.2810    9.4080 C.ar   50  TYR50      -0.0201
     62  CD1       24.2400   35.4950    9.4950 C.ar   50  TYR50      -0.0009
     63  CD2       26.0470   34.1000   10.2010 C.ar   50  TYR50      -0.0009
     64  CE1       24.6870   36.5040   10.3280 C.ar   50  TYR50       0.0417
     65  CE2       26.5050   35.1050   11.0420 C.ar   50  TYR50       0.0417
     66  CZ        25.8150   36.3010   11.0940 C.ar   50  TYR50       0.1957
     67  OH        26.2410   37.3030   11.9160 O.3    50  TYR50      -0.2866
     68  N         18.7010   34.4560    8.6920 N.3    55  GLN55      -0.1245
     69  CA        20.0020   34.0350    9.2320 C.3    55  GLN55       0.1566
     70  C         20.1040   32.5440    9.5740 C.2    55  GLN55       0.2260
     71  O         21.1020   32.1000   10.1430 O.2    55  GLN55      -0.2867
     72  CB        20.3790   34.8980   10.4450 C.3    55  GLN55       0.0367
     73  CG        20.0020   36.3670   10.3090 C.3    55  GLN55       0.0905
     74  CD        20.5140   37.2150   11.4630 C.2    55  GLN55       0.2608
     75  OE1       20.3410   36.8640   12.6280 O.2    55  GLN55      -0.2717
     76  NE2       21.1420   38.3400   11.1410 N.am   55  GLN55      -0.0878
     77  N         22.7850   29.4870    5.2470 N.3    58  VAL58      -0.1245
     78  CA        24.2370   29.6220    5.0840 C.3    58  VAL58       0.1561
     79  C         24.6650   29.5280    3.6100 C.2    58  VAL58       0.2260
     80  O         24.0810   28.7750    2.8300 O.2    58  VAL58      -0.2867
     81  CB        24.9840   28.5710    5.9720 C.3    58  VAL58       0.0252
     82  CG1       26.4730   28.4840    5.6380 C.3    58  VAL58       0.0019
     83  CG2       24.7830   28.9010    7.4470 C.3    58  VAL58       0.0019
     84  N         30.3310   19.8140    2.5880 N.3    69  PHE69      -0.1241
     85  CA        28.8870   19.6200    2.4930 C.3    69  PHE69       0.1605
     86  C         28.4120   19.3090    1.0740 C.2    69  PHE69       0.2264
     87  O         27.3830   18.6550    0.8880 O.2    69  PHE69      -0.2867
     88  CB        28.1570   20.8350    3.0760 C.3    69  PHE69       0.0534
     89  CG        28.1140   20.8520    4.5890 C.ar   69  PHE69      -0.0203
     90  CD1       29.0330   20.1140    5.3450 C.ar   69  PHE69      -0.0042
     91  CD2       27.1570   21.6150    5.2610 C.ar   69  PHE69      -0.0042
     92  CE1       28.9940   20.1220    6.7410 C.ar   69  PHE69      -0.0003
     93  CE2       27.1050   21.6350    6.6620 C.ar   69  PHE69      -0.0003
     94  CZ        28.0250   20.8880    7.4030 C.ar   69  PHE69      -0.0000
     95  N         22.5360   25.9070    2.4510 N.3    74  PHE74      -0.1241
     96  CA        21.6860   25.0030    3.2290 C.3    74  PHE74       0.1605
     97  C         21.0520   25.7610    4.4120 C.2    74  PHE74       0.2264
     98  O         21.4840   26.8680    4.7520 O.2    74  PHE74      -0.2867
     99  CB        22.5010   23.8040    3.7280 C.3    74  PHE74       0.0534
    100  CG        23.6200   24.1800    4.6780 C.ar   74  PHE74      -0.0203
    101  CD1       23.4100   24.1900    6.0530 C.ar   74  PHE74      -0.0042
    102  CD2       24.8780   24.5280    4.1950 C.ar   74  PHE74      -0.0042
    103  CE1       24.4330   24.5400    6.9260 C.ar   74  PHE74      -0.0003
    104  CE2       25.9090   24.8850    5.0710 C.ar   74  PHE74      -0.0003
    105  CZ        25.6840   24.8950    6.4310 C.ar   74  PHE74      -0.0000
    106  N         20.3740   25.8440    8.5420 N.3    76  VAL76      -0.1231
    107  CA        20.8420   25.3050    9.8200 C.3    76  VAL76       0.1692
    108  C         19.7320   24.5890   10.6160 C.2    76  VAL76       0.2591
    109  O         20.0180   23.9590   11.6240 O.2    76  VAL76      -0.2718
    110  CB        21.4930   26.3810   10.7060 C.3    76  VAL76       0.0266
    111  CG1       22.5670   27.1600    9.9280 C.3    76  VAL76       0.0020
    112  CG2       20.4410   27.3130   11.2980 C.3    76  VAL76       0.0020
    113  N         18.4870   24.6980   10.1600 N.am   77  LYS77      -0.1980
    114  CA        17.3450   24.0230   10.7960 C.3    77  LYS77       0.1596
    115  C         17.2060   22.5670   10.3640 C.2    77  LYS77       0.2287
    116  O         16.4770   21.8130   10.9940 O.2    77  LYS77      -0.2864
    117  CB        16.0250   24.7440   10.4860 C.3    77  LYS77       0.0298
    118  CG        15.8930   26.1370   11.0590 C.3    77  LYS77       0.0038
    119  CD        15.9770   26.1410   12.5840 C.3    77  LYS77       0.0206
    120  CE        16.2840   27.5460   13.0760 C.3    77  LYS77       0.1093
    121  NZ        16.2600   27.6040   14.5600 N.3    77  LYS77      -0.1314
    122  N         18.5260   19.5070   10.6130 N.3    79  HIS79      -0.1241
    123  CA        19.5330   18.8790   11.4650 C.3    79  HIS79       0.1621
    124  C         20.0930   17.5480   10.9400 C.2    79  HIS79       0.2264
    125  O         21.3100   17.3380   10.9670 O.2    79  HIS79      -0.2867
    126  CB        19.0390   18.7330   12.9090 C.3    79  HIS79       0.0745
    127  CG        18.9730   20.0270   13.6570 C.ar   79  HIS79       0.0817
    128  ND1       18.4730   20.1210   14.9350 N.ar   79  HIS79      -0.2268
    129  CD2       19.3160   21.2890   13.2950 C.ar   79  HIS79       0.1154
    130  CE1       18.5360   21.3760   15.3420 C.ar   79  HIS79       0.1986
    131  NE2       19.0480   22.1050   14.3670 N.ar   79  HIS79      -0.2212
    132  N         22.6940   17.9940    8.2240 N.3    82  ILE82      -0.1231
    133  CA        24.0130   18.4340    8.7070 C.3    82  ILE82       0.1692
    134  C         24.8040   17.2690    9.3220 C.2    82  ILE82       0.2592
    135  O         25.9950   17.1180    9.0590 O.2    82  ILE82      -0.2718
    136  CB        23.8970   19.6170    9.7010 C.3    82  ILE82       0.0266
    137  CG1       23.3970   20.8750    8.9580 C.3    82  ILE82       0.0019
    138  CG2       25.2320   19.8520   10.4150 C.3    82  ILE82       0.0020
    139  CD1       22.7620   21.9560    9.8440 C.3    82  ILE82       0.0001
    140  N         24.1220   16.4620   10.1340 N.am   83  TYR83      -0.1976
    141  CA        24.6890   15.2640   10.7420 C.3    83  TYR83       0.1639
    142  C         25.2230   14.3040    9.6900 C.2    83  TYR83       0.2290
    143  O         26.3540   13.8210    9.7910 O.2    83  TYR83      -0.2864
    144  CB        23.6280   14.5600   11.5930 C.3    83  TYR83       0.0560
    145  CG        23.6910   14.9130   13.0520 C.ar   83  TYR83      -0.0198
    146  CD1       23.3800   16.2050   13.4990 C.ar   83  TYR83      -0.0009
    147  CD2       24.0630   13.9600   13.9980 C.ar   83  TYR83      -0.0009
    148  CE1       23.4390   16.5290   14.8500 C.ar   83  TYR83       0.0417
    149  CE2       24.1220   14.2760   15.3480 C.ar   83  TYR83       0.0417
    150  CZ        23.8090   15.5630   15.7650 C.ar   83  TYR83       0.1957
    151  OH        23.8740   15.8710   17.1030 O.3    83  TYR83      -0.2866
@<TRIPOS>BOND
     1    87    86    2
     2    86    85    1
     3    95    96    1
     4    85    84    1
     5    85    88    1
     6    80    79    2
     7    88    89    1
     8    96    99    1
     9    96    97    1
    10    79    78    1
    11    99   100    1
    12   102   100   ar
    13   102   104   ar
    14    97    98    2
    15    89    91   ar
    16    89    90   ar
    17   100   101   ar
    18   104   105   ar
    19    78    77    1
    20    78    81    1
    21    91    93   ar
    22    90    92   ar
    23    82    81    1
    24    81    83    1
    25   101   103   ar
    26    59    58    2
    27    58    57    1
    28   105   103   ar
    29    93    94   ar
    30    92    94   ar
    31    56    57    1
    32    57    60    1
    33   132   133    1
    34    60    61    1
    35   106   107    1
    36    68    69    1
    37   133   134    1
    38   133   136    1
    39   137   136    1
    40   137   139    1
    41   135   134    2
    42    69    70    1
    43    69    72    1
    44   134   140   am
    45    61    62   ar
    46    61    63   ar
    47    45    47    1
    48    45    44    1
    49    62    64   ar
    50    70    71    2
    51   142   143    2
    52   142   141    1
    53   136   138    1
    54   107   108    1
    55   107   110    1
    56    46    44    1
    57   111   110    1
    58    35    33    1
    59    43    42    2
    60   140   141    1
    61   113   108   am
    62   113   114    1
    63    63    65   ar
    64    41    44    1
    65    41    42    1
    66    41    40    1
    67    73    72    1
    68    73    74    1
    69    64    66   ar
    70   115   114    1
    71   115   116    2
    72   117   114    1
    73   117   118    1
    74   122   123    1
    75   108   109    2
    76   110   112    1
    77   141   144    1
    78    42    48   am
    79   124   125    2
    80   124   123    1
    81    65    66   ar
    82   118   119    1
    83    66    67    1
    84    76    74   am
    85    34    33    1
    86    33    32    1
    87    74    75    2
    88   123   126    1
    89   144   145    1
    90    31    30    2
    91    48    49    1
    92    32    29    1
    93    51    50    2
    94   119   120    1
    95    50    49    1
    96    29    30    1
    97    29    28    1
    98    49    52    1
    99   126   127    1
   100    30    36   am
   101   145   146   ar
   102   145   147   ar
   103   120   121    1
   104   129   127   ar
   105   129   131   ar
   106   146   148   ar
   107   127   128   ar
   108     8     6    1
   109    39    38    2
   110    36    37    1
   111   147   149   ar
   112    37    38    1
   113    16    14    1
   114    54    55    1
   115    54    53    1
   116    52    53    1
   117   131   130   ar
   118   148   150   ar
   119   128   130   ar
   120     6     5    1
   121   149   150   ar
   122    14    13    1
   123    14    15    1
   124    12    11    2
   125   150   151    1
   126    10     9    1
   127    10    11    1
   128    10    13    1
   129     7     5    1
   130    11    17   am
   131     5     2    1
   132     2     1    1
   133     2     3    1
   134    20    19    2
   135    19    18    1
   136    17    18    1
   137     3     4    2
   138    18    21    1
   139    21    22    1
   140    22    24   ar
   141    22    23   ar
   142    24    26   ar
   143    23    25   ar
   144    26    27   ar
   145    25    27   ar
