@<TRIPOS>MOLECULE
tmp/4oq5C00.pdb
 151 142 0 0 0
SMALL
GASTEIGER

@<TRIPOS>ATOM
      1  N        -15.7940   37.7500   22.8680 N.3    53  HIS53      -0.1241
      2  CA       -16.2410   36.3780   22.6850 C.3    53  HIS53       0.1621
      3  C        -15.8180   35.5040   23.8460 C.2    53  HIS53       0.2264
      4  O        -15.7540   34.2900   23.6700 O.2    53  HIS53      -0.2867
      5  CB       -15.6880   35.8150   21.3550 C.3    53  HIS53       0.0745
      6  CG       -16.1470   36.5810   20.1610 C.ar   53  HIS53       0.0817
      7  ND1      -17.2440   36.1790   19.4360 N.ar   53  HIS53      -0.2268
      8  CD2      -15.6810   37.7450   19.6510 C.ar   53  HIS53       0.1154
      9  CE1      -17.4180   37.1050   18.5100 C.ar   53  HIS53       0.1986
     10  NE2      -16.4960   38.0720   18.6010 N.ar   53  HIS53      -0.2212
     11  N        -15.9840   31.5070   23.5850 N.3    57  PHE57      -0.1241
     12  CA       -14.6680   30.8660   23.6480 C.3    57  PHE57       0.1605
     13  C        -14.5500   29.9410   24.8540 C.2    57  PHE57       0.2264
     14  O        -14.1650   28.7980   24.6710 O.2    57  PHE57      -0.2867
     15  CB       -13.5190   31.8970   23.5680 C.3    57  PHE57       0.0534
     16  CG       -13.2550   32.5290   22.2040 C.ar   57  PHE57      -0.0203
     17  CD1      -14.0770   32.2540   21.1110 C.ar   57  PHE57      -0.0042
     18  CD2      -12.1700   33.3890   22.0110 C.ar   57  PHE57      -0.0042
     19  CE1      -13.8080   32.8000   19.8550 C.ar   57  PHE57      -0.0003
     20  CE2      -11.9080   33.9430   20.7490 C.ar   57  PHE57      -0.0003
     21  CZ       -12.7360   33.6480   19.6860 C.ar   57  PHE57      -0.0000
     22  N        -16.8210   26.8260   24.2040 N.3    60  MET60      -0.1245
     23  CA       -16.1990   26.0050   23.1590 C.3    60  MET60       0.1570
     24  C        -14.9710   25.2900   23.6630 C.2    60  MET60       0.2261
     25  O        -14.7920   24.1200   23.3560 O.2    60  MET60      -0.2867
     26  CB       -15.8730   26.8410   21.9030 C.3    60  MET60       0.0387
     27  CG       -17.0790   27.4370   21.2500 C.3    60  MET60       0.0595
     28  SD       -16.7080   28.2800   19.7040 S.3    60  MET60      -0.1393
     29  CE       -16.1290   29.7870   20.2500 C.3    60  MET60       0.0692
     30  N        -16.0480   22.5110   25.9200 N.3    63  LYS63      -0.1231
     31  CA       -16.5730   21.4550   25.0540 C.3    63  LYS63       0.1693
     32  C        -15.4240   20.6270   24.5020 C.2    63  LYS63       0.2591
     33  O        -15.4480   19.4060   24.6350 O.2    63  LYS63      -0.2718
     34  CB       -17.4440   22.0660   23.9280 C.3    63  LYS63       0.0285
     35  CG       -17.7630   21.1530   22.7430 C.3    63  LYS63       0.0035
     36  CD       -18.7360   20.0830   23.1150 C.3    63  LYS63       0.0206
     37  CE       -18.7290   18.9650   22.1100 C.3    63  LYS63       0.1093
     38  NZ       -19.5870   17.8270   22.5620 N.3    63  LYS63      -0.1314
     39  N        -14.3840   21.2960   23.9640 N.am   64  LEU64      -0.1980
     40  CA       -13.2080   20.6450   23.3740 C.3    64  LEU64       0.1596
     41  C        -12.4750   19.7340   24.3540 C.2    64  LEU64       0.2287
     42  O        -11.9880   18.6660   23.9650 O.2    64  LEU64      -0.2864
     43  CB       -12.2550   21.6790   22.7500 C.3    64  LEU64       0.0297
     44  CG       -12.7610   22.3180   21.4610 C.3    64  LEU64       0.0022
     45  CD1      -11.9710   23.5680   21.1110 C.3    64  LEU64       0.0001
     46  CD2      -12.7960   21.3160   20.3170 C.3    64  LEU64       0.0001
     47  N         -7.6120   18.3450   17.1580 N.3    75  LEU75      -0.1245
     48  CA        -8.2580   19.5990   16.8620 C.3    75  LEU75       0.1561
     49  C         -8.2750   19.9010   15.3750 C.2    75  LEU75       0.2260
     50  O         -9.1780   20.6050   14.9140 O.2    75  LEU75      -0.2867
     51  CB        -7.4790   20.6950   17.6010 C.3    75  LEU75       0.0270
     52  CG        -8.0180   21.2960   18.9130 C.3    75  LEU75       0.0019
     53  CD1       -8.9580   20.3470   19.7030 C.3    75  LEU75       0.0001
     54  CD2       -6.8900   21.9030   19.7300 C.3    75  LEU75       0.0001
     55  N        -11.5150   19.2330   13.1560 N.3    78  VAL78      -0.1231
     56  CA       -12.5810   20.2100   13.4370 C.3    78  VAL78       0.1692
     57  C        -12.2320   21.5220   12.8240 C.2    78  VAL78       0.2591
     58  O        -13.0940   22.1370   12.2170 O.2    78  VAL78      -0.2718
     59  CB       -12.9500   20.4380   14.9170 C.3    78  VAL78       0.0266
     60  CG1      -14.4370   20.2300   15.1350 C.3    78  VAL78       0.0020
     61  CG2      -12.1070   19.5960   15.8600 C.3    78  VAL78       0.0020
     62  N        -10.9790   21.9640   13.0090 N.am   79  MET79      -0.1979
     63  CA       -10.4470   23.2190   12.4880 C.3    79  MET79       0.1605
     64  C        -10.6540   23.2930   10.9780 C.2    79  MET79       0.2287
     65  O        -11.2630   24.2650   10.5460 O.2    79  MET79      -0.2864
     66  CB        -8.9670   23.3230   12.8110 C.3    79  MET79       0.0413
     67  CG        -8.5510   24.6230   13.3770 C.3    79  MET79       0.0598
     68  SD        -6.7780   24.5240   13.7720 S.3    79  MET79      -0.1393
     69  CE        -6.8120   23.2030   15.0280 C.3    79  MET79       0.0692
     70  N        -14.6270   23.3580   10.0320 N.3    82  VAL82      -0.1231
     71  CA       -15.2700   24.5980   10.3850 C.3    82  VAL82       0.1692
     72  C        -14.6650   25.7670    9.6100 C.2    82  VAL82       0.2592
     73  O        -15.4160   26.6380    9.1510 O.2    82  VAL82      -0.2718
     74  CB       -15.2940   24.8130   11.9470 C.3    82  VAL82       0.0266
     75  CG1      -15.8270   26.1930   12.3510 C.3    82  VAL82       0.0020
     76  CG2      -16.0870   23.7110   12.6600 C.3    82  VAL82       0.0020
     77  N        -13.3400   25.8290    9.4870 N.am   83  PHE83      -0.1976
     78  CA       -12.6930   26.9890    8.8690 C.3    83  PHE83       0.1639
     79  C        -12.9170   27.0880    7.3880 C.2    83  PHE83       0.2290
     80  O        -13.2000   28.1660    6.8690 O.2    83  PHE83      -0.2864
     81  CB       -11.2190   27.0490    9.2180 C.3    83  PHE83       0.0560
     82  CG       -10.5520   28.2710    8.6700 C.ar   83  PHE83      -0.0200
     83  CD1      -10.8150   29.5270    9.2120 C.ar   83  PHE83      -0.0042
     84  CD2       -9.6740   28.1770    7.5930 C.ar   83  PHE83      -0.0042
     85  CE1      -10.1820   30.6640    8.7110 C.ar   83  PHE83      -0.0003
     86  CE2       -9.0350   29.3060    7.0990 C.ar   83  PHE83      -0.0003
     87  CZ        -9.2860   30.5460    7.6650 C.ar   83  PHE83      -0.0000
     88  N        -13.0490   36.4430    9.8280 N.3    92  ARG92      -0.1245
     89  CA       -12.9940   34.9880   10.0450 C.3    92  ARG92       0.1563
     90  C        -11.5580   34.5490   10.3080 C.2    92  ARG92       0.2260
     91  O        -11.3270   33.7580   11.2230 O.2    92  ARG92      -0.2867
     92  CB       -13.5520   34.2420    8.8330 C.3    92  ARG92       0.0307
     93  CG       -14.9130   33.6300    9.0890 C.3    92  ARG92       0.0489
     94  CD       -14.8760   32.1090    9.1420 C.3    92  ARG92       0.2205
     95  NE       -15.2800   31.5390    7.8520 N.pl3  92  ARG92      -0.0865
     96  CZ       -15.7470   30.3090    7.6720 C.cat  92  ARG92       0.5346
     97  NH1      -15.8770   29.4840    8.7000 N.pl3  92  ARG92       0.1354
     98  NH2      -16.0920   29.8960    6.4640 N.pl3  92  ARG92       0.1354
     99  N        -10.7320   35.6710   13.8580 N.3    95  THR95      -0.1203
    100  CA       -11.4370   34.7830   14.7930 C.3    95  THR95       0.1994
    101  C        -10.7380   33.4200   14.9370 C.2    95  THR95       0.2617
    102  O        -10.5590   32.9500   16.0730 O.2    95  THR95      -0.2717
    103  CB       -12.9010   34.6590   14.4310 C.3    95  THR95       0.1784
    104  OG1      -13.3690   35.9590   14.1100 O.3    95  THR95      -0.2211
    105  CG2      -13.7300   34.0870   15.5750 C.3    95  THR95       0.0376
    106  N        -10.2950   32.8200   13.7920 N.am   96  LEU96      -0.1979
    107  CA        -9.5380   31.5510   13.7810 C.3    96  LEU96       0.1596
    108  C         -8.2520   31.6800   14.6570 C.2    96  LEU96       0.2287
    109  O         -8.0040   30.8260   15.5060 O.2    96  LEU96      -0.2864
    110  CB        -9.1760   31.1300   12.3350 C.3    96  LEU96       0.0297
    111  CG        -8.0960   30.0310   12.1770 C.3    96  LEU96       0.0022
    112  CD1       -8.7140   28.6120   12.2340 C.3    96  LEU96       0.0001
    113  CD2       -7.2410   30.2640   10.9210 C.3    96  LEU96       0.0001
    114  N         -9.1340   32.5210   18.4940 N.3    99  PHE99      -0.1227
    115  CA        -9.5330   31.3140   19.2220 C.3    99  PHE99       0.1736
    116  C         -8.3190   30.4500   19.5370 C.2    99  PHE99       0.2596
    117  O         -8.2180   29.9020   20.6450 O.2    99  PHE99      -0.2718
    118  CB       -10.6620   30.5030   18.5460 C.3    99  PHE99       0.0547
    119  CG       -11.1670   29.3780   19.4290 C.ar   99  PHE99      -0.0202
    120  CD1      -11.6330   29.6360   20.7230 C.ar   99  PHE99      -0.0042
    121  CD2      -11.1280   28.0600   18.9950 C.ar   99  PHE99      -0.0042
    122  CE1      -12.0780   28.5920   21.5550 C.ar   99  PHE99      -0.0003
    123  CE2      -11.5950   27.0240   19.8170 C.ar   99  PHE99      -0.0003
    124  CZ       -12.0630   27.2990   21.0930 C.ar   99  PHE99      -0.0000
    125  N         -7.3960   30.3890   18.5740 N.am  100  GLY100     -0.1957
    126  CA        -6.1350   29.6750   18.7230 C.3   100  GLY100      0.1869
    127  C         -5.3390   30.2510   19.8760 C.2   100  GLY100      0.2309
    128  O         -4.8150   29.5090   20.6930 O.2   100  GLY100     -0.2863
    129  N         -7.0050   29.0860   23.1060 N.3   103  VAL103     -0.1245
    130  CA        -6.6230   27.6990   23.3650 C.3   103  VAL103      0.1561
    131  C         -5.1730   27.6680   23.8550 C.2   103  VAL103      0.2260
    132  O         -4.8760   26.9510   24.8070 O.2   103  VAL103     -0.2867
    133  CB        -6.8380   26.8200   22.1200 C.3   103  VAL103      0.0252
    134  CG1       -6.2690   25.4230   22.3090 C.3   103  VAL103      0.0019
    135  CG2       -8.3120   26.7420   21.7480 C.3   103  VAL103      0.0019
    136  N          0.2950   23.7980   17.8120 N.3   119  LEU119     -0.1245
    137  CA        -1.0270   24.4010   17.5880 C.3   119  LEU119      0.1561
    138  C         -0.9240   25.5270   16.5500 C.2   119  LEU119      0.2260
    139  O         -1.7290   25.5680   15.6110 O.2   119  LEU119     -0.2867
    140  CB        -1.6280   24.9300   18.8970 C.3   119  LEU119      0.0270
    141  CG        -3.0290   25.5470   18.8060 C.3   119  LEU119      0.0019
    142  CD1       -4.0580   24.5370   18.3810 C.3   119  LEU119      0.0001
    143  CD2       -3.4080   26.2030   20.1050 C.3   119  LEU119      0.0001
    144  N         -2.8330   25.7600   12.9970 N.3   123  ILE123     -0.1245
    145  CA        -3.5870   26.9350   12.5520 C.3   123  ILE123      0.1561
    146  C         -3.0560   27.4510   11.2230 C.2   123  ILE123      0.2260
    147  O         -3.8610   27.6330   10.3180 O.2   123  ILE123     -0.2867
    148  CB        -3.6830   28.0440   13.6500 C.3   123  ILE123      0.0252
    149  CG1       -4.5340   27.5530   14.8310 C.3   123  ILE123      0.0019
    150  CG2       -4.2260   29.3830   13.0950 C.3   123  ILE123      0.0019
    151  CD1       -4.1110   28.1190   16.1110 C.3   123  ILE123      0.0001
@<TRIPOS>BOND
     1    98    96    1
     2    80    79    2
     3    86    84   ar
     4    86    87   ar
     5    79    78    1
     6    84    82   ar
     7    87    85   ar
     8    96    95    2
     9    96    97    1
    10    95    94    1
    11    82    83   ar
    12    82    81    1
    13    85    83   ar
    14    92    93    1
    15    92    89    1
    16    78    81    1
    17    78    77    1
    18    93    94    1
    19    73    72    2
    20    77    72   am
    21    72    71    1
    22    88    89    1
    23    70    71    1
    24    89    90    1
    25    90    91    2
    26   147   146    2
    27    71    74    1
    28    65    64    2
    29   113   111    1
    30    64    63    1
    31   146   145    1
    32    74    75    1
    33    74    76    1
    34   111   112    1
    35   111   110    1
    36    58    57    2
    37   110   107    1
    38    63    66    1
    39    63    62    1
    40   145   144    1
    41   145   148    1
    42    66    67    1
    43    57    62   am
    44    57    56    1
    45   150   148    1
    46    55    56    1
    47    67    68    1
    48    56    59    1
    49   148   149    1
    50    68    69    1
    51   107   106    1
    52   107   108    1
    53   106   101   am
    54    99   100    1
    55   104   103    1
    56   103   100    1
    57   103   105    1
    58   108   109    2
    59   100   101    1
    60   149   151    1
    61    50    49    2
    62    59    60    1
    63    59    61    1
    64   101   102    2
    65    49    48    1
    66   139   138    2
    67   138   137    1
    68    48    47    1
    69    48    51    1
    70   137   136    1
    71   137   140    1
    72    51    52    1
    73   142   141    1
    74   114   115    1
    75     9    10   ar
    76     9     7   ar
    77   118   115    1
    78   118   119    1
    79   125   126    1
    80   125   116   am
    81    10     8   ar
    82   126   127    1
    83   141   140    1
    84   141   143    1
    85    52    53    1
    86    52    54    1
    87   121   119   ar
    88   121   123   ar
    89   115   116    1
    90   119   120   ar
    91     7     6   ar
    92   116   117    2
    93     8     6   ar
    94    21    19   ar
    95    21    20   ar
    96    28    29    1
    97    28    27    1
    98   123   124   ar
    99    19    17   ar
   100   127   128    2
   101     6     5    1
   102    46    44    1
   103   120   122   ar
   104    20    18   ar
   105   124   122   ar
   106    17    16   ar
   107    45    44    1
   108    27    26    1
   109     5     2    1
   110    44    43    1
   111   135   133    1
   112    26    23    1
   113    18    16   ar
   114    37    38    1
   115    37    36    1
   116   133   134    1
   117   133   130    1
   118    16    15    1
   119     2     1    1
   120     2     3    1
   121    35    36    1
   122    35    34    1
   123    43    40    1
   124   129   130    1
   125    23    24    1
   126    23    22    1
   127    25    24    2
   128   130   131    1
   129    40    39    1
   130    40    41    1
   131    15    12    1
   132    11    12    1
   133    12    13    1
   134     4     3    2
   135   131   132    2
   136    34    31    1
   137    39    32   am
   138    42    41    2
   139    32    33    2
   140    32    31    1
   141    14    13    2
   142    31    30    1
