@<TRIPOS>MOLECULE
tmp/4oq6B00.pdb
 105 99 0 0 0
SMALL
GASTEIGER

@<TRIPOS>ATOM
      1  N         12.9950   21.0480   11.8600 N.3    48  PHE48      -0.1241
      2  CA        14.2650   21.4530   11.2220 C.3    48  PHE48       0.1605
      3  C         15.3990   21.6390   12.2530 C.2    48  PHE48       0.2264
      4  O         16.5750   21.3270   11.9880 O.2    48  PHE48      -0.2867
      5  CB        14.0480   22.8030   10.5130 C.3    48  PHE48       0.0534
      6  CG        13.2870   22.7280    9.1900 C.ar   48  PHE48      -0.0203
      7  CD1       12.8920   21.5220    8.6270 C.ar   48  PHE48      -0.0042
      8  CD2       12.9950   23.9140    8.5030 C.ar   48  PHE48      -0.0042
      9  CE1       12.2800   21.5070    7.3590 C.ar   48  PHE48      -0.0003
     10  CE2       12.2850   23.9160    7.2700 C.ar   48  PHE48      -0.0003
     11  CZ        11.9550   22.7110    6.7060 C.ar   48  PHE48      -0.0000
     12  N         16.6900   18.2460   13.2550 N.3    51  MET51      -0.1245
     13  CA        17.4720   17.6190   12.1810 C.3    51  MET51       0.1570
     14  C         18.8630   18.2650   12.1320 C.2    51  MET51       0.2261
     15  O         19.8960   17.5880   12.1170 O.2    51  MET51      -0.2867
     16  CB        16.7500   17.8150   10.8470 C.3    51  MET51       0.0387
     17  CG        15.4020   17.0620   10.7930 C.3    51  MET51       0.0595
     18  SD        14.3300   17.5980    9.4400 S.3    51  MET51      -0.1393
     19  CE        15.2470   16.8760    8.1740 C.3    51  MET51       0.0692
     20  N         22.6510   16.5560   12.4930 N.3    55  LEU55      -0.1245
     21  CA        23.5270   16.5580   11.3350 C.3    55  LEU55       0.1561
     22  C         24.8770   17.2400   11.5530 C.2    55  LEU55       0.2260
     23  O         25.8760   16.8820   10.9100 O.2    55  LEU55      -0.2867
     24  CB        22.8200   17.1570   10.1090 C.3    55  LEU55       0.0270
     25  CG        21.5830   16.3570    9.6420 C.3    55  LEU55       0.0019
     26  CD1       20.7840   17.2040    8.6340 C.3    55  LEU55       0.0001
     27  CD2       21.9610   14.9910    9.0340 C.3    55  LEU55       0.0001
     28  N         25.8950   15.9930    3.2020 N.3    66  LEU66      -0.1245
     29  CA        24.4420   16.0160    3.3790 C.3    66  LEU66       0.1561
     30  C         23.6950   15.9690    2.0540 C.2    66  LEU66       0.2260
     31  O         22.6960   15.2610    1.9280 O.2    66  LEU66      -0.2867
     32  CB        24.0640   17.2480    4.1870 C.3    66  LEU66       0.0270
     33  CG        22.5790   17.6010    4.2900 C.3    66  LEU66       0.0019
     34  CD1       21.7590   16.4860    4.9410 C.3    66  LEU66       0.0001
     35  CD2       22.4350   18.9200    5.0270 C.3    66  LEU66       0.0001
     36  N         23.0200   12.3950    0.5950 N.3    69  VAL69      -0.1231
     37  CA        21.9110   11.7130    1.2890 C.3    69  VAL69       0.1692
     38  C         20.5550   12.3250    0.8790 C.2    69  VAL69       0.2591
     39  O         19.5960   11.6210    0.5930 O.2    69  VAL69      -0.2718
     40  CB        22.0670   11.7570    2.8020 C.3    69  VAL69       0.0266
     41  CG1       20.8430   11.0790    3.4580 C.3    69  VAL69       0.0020
     42  CG2       23.3970   11.0830    3.2370 C.3    69  VAL69       0.0020
     43  N         20.4780   13.6450    0.8580 N.am   70  MET70      -0.1979
     44  CA        19.2280   14.3250    0.4590 C.3    70  MET70       0.1605
     45  C         18.7350   13.9590   -0.9290 C.2    70  MET70       0.2287
     46  O         17.5270   13.8590   -1.1860 O.2    70  MET70      -0.2864
     47  CB        19.4100   15.8600    0.5600 C.3    70  MET70       0.0413
     48  CG        19.5370   16.3450    1.9880 C.3    70  MET70       0.0598
     49  SD        19.7230   18.1630    2.0260 S.3    70  MET70      -0.1393
     50  CE        18.0460   18.6370    1.7340 C.3    70  MET70       0.0692
     51  N         16.7570   10.7580   -0.5730 N.3    73  VAL73      -0.1231
     52  CA        15.4990   10.9550    0.1150 C.3    73  VAL73       0.1692
     53  C         14.5140   11.7240   -0.7520 C.2    73  VAL73       0.2592
     54  O         13.3280   11.3890   -0.8400 O.2    73  VAL73      -0.2718
     55  CB        15.7470   11.7020    1.4570 C.3    73  VAL73       0.0266
     56  CG1       14.4150   12.1030    2.0950 C.3    73  VAL73       0.0020
     57  CG2       16.5850   10.8280    2.3980 C.3    73  VAL73       0.0020
     58  N         14.9890   12.7940   -1.3770 N.am   74  PHE74      -0.1976
     59  CA        14.0690   13.6360   -2.1410 C.3    74  PHE74       0.1639
     60  C         13.5250   12.8940   -3.3470 C.2    74  PHE74       0.2290
     61  O         12.4350   13.1730   -3.8020 O.2    74  PHE74      -0.2864
     62  CB        14.7930   14.8920   -2.6320 C.3    74  PHE74       0.0560
     63  CG        13.8610   16.0190   -2.9930 C.ar   74  PHE74      -0.0200
     64  CD1       12.9820   16.5240   -2.0500 C.ar   74  PHE74      -0.0042
     65  CD2       13.8320   16.5170   -4.2840 C.ar   74  PHE74      -0.0042
     66  CE1       12.1230   17.5780   -2.3680 C.ar   74  PHE74      -0.0003
     67  CE2       12.9190   17.5240   -4.6350 C.ar   74  PHE74      -0.0003
     68  CZ        12.0810   18.0600   -3.6690 C.ar   74  PHE74      -0.0000
     69  N          6.2630   20.4240   -1.5510 N.3    83  ARG83      -0.1245
     70  CA         7.4260   19.6640   -1.0470 C.3    83  ARG83       0.1563
     71  C          8.6930   20.3600   -1.5420 C.2    83  ARG83       0.2260
     72  O          9.7000   20.4130   -0.8490 O.2    83  ARG83      -0.2867
     73  CB         7.4450   18.2470   -1.5960 C.3    83  ARG83       0.0307
     74  CG         8.0500   17.2630   -0.5420 C.3    83  ARG83       0.0489
     75  CD         9.3530   16.4830   -0.8770 C.3    83  ARG83       0.2205
     76  NE         9.0690   15.2340   -1.5410 N.pl3  83  ARG83      -0.0865
     77  CZ         9.6540   14.0200   -1.4710 C.cat  83  ARG83       0.5346
     78  NH1       10.6400   13.5850   -0.6630 N.pl3  83  ARG83       0.1354
     79  NH2        9.1510   13.1490   -2.2910 N.pl3  83  ARG83       0.1354
     80  N          9.3610   23.0900    0.6800 N.3    86  THR86      -0.1203
     81  CA         9.8680   22.5710    1.9330 C.3    86  THR86       0.1994
     82  C         11.3640   22.2890    1.8230 C.2    86  THR86       0.2617
     83  O         12.1030   22.5560    2.7470 O.2    86  THR86      -0.2717
     84  CB         9.0920   21.3130    2.3540 C.3    86  THR86       0.1784
     85  OG1        7.7060   21.6570    2.4050 O.3    86  THR86      -0.2211
     86  CG2        9.5760   20.8790    3.7700 C.3    86  THR86       0.0376
     87  N         11.8100   21.7420    0.6850 N.am   87  LEU87      -0.1979
     88  CA        13.2280   21.4920    0.4960 C.3    87  LEU87       0.1596
     89  C         14.0050   22.8400    0.5410 C.2    87  LEU87       0.2287
     90  O         15.0440   22.9410    1.1960 O.2    87  LEU87      -0.2864
     91  CB        13.4490   20.8070   -0.8620 C.3    87  LEU87       0.0297
     92  CG        14.9330   20.6720   -1.2760 C.3    87  LEU87       0.0022
     93  CD1       15.6040   19.6200   -0.3740 C.3    87  LEU87       0.0001
     94  CD2       15.0070   20.2860   -2.7840 C.3    87  LEU87       0.0001
     95  N         14.1670   24.2480    4.0420 N.3    90  PHE90      -0.1241
     96  CA        15.1910   23.6280    4.8740 C.3    90  PHE90       0.1605
     97  C         16.5590   24.2380    4.4690 C.2    90  PHE90       0.2264
     98  O         17.4240   24.5130    5.3190 O.2    90  PHE90      -0.2867
     99  CB        15.2700   22.1150    4.6470 C.3    90  PHE90       0.0534
    100  CG        16.3210   21.4340    5.4810 C.ar   90  PHE90      -0.0203
    101  CD1       16.1940   21.3690    6.8630 C.ar   90  PHE90      -0.0042
    102  CD2       17.4080   20.8040    4.8810 C.ar   90  PHE90      -0.0042
    103  CE1       17.1680   20.7210    7.6380 C.ar   90  PHE90      -0.0003
    104  CE2       18.3780   20.1690    5.6520 C.ar   90  PHE90      -0.0003
    105  CZ        18.2420   20.0990    7.0120 C.ar   90  PHE90      -0.0000
@<TRIPOS>BOND
     1    67    65   ar
     2    67    68   ar
     3    65    63   ar
     4    61    60    2
     5    68    66   ar
     6    60    59    1
     7    63    62    1
     8    63    64   ar
     9    94    92    1
    10    62    59    1
    11    66    64   ar
    12    79    77    1
    13    59    58    1
    14    73    70    1
    15    73    74    1
    16    69    70    1
    17    71    70    1
    18    71    72    2
    19    76    77    2
    20    76    75    1
    21    77    78    1
    22    58    53   am
    23    92    91    1
    24    92    93    1
    25    46    45    2
    26    45    44    1
    27    75    74    1
    28    91    88    1
    29    54    53    2
    30    53    52    1
    31    51    52    1
    32    52    55    1
    33    44    47    1
    34    44    43    1
    35    88    89    1
    36    88    87    1
    37    89    90    2
    38    47    48    1
    39    39    38    2
    40    36    37    1
    41    80    81    1
    42    87    82   am
    43    43    38   am
    44    38    37    1
    45    37    40    1
    46    55    56    1
    47    55    57    1
    48    50    49    1
    49    82    81    1
    50    82    83    2
    51    31    30    2
    52    81    84    1
    53    48    49    1
    54    30    29    1
    55    84    85    1
    56    84    86    1
    57    40    42    1
    58    40    41    1
    59    28    29    1
    60    29    32    1
    61    95    96    1
    62    32    33    1
    63    33    34    1
    64    33    35    1
    65    97    96    1
    66    97    98    2
    67    99    96    1
    68    99   100    1
    69   102   100   ar
    70   102   104   ar
    71   100   101   ar
    72   104   105   ar
    73    11    10   ar
    74    11     9   ar
    75   101   103   ar
    76   105   103   ar
    77    10     8   ar
    78     9     7   ar
    79    19    18    1
    80     8     6   ar
    81     7     6   ar
    82    26    25    1
    83    27    25    1
    84     6     5    1
    85    18    17    1
    86    25    24    1
    87    24    21    1
    88     5     2    1
    89    17    16    1
    90    16    13    1
    91    23    22    2
    92     2     1    1
    93     2     3    1
    94    21    22    1
    95    21    20    1
    96     4     3    2
    97    15    14    2
    98    14    13    1
    99    13    12    1
