@<TRIPOS>MOLECULE
tmp/4oqaB00.pdb
 142 138 0 0 0
SMALL
GASTEIGER

@<TRIPOS>ATOM
      1  N        -16.7990   35.5420  -20.0920 N.3   204  GLN204     -0.1245
      2  CA       -16.3000   35.2090  -21.4290 C.3   204  GLN204      0.1566
      3  C        -15.3740   36.3010  -21.9650 C.2   204  GLN204      0.2260
      4  O        -14.3730   36.0050  -22.6210 O.2   204  GLN204     -0.2867
      5  CB       -17.4650   34.9910  -22.4000 C.3   204  GLN204      0.0367
      6  CG       -17.0470   34.5220  -23.7880 C.3   204  GLN204      0.0905
      7  CD       -18.2160   34.3860  -24.7460 C.2   204  GLN204      0.2608
      8  OE1      -19.3760   34.5510  -24.3640 O.2   204  GLN204     -0.2717
      9  NE2      -17.9150   34.0830  -26.0050 N.am  204  GLN204     -0.0878
     10  N        -12.2950   35.9480  -20.0260 N.3   207  VAL207     -0.1231
     11  CA       -11.6580   34.7070  -20.4680 C.3   207  VAL207      0.1692
     12  C        -10.8880   34.9420  -21.7660 C.2   207  VAL207      0.2591
     13  O         -9.7690   34.4520  -21.9290 O.2   207  VAL207     -0.2718
     14  CB       -12.6950   33.6110  -20.6590 C.3   207  VAL207      0.0266
     15  CG1      -12.0610   32.3070  -21.1300 C.3   207  VAL207      0.0020
     16  CG2      -13.3850   33.3520  -19.3170 C.3   207  VAL207      0.0020
     17  N        -11.4980   35.6940  -22.6800 N.am  208  GLU208     -0.1979
     18  CA       -10.8620   36.0710  -23.9440 C.3   208  GLU208      0.1602
     19  C         -9.6260   36.9400  -23.7010 C.2   208  GLU208      0.2287
     20  O         -8.6150   36.7950  -24.3890 O.2   208  GLU208     -0.2864
     21  CB       -11.8580   36.8200  -24.8370 C.3   208  GLU208      0.0415
     22  CG       -11.3800   37.0450  -26.2650 C.3   208  GLU208      0.1163
     23  CD       -12.3650   37.8390  -27.1080 C.2   208  GLU208      0.3649
     24  OE1      -12.0220   38.1730  -28.2610 O.co2 208  GLU208     -0.2457
     25  OE2      -13.4800   38.1340  -26.6270 O.co2 208  GLU208     -0.2457
     26  N         -6.7260   34.7510  -22.6910 N.3   211  ASP211     -0.1239
     27  CA        -6.2570   34.0400  -23.8850 C.3   211  ASP211      0.1674
     28  C         -5.3590   34.9300  -24.7440 C.2   211  ASP211      0.2266
     29  O         -4.3010   34.4930  -25.1990 O.2   211  ASP211     -0.2867
     30  CB        -7.4390   33.5380  -24.7260 C.3   211  ASP211      0.1410
     31  CG        -8.2150   32.4200  -24.0470 C.2   211  ASP211      0.3668
     32  OD1       -9.4630   32.4470  -24.1000 O.co2 211  ASP211     -0.2456
     33  OD2       -7.5830   31.5100  -23.4680 O.co2 211  ASP211     -0.2456
     34  N        -10.5570   28.9120  -40.1900 N.3   307  HIS307     -0.1226
     35  CA       -10.3900   29.1780  -38.7620 C.3   307  HIS307      0.1752
     36  C         -9.7170   30.5310  -38.5500 C.2   307  HIS307      0.2596
     37  O         -8.5410   30.7010  -38.8690 O.2   307  HIS307     -0.2718
     38  CB        -9.5670   28.0760  -38.0950 C.3   307  HIS307      0.0759
     39  CG        -9.2530   28.3480  -36.6570 C.ar  307  HIS307      0.0818
     40  ND1      -10.2200   28.3710  -35.6750 N.ar  307  HIS307     -0.2268
     41  CD2       -8.0790   28.6100  -36.0350 C.ar  307  HIS307      0.1154
     42  CE1       -9.6540   28.6330  -34.5100 C.ar  307  HIS307      0.1986
     43  NE2       -8.3570   28.7840  -34.7010 N.ar  307  HIS307     -0.2212
     44  N        -10.4690   31.4860  -38.0100 N.am  308  GLY308     -0.1957
     45  CA        -9.9620   32.8340  -37.7790 C.3   308  GLY308      0.1869
     46  C         -9.6130   33.0940  -36.3280 C.2   308  GLY308      0.2309
     47  O        -10.1690   32.4750  -35.4200 O.2   308  GLY308     -0.2863
     48  N        -17.4990   28.7650  -20.9600 N.3   332  THR332     -0.1203
     49  CA       -18.3830   29.7930  -21.5060 C.3   332  THR332      0.1994
     50  C        -17.8540   30.3250  -22.8360 C.2   332  THR332      0.2618
     51  O        -16.6460   30.5090  -23.0000 O.2   332  THR332     -0.2717
     52  CB       -18.5300   30.9830  -20.5380 C.3   332  THR332      0.1784
     53  OG1      -18.3880   30.5310  -19.1870 O.3   332  THR332     -0.2211
     54  CG2      -19.8830   31.6590  -20.7150 C.3   332  THR332      0.0376
     55  N        -18.7640   30.5700  -23.7760 N.am  333  GLY333     -0.1942
     56  CA       -18.4000   31.0060  -25.1240 C.3   333  GLY333      0.2014
     57  C        -18.3730   29.8470  -26.1020 C.2   333  GLY333      0.2639
     58  O        -18.8680   29.9630  -27.2240 O.2   333  GLY333     -0.2714
     59  N        -17.7880   28.7300  -25.6730 N.am  334  TYR334     -0.1959
     60  CA       -17.7510   27.5110  -26.4760 C.3   334  TYR334      0.1771
     61  C        -19.1440   26.9040  -26.5840 C.2   334  TYR334      0.2619
     62  O        -19.9020   26.8970  -25.6140 O.2   334  TYR334     -0.2715
     63  CB       -16.7880   26.4890  -25.8630 C.3   334  TYR334      0.0574
     64  CG       -15.3510   26.9560  -25.8260 C.ar  334  TYR334     -0.0198
     65  CD1      -14.7600   27.3760  -24.6360 C.ar  334  TYR334     -0.0009
     66  CD2      -14.5840   26.9860  -26.9840 C.ar  334  TYR334     -0.0009
     67  CE1      -13.4440   27.8090  -24.6050 C.ar  334  TYR334      0.0417
     68  CE2      -13.2690   27.4170  -26.9640 C.ar  334  TYR334      0.0417
     69  CZ       -12.7040   27.8280  -25.7740 C.ar  334  TYR334      0.1957
     70  OH       -11.3990   28.2590  -25.7580 O.3   334  TYR334     -0.2866
     71  N        -19.4740   26.3960  -27.7680 N.am  335  MET335     -0.1977
     72  CA       -20.7850   25.8020  -28.0150 C.3   335  MET335      0.1605
     73  C        -20.7990   24.3390  -27.5760 C.2   335  MET335      0.2287
     74  O        -21.7470   23.8910  -26.9290 O.2   335  MET335     -0.2864
     75  CB       -21.1520   25.9060  -29.5010 C.3   335  MET335      0.0413
     76  CG       -22.6470   26.0100  -29.7730 C.3   335  MET335      0.0598
     77  SD       -23.2160   27.6990  -30.0690 S.3   335  MET335     -0.1393
     78  CE       -22.6130   28.5570  -28.6160 C.3   335  MET335      0.0692
     79  N        -12.1150   24.8490  -33.0340 N.3   341  TYR341     -0.1227
     80  CA       -13.3290   25.0870  -33.8170 C.3   341  TYR341      0.1736
     81  C        -12.9970   25.5130  -35.2450 C.2   341  TYR341      0.2595
     82  O        -12.0250   26.2340  -35.4790 O.2   341  TYR341     -0.2718
     83  CB       -14.2080   26.1410  -33.1390 C.3   341  TYR341      0.0548
     84  CG       -14.9780   25.6020  -31.9560 C.ar  341  TYR341     -0.0200
     85  CD1      -14.3420   25.3500  -30.7450 C.ar  341  TYR341     -0.0009
     86  CD2      -16.3410   25.3350  -32.0500 C.ar  341  TYR341     -0.0009
     87  CE1      -15.0400   24.8490  -29.6600 C.ar  341  TYR341      0.0417
     88  CE2      -17.0490   24.8370  -30.9690 C.ar  341  TYR341      0.0417
     89  CZ       -16.3950   24.5960  -29.7770 C.ar  341  TYR341      0.1957
     90  OH       -17.0960   24.1010  -28.7030 O.3   341  TYR341     -0.2866
     91  N        -13.8140   25.0530  -36.1900 N.am  342  PHE342     -0.1962
     92  CA       -13.6400   25.3580  -37.6090 C.3   342  PHE342      0.1771
     93  C        -14.9840   25.6630  -38.2600 C.2   342  PHE342      0.2619
     94  O        -16.0300   25.2320  -37.7730 O.2   342  PHE342     -0.2715
     95  CB       -12.9890   24.1750  -38.3290 C.3   342  PHE342      0.0574
     96  CG       -11.5440   23.9730  -37.9830 C.ar  342  PHE342     -0.0200
     97  CD1      -11.1770   23.1360  -36.9380 C.ar  342  PHE342     -0.0042
     98  CD2      -10.5490   24.6150  -38.7050 C.ar  342  PHE342     -0.0042
     99  CE1       -9.8450   22.9460  -36.6200 C.ar  342  PHE342     -0.0003
    100  CE2       -9.2150   24.4320  -38.3900 C.ar  342  PHE342     -0.0003
    101  CZ        -8.8630   23.5970  -37.3460 C.ar  342  PHE342     -0.0000
    102  N        -14.9440   26.4110  -39.3610 N.am  343  ALA343     -0.1977
    103  CA       -16.1410   26.7110  -40.1470 C.3   343  ALA343      0.1597
    104  C        -15.8910   26.4680  -41.6280 C.2   343  ALA343      0.2287
    105  O        -14.7580   26.5590  -42.1020 O.2   343  ALA343     -0.2864
    106  CB       -16.5790   28.1480  -39.9250 C.3   343  ALA343      0.0319
    107  N        -17.8020   33.6710  -41.2960 N.3   348  LYS348     -0.1231
    108  CA       -17.9970   33.2690  -39.9010 C.3   348  LYS348      0.1693
    109  C        -16.6700   33.2070  -39.1480 C.2   348  LYS348      0.2592
    110  O        -16.5750   33.6610  -38.0070 O.2   348  LYS348     -0.2718
    111  CB       -18.7060   31.9130  -39.8280 C.3   348  LYS348      0.0285
    112  CG       -19.0310   31.4550  -38.4150 C.3   348  LYS348      0.0035
    113  CD       -20.0360   30.3170  -38.4180 C.3   348  LYS348      0.0206
    114  CE       -20.2470   29.7580  -37.0210 C.3   348  LYS348      0.1093
    115  NZ       -21.3060   28.7120  -36.9910 N.3   348  LYS348     -0.1314
    116  N        -15.6530   32.6430  -39.7950 N.am  349  SER349     -0.1952
    117  CA       -14.3020   32.6040  -39.2370 C.3   349  SER349      0.1924
    118  C        -13.6510   33.9910  -39.2240 C.2   349  SER349      0.2314
    119  O        -12.9350   34.3320  -38.2830 O.2   349  SER349     -0.2863
    120  CB       -13.4260   31.6220  -40.0230 C.3   349  SER349      0.2116
    121  OG       -13.7990   30.2800  -39.7700 O.3   349  SER349     -0.2180
    122  N        -13.5770   36.5000  -36.1920 N.3   352  TYR352     -0.1241
    123  CA       -12.6470   36.2760  -35.0830 C.3   352  TYR352      0.1605
    124  C        -11.2930   36.9630  -35.2830 C.2   352  TYR352      0.2264
    125  O        -10.4590   36.9630  -34.3760 O.2   352  TYR352     -0.2867
    126  CB       -12.4560   34.7740  -34.8510 C.3   352  TYR352      0.0534
    127  CG       -13.7170   34.0880  -34.3740 C.ar  352  TYR352     -0.0201
    128  CD1      -13.9550   33.8920  -33.0170 C.ar  352  TYR352     -0.0009
    129  CD2      -14.6820   33.6510  -35.2780 C.ar  352  TYR352     -0.0009
    130  CE1      -15.1120   33.2710  -32.5750 C.ar  352  TYR352      0.0417
    131  CE2      -15.8420   33.0290  -34.8450 C.ar  352  TYR352      0.0417
    132  CZ       -16.0530   32.8410  -33.4930 C.ar  352  TYR352      0.1957
    133  OH       -17.2020   32.2220  -33.0580 O.3   352  TYR352     -0.2866
    134  N        -20.4260   24.3160  -37.7090 N.3   433  GLU433     -0.1245
    135  CA       -19.2240   24.3480  -36.8790 C.3   433  GLU433      0.1567
    136  C        -18.5940   22.9610  -36.8520 C.2   433  GLU433      0.2260
    137  O        -19.2940   21.9630  -36.6720 O.2   433  GLU433     -0.2867
    138  CB       -19.5590   24.7830  -35.4530 C.3   433  GLU433      0.0388
    139  CG       -20.1210   26.1910  -35.3490 C.3   433  GLU433      0.1160
    140  CD       -20.2420   26.6790  -33.9160 C.2   433  GLU433      0.3649
    141  OE1      -20.2500   25.8400  -32.9880 O.co2 433  GLU433     -0.2457
    142  OE2      -20.3330   27.9090  -33.7160 O.co2 433  GLU433     -0.2457
@<TRIPOS>BOND
     1   105   104    2
     2   104   103    1
     3   107   108    1
     4    34    35    1
     5   103   106    1
     6   103   102    1
     7   120   121    1
     8   120   117    1
     9   108   111    1
    10   108   109    1
    11   111   112    1
    12   116   117    1
    13   116   109   am
    14   102    93   am
    15   117   118    1
    16   118   119    2
    17   109   110    2
    18    37    36    2
    19    35    36    1
    20    35    38    1
    21    98   100   ar
    22    98    96   ar
    23    36    44   am
    24   113   112    1
    25   113   114    1
    26   100   101   ar
    27    95    96    1
    28    95    92    1
    29    93    94    2
    30    93    92    1
    31    38    39    1
    32    44    45    1
    33    96    97   ar
    34    45    46    1
    35   134   135    1
    36    92    91    1
    37   101    99   ar
    38   114   115    1
    39    97    99   ar
    40   135   136    1
    41   135   138    1
    42   136   137    2
    43    39    41   ar
    44    39    40   ar
    45    46    47    2
    46   122   123    1
    47    91    81   am
    48    41    43   ar
    49    40    42   ar
    50    82    81    2
    51   138   139    1
    52   139   140    1
    53   124   123    1
    54   124   125    2
    55   129   131   ar
    56   129   127   ar
    57    81    80    1
    58   123   126    1
    59   126   127    1
    60   131   132   ar
    61    43    42   ar
    62   127   128   ar
    63   140   142   ar
    64   140   141   ar
    65    80    83    1
    66    80    79    1
    67   132   133    1
    68   132   130   ar
    69    83    84    1
    70   128   130   ar
    71    86    84   ar
    72    86    88   ar
    73    84    85   ar
    74    88    89   ar
    75    85    87   ar
    76    77    76    1
    77    77    78    1
    78    89    87   ar
    79    89    90    1
    80    76    75    1
    81    75    72    1
    82    24    23   ar
    83    72    71    1
    84    72    73    1
    85    71    61   am
    86    73    74    2
    87    58    57    2
    88    23    25   ar
    89    23    22    1
    90    66    68   ar
    91    66    64   ar
    92    68    69   ar
    93    61    60    1
    94    61    62    2
    95    60    63    1
    96    60    59    1
    97    22    21    1
    98    57    59   am
    99    57    56    1
   100     9     7   am
   101    63    64    1
   102    64    65   ar
   103    69    70    1
   104    69    67   ar
   105    29    28    2
   106    56    55    1
   107    21    18    1
   108     7     8    2
   109     7     6    1
   110    28    27    1
   111    30    31    1
   112    30    27    1
   113    65    67   ar
   114    20    19    2
   115    32    31   ar
   116    31    33   ar
   117    18    19    1
   118    18    17    1
   119    27    26    1
   120     6     5    1
   121    55    50   am
   122    51    50    2
   123    50    49    1
   124    17    12   am
   125     4     3    2
   126     5     2    1
   127     3     2    1
   128    13    12    2
   129    12    11    1
   130    49    48    1
   131    49    52    1
   132     2     1    1
   133    15    14    1
   134    54    52    1
   135    14    11    1
   136    14    16    1
   137    52    53    1
   138    11    10    1
